@<TRIPOS>MOLECULE
RC8
   61    64     1     0     0
SMALL
bcc


@<TRIPOS>ATOM
      1 C2          3.3630    0.7820   -0.2130 ca        1 RC8      0.910900
      2 C4          3.4830   -1.4970    0.0230 ca        1 RC8      0.493800
      3 C5          2.0290   -1.5970    0.0480 ca        1 RC8     -0.261200
      4 C6          1.2990   -0.3680   -0.0410 ca        1 RC8      0.775200
      5 C8          2.7840   -3.6300    0.2230 cc        1 RC8      0.393700
      6 C10         5.6540   -4.1880   -1.0160 c3        1 RC8     -0.111100
      7 C12         3.4080    3.2670   -0.1920 c3        1 RC8      0.209500
      8 C15         3.2280    3.5430    1.3190 c3        1 RC8      0.093400
      9 C13         4.2000    4.4340   -0.8060 c3        1 RC8     -0.079400
     10 N2          4.0380    1.9940   -0.4870 nh        1 RC8     -0.802900
     11 N1          1.9710    0.8110   -0.1740 nb        1 RC8     -0.834000
     12 N9          3.9440   -2.8180    0.1390 na        1 RC8     -0.269000
     13 N7          1.6380   -2.9380    0.1720 nd        1 RC8     -0.538100
     14 N3          4.1760   -0.3340   -0.0880 nb        1 RC8     -0.788000
     15 N6         -0.0800   -0.3940    0.0720 nh        1 RC8     -0.853900
     16 CA'        -0.8810    0.7680   -0.2300 c3        1 RC8      0.257100
     17 C1'        -2.3560    0.4880   -0.1960 ca        1 RC8     -0.101300
     18 C6'        -3.1590    0.8670   -1.2760 ca        1 RC8     -0.123000
     19 C5'        -4.5350    0.6500   -1.2400 ca        1 RC8     -0.105000
     20 C4'        -5.1240    0.0500   -0.1200 cp        1 RC8     -0.140500
     21 C3'        -4.3160   -0.3400    0.9570 ca        1 RC8     -0.105000
     22 C2'        -2.9420   -0.1190    0.9200 ca        1 RC8     -0.123000
     23 C1B        -6.5800   -0.1730   -0.0610 cp        1 RC8      0.457800
     24 N1B        -7.2300   -0.5810   -1.1840 nb        1 RC8     -0.658000
     25 C5B        -8.5560   -0.7800   -1.0970 ca        1 RC8      0.398200
     26 C4B        -9.3050   -0.5890    0.0790 ca        1 RC8     -0.246300
     27 C3B        -8.6330   -0.1640    1.2240 ca        1 RC8     -0.093000
     28 C2B        -7.2560    0.0490    1.1610 ca        1 RC8     -0.236300
     29 H8          2.8680   -4.7180    0.3190 h5        1 RC8      0.068800
     30 H9          5.9640   -2.3370    0.0680 h1        1 RC8      0.091700
     31 H10         5.4480   -3.6850   -1.9910 hc        1 RC8      0.046533
     32 H10A        6.7390   -4.4450   -0.9690 hc        1 RC8      0.046533
     33 H10B        5.0590   -5.1310   -0.9670 hc        1 RC8      0.046533
     34 H12         2.3740    3.2690   -0.6500 h1        1 RC8      0.086700
     35 H14         3.2200    4.2960   -2.7360 hc        1 RC8      0.036700
     36 H14A        4.7320    5.2960   -2.7130 hc        1 RC8      0.036700
     37 H14B        4.8380    3.4890   -2.6570 hc        1 RC8      0.036700
     38 HO1         4.3860    3.6350    2.8610 ho        1 RC8      0.403000
     39 H15         2.7120    4.5300    1.4560 h1        1 RC8      0.034700
     40 H15A        2.6120    2.7360    1.7960 h1        1 RC8      0.034700
     41 H13         3.6950    5.3830   -0.4840 hc        1 RC8      0.050700
     42 H13A        5.2380    4.4500   -0.3800 hc        1 RC8      0.050700
     43 HN2         5.0100    1.9800   -0.2400 hn        1 RC8      0.427800
     44 H11         5.0960   -4.9070    1.5970 hc        1 RC8      0.046533
     45 H11A        6.7730   -4.2350    1.4330 hc        1 RC8      0.046533
     46 H11B        5.5100   -3.3060    2.3440 hc        1 RC8      0.046533
     47 HN6        -0.5130   -1.2860   -0.0280 hn        1 RC8      0.451800
     48 HA'        -0.6480    1.5650    0.5370 h1        1 RC8      0.059200
     49 HA'A       -0.6000    1.1860   -1.2420 h1        1 RC8      0.059200
     50 H6'        -2.7050    1.3370   -2.1610 ha        1 RC8      0.141000
     51 H5'        -5.1570    0.9480   -2.0980 ha        1 RC8      0.144000
     52 H3'        -4.7670   -0.8300    1.8340 ha        1 RC8      0.144000
     53 H2'        -2.3170   -0.4230    1.7730 ha        1 RC8      0.141000
     54 H5B        -9.0450   -1.1150   -2.0300 h4        1 RC8      0.023100
     55 H4B       -10.3870   -0.7700    0.0850 ha        1 RC8      0.144000
     56 H3B        -9.1780    0.0040    2.1640 ha        1 RC8      0.139000
     57 H2B        -6.6990    0.3920    2.0440 ha        1 RC8      0.146000
     58 C9          5.3180   -3.2640    0.1580 c3        1 RC8      0.057000
     59 C14         4.2500    4.3730   -2.3090 c3        1 RC8     -0.091100
     60 O1          4.5180    3.5930    1.9070 oh        1 RC8     -0.607800
     61 C11         5.6890   -3.9700    1.4650 c3        1 RC8     -0.111100
@<TRIPOS>BOND
     1    1   10 1   
     2    1   11 ar  
     3    1   14 ar  
     4    2    3 ar  
     5    2   12 1   
     6    2   14 ar  
     7    3    4 ar  
     8    3   13 1   
     9    4   11 ar  
    10    4   15 1   
    11    5   12 1   
    12    5   13 2   
    13    5   29 1   
    14    6   31 1   
    15    6   32 1   
    16    6   33 1   
    17    6   58 1   
    18    7    8 1   
    19    7    9 1   
    20    7   10 1   
    21    7   34 1   
    22    8   39 1   
    23    8   40 1   
    24    8   60 1   
    25    9   41 1   
    26    9   42 1   
    27    9   59 1   
    28   10   43 1   
    29   12   58 1   
    30   15   16 1   
    31   15   47 1   
    32   16   17 1   
    33   16   48 1   
    34   16   49 1   
    35   17   18 ar  
    36   17   22 ar  
    37   18   19 ar  
    38   18   50 1   
    39   19   20 ar  
    40   19   51 1   
    41   20   21 ar  
    42   20   23 1   
    43   21   22 ar  
    44   21   52 1   
    45   22   53 1   
    46   23   24 ar  
    47   23   28 ar  
    48   24   25 ar  
    49   25   26 ar  
    50   25   54 1   
    51   26   27 ar  
    52   26   55 1   
    53   27   28 ar  
    54   27   56 1   
    55   28   57 1   
    56   30   58 1   
    57   35   59 1   
    58   36   59 1   
    59   37   59 1   
    60   38   60 1   
    61   44   61 1   
    62   45   61 1   
    63   46   61 1   
    64   58   61 1   
@<TRIPOS>SUBSTRUCTURE
     1 RC8         1 TEMP              0 ****  ****    0 ROOT
