@<TRIPOS>MOLECULE
RC8
   61    52     1     0     0
SMALL
bcc


@<TRIPOS>ATOM
      1 C2         -2.4890   -0.5110   -1.0890 c1        1 RC8      0.193000
      2 C4         -2.4810   -0.3940    1.2750 c1        1 RC8     -0.079500
      3 C5         -1.1310   -0.2230    1.2650 c1        1 RC8     -0.079500
      4 C6         -0.4470   -0.1960    0.0640 c1        1 RC8      0.254000
      5 C8         -1.8030   -0.1880    3.3640 c1        1 RC8     -0.065000
      6 C9         -4.2530   -0.3610    3.1230 c3        1 RC8      0.038000
      7 C10        -4.4680    0.9220    3.9310 c3        1 RC8     -0.229500
      8 C12        -4.3820    0.4560   -2.4290 c3        1 RC8      0.011000
      9 C14        -6.8840    0.1780   -2.5030 c3        1 RC8     -0.210000
     10 O1         -4.0220    1.3830   -4.6540 oh        1 RC8     -0.335000
     11 C15        -4.0910    1.7190   -3.2430 c3        1 RC8     -0.056000
     12 C13        -5.5420   -0.3270   -3.0850 c3        1 RC8     -0.167000
     13 N2         -3.2430   -0.3440   -2.3840 n2        1 RC8     -0.247000
     14 N1         -1.1160   -0.3380   -1.0980 n2        1 RC8     -0.311000
     15 N9         -2.8980   -0.3720    2.5720 n2        1 RC8     -0.187000
     16 C11        -4.4400   -1.5720    4.0360 c3        1 RC8     -0.229500
     17 N7         -0.7110   -0.0960    2.5550 n1        1 RC8     -0.111000
     18 N3         -3.1630   -0.5380    0.0900 n1        1 RC8     -0.266000
     19 N6          0.9240   -0.1180   -0.3060 n3        1 RC8     -0.292000
     20 CA'         1.7500    0.8630    0.2690 c3        1 RC8      0.009000
     21 C1'         3.2180    0.4560    0.1050 c2        1 RC8     -0.094000
     22 C6'         3.8000    0.4830   -1.1450 c2        1 RC8     -0.126000
     23 C5'         5.1700    0.1980   -1.2880 c1        1 RC8     -0.093000
     24 C4'         5.9500   -0.1170   -0.1440 c1        1 RC8     -0.005500
     25 C3'         5.3620   -0.1440    1.1070 c1        1 RC8     -0.144000
     26 C2'         4.0030    0.1400    1.2480 c1        1 RC8     -0.121000
     27 C1B         7.3310   -0.2850   -0.2640 c1        1 RC8     -0.005500
     28 N1B         8.1730    0.7990   -0.1240 n1        1 RC8     -0.132000
     29 C5B         9.5290    0.6220   -0.1680 c1        1 RC8     -0.068000
     30 C4B        10.0570   -0.6410   -0.3520 c1        1 RC8     -0.137000
     31 C3B         9.2110   -1.7310   -0.4920 c1        1 RC8     -0.137000
     32 C2B         7.8570   -1.5530   -0.4490 c1        1 RC8     -0.144000
     33 H8         -1.8040   -0.1110    4.3100 DU        1 RC8      0.198000
     34 H9         -4.9190   -0.4000    2.3770 h1        1 RC8      0.128000
     35 H10        -4.1330    1.6430    3.4600 hc        1 RC8      0.086000
     36 H10A       -4.0030    0.8480    4.7920 hc        1 RC8      0.086000
     37 H10B       -5.4140    1.0510    4.0860 hc        1 RC8      0.086000
     38 H12        -4.6400    0.7110   -1.5100 h1        1 RC8      0.125000
     39 H14        -7.5980   -0.0350   -3.1070 hc        1 RC8      0.073667
     40 H14A       -6.8400    1.1900   -2.3720 hc        1 RC8      0.073667
     41 H14B       -7.0510   -0.2690   -1.6150 hc        1 RC8      0.073667
     42 HO1        -3.6940    2.0790   -5.1090 ho        1 RC8      0.203000
     43 H15        -4.7810    2.3500   -3.1020 h1        1 RC8      0.074500
     44 H15A       -3.2000    2.1190   -2.9450 h1        1 RC8      0.074500
     45 H13        -5.4380   -1.3220   -2.8860 hc        1 RC8      0.098000
     46 H13A       -5.5290   -0.1820   -4.0770 hc        1 RC8      0.098000
     47 HN2        -2.9630   -0.7540   -3.1150 hn        1 RC8      0.223000
     48 H11        -4.0940   -2.3730    3.5920 hc        1 RC8      0.086000
     49 H11A       -5.3680   -1.6890    4.2240 hc        1 RC8      0.086000
     50 H11B       -3.9660   -1.4300    4.8570 hc        1 RC8      0.086000
     51 HN6         1.2540   -0.6630   -0.9960 hn        1 RC8      0.231000
     52 HA'         1.5880    1.7650   -0.2010 h1        1 RC8      0.109500
     53 HA'A        1.5480    0.9450    1.1860 h1        1 RC8      0.109500
     54 H6'         3.2370    0.7080   -1.9630 ha        1 RC8      0.144000
     55 H5'         5.5770    0.2160   -2.1580 ha        1 RC8      0.151000
     56 H3'         5.9180   -0.3700    1.9230 ha        1 RC8      0.141000
     57 H2'         3.5680    0.1140    2.1840 ha        1 RC8      0.138000
     58 H5B        10.1440    1.4160   -0.0650 ha        1 RC8      0.160000
     59 H4B        11.0320   -0.7660   -0.3840 ha        1 RC8      0.141500
     60 H3B         9.5700   -2.5930   -0.6170 ha        1 RC8      0.141500
     61 H2B         7.2210   -2.3660   -0.5530 ha        1 RC8      0.141000
@<TRIPOS>BOND
     1    1   14 1   
     2    1   18 1   
     3    2    3 1   
     4    4   14 1   
     5    4   19 1   
     6    5   15 1   
     7    5   17 1   
     8    6    7 1   
     9    6   15 1   
    10    6   16 1   
    11    6   34 1   
    12    7   35 1   
    13    7   36 1   
    14    7   37 1   
    15    8   11 1   
    16    8   12 1   
    17    8   13 1   
    18    8   38 1   
    19    9   12 1   
    20    9   39 1   
    21    9   40 1   
    22    9   41 1   
    23   10   11 1   
    24   10   42 1   
    25   11   43 1   
    26   11   44 1   
    27   12   45 1   
    28   12   46 1   
    29   13   47 1   
    30   16   48 1   
    31   16   49 1   
    32   16   50 1   
    33   19   20 1   
    34   19   51 1   
    35   20   21 1   
    36   20   52 1   
    37   20   53 1   
    38   21   22 1   
    39   21   26 1   
    40   22   23 1   
    41   22   54 1   
    42   23   55 1   
    43   24   25 1   
    44   25   56 1   
    45   26   57 1   
    46   27   32 1   
    47   28   29 1   
    48   29   58 1   
    49   30   31 1   
    50   30   59 1   
    51   31   60 1   
    52   32   61 1   
@<TRIPOS>SUBSTRUCTURE
     1 RC8         1 TEMP              0 ****  ****    0 ROOT
