@<TRIPOS>MOLECULE
RC8
   61    61     1     0     0
SMALL
bcc


@<TRIPOS>ATOM
      1 C2          0.1800    0.3750   -0.4020 c2        1 RC8      0.175000
      2 C4          0.4570    0.1030    1.8560 c2        1 RC8     -0.036000
      3 C5          1.8740   -0.0470    1.7110 c2        1 RC8     -0.172000
      4 C6          2.3900    0.0330    0.3760 c2        1 RC8      0.223000
      5 C8          1.6270   -0.2440    3.9060 c1        1 RC8     -0.102000
      6 C10        -1.1960   -0.9730    5.1370 c3        1 RC8     -0.226000
      7 C12        -0.2640    0.4150   -2.8250 c3        1 RC8     -0.055000
      8 C15        -3.8630   -0.3570   -1.8640 c1        1 RC8     -0.042000
      9 C13        -1.3730    0.6820   -3.8440 c3        1 RC8     -0.269000
     10 N2         -0.6750    0.7070   -1.4700 nh        1 RC8     -0.270000
     11 N1          1.5270    0.2170   -0.6740 n2        1 RC8     -0.277000
     12 N9          0.1690    0.0030    3.3080 n4        1 RC8     -0.034000
     13 N7          2.5180   -0.2530    2.9590 n2        1 RC8     -0.245000
     14 N3         -0.4220    0.3020    0.8590 n2        1 RC8     -0.242000
     15 N6          3.7550   -0.0260    0.1730 nh        1 RC8     -0.287000
     16 CA'         4.3140   -0.1690   -1.1470 c3        1 RC8     -0.019000
     17 C1'         5.8360   -0.2780   -1.1560 c3        1 RC8     -0.090000
     18 C6'         6.5370    1.0590   -0.6940 c3        1 RC8     -0.063000
     19 C5'         7.4190    0.6000    0.3730 cu        1 RC8     -0.159000
     20 C4'         8.1270   -0.0210    1.3170 cu        1 RC8      0.068000
     21 C3'         7.2400   -0.8740    0.5820 cu        1 RC8     -0.141000
     22 C2'         6.3470   -1.4010   -0.2480 c2        1 RC8     -0.202000
     23 C1B         9.1070    0.0170    2.3670 c2        1 RC8      0.062000
     24 N1B         9.6460    1.2760    2.6870 n3        1 RC8     -0.326000
     25 C5B        14.6550    2.2660    5.4760 c1        1 RC8      0.390000
     26 C4B        13.6340    1.9690    4.7450 c1        1 RC8     -0.774000
     27 C3B        12.6160    1.6740    4.0210 c1        1 RC8      0.390000
     28 C2B         9.4040   -1.1210    3.0410 c2        1 RC8     -0.272000
     29 H8         -0.1790    0.8930    3.6580 hn        1 RC8      0.230000
     30 H9         -1.7110   -0.9350    3.0270 hx        1 RC8      0.104000
     31 H10        -1.7040   -0.0010    5.3450 hc        1 RC8      0.096500
     32 H10A       -0.3010   -1.0630    5.8000 hc        1 RC8      0.096500
     33 H10B       -1.9060   -1.8030    5.3710 hc        1 RC8      0.096500
     34 H12         0.6230    1.0670   -3.0720 h1        1 RC8      0.087000
     35 H14        -0.2470    2.7940   -5.5820 ha        1 RC8      0.010000
     36 H14A        0.2130    2.6040   -5.1170 ha        1 RC8      0.010000
     37 H14B       -1.4430    2.8000   -3.3390 ha        1 RC8      0.048000
     38 HO1        -4.7690    0.6350   -0.4630 ho        1 RC8      0.161000
     39 H15        -4.6930   -1.0930   -1.9490 ha        1 RC8      0.022000
     40 H15A        0.0680   -0.6590   -2.9250 h1        1 RC8      0.087000
     41 H13        -1.0710    0.2080   -4.8190 hc        1 RC8      0.158000
     42 H13A       -2.3400    0.1670   -3.5240 hc        1 RC8      0.158000
     43 HN2        -1.6520    0.5590   -1.2920 hn        1 RC8      0.235000
     44 H11         0.6810   -2.6570    4.0250 hc        1 RC8      0.096500
     45 H11A        0.0540   -2.5840    2.3220 hc        1 RC8      0.096500
     46 H11B       -1.0050   -3.2280    3.6470 hc        1 RC8      0.096500
     47 HN6         3.8920   -1.0880   -1.6520 h1        1 RC8      0.090000
     48 HA'         4.0090    0.7270   -1.7620 h1        1 RC8      0.090000
     49 HA'A        4.3050   -0.3560    0.9400 hn        1 RC8      0.260000
     50 H6'         7.1060    1.5150   -1.5420 hc        1 RC8      0.118000
     51 H5'         5.7890    1.8030   -0.3210 hc        1 RC8      0.118000
     52 H3'         5.9900   -2.4210   -0.3530 ha        1 RC8      0.158000
     53 H2'         6.1460   -0.4970   -2.2120 hc        1 RC8      0.102000
     54 H5B         9.6670    1.9080    1.9170 hn        1 RC8      0.187500
     55 H4B        10.5240    1.2240    3.1650 hn        1 RC8      0.187500
     56 H3B        10.1490   -1.1570    3.8420 ha        1 RC8      0.127000
     57 H2B         8.8860   -2.0610    2.8190 ha        1 RC8      0.127000
     58 C9         -0.7890   -1.0800    3.6690 c3        1 RC8     -0.022000
     59 C14        -1.7640    2.0520   -4.0810 c1        1 RC8     -0.078000
     60 O1         -3.9560    0.5950   -1.0150 oh        1 RC8     -0.130000
     61 C11        -0.2250   -2.4700    3.3970 c3        1 RC8     -0.226000
@<TRIPOS>BOND
     1    1   10 1   
     2    1   11 1   
     3    1   14 1   
     4    2    3 1   
     5    2   12 1   
     6    2   14 1   
     7    3    4 1   
     8    3   13 1   
     9    4   11 1   
    10    4   15 1   
    11    5   12 1   
    12    5   13 1   
    13    6   31 1   
    14    6   32 1   
    15    6   33 1   
    16    6   58 1   
    17    7    9 1   
    18    7   10 1   
    19    7   34 1   
    20    7   40 1   
    21    8   39 1   
    22    8   60 1   
    23    9   41 1   
    24    9   42 1   
    25    9   59 1   
    26   10   43 1   
    27   12   29 1   
    28   12   58 1   
    29   15   16 1   
    30   15   49 1   
    31   16   17 1   
    32   16   47 1   
    33   16   48 1   
    34   17   18 1   
    35   17   22 1   
    36   17   53 1   
    37   18   19 1   
    38   18   50 1   
    39   18   51 1   
    40   19   20 1   
    41   19   21 1   
    42   20   21 1   
    43   20   23 1   
    44   21   22 1   
    45   22   52 1   
    46   23   24 1   
    47   23   28 1   
    48   24   54 1   
    49   24   55 1   
    50   25   26 1   
    51   26   27 1   
    52   28   56 1   
    53   28   57 1   
    54   30   58 1   
    55   35   36 1   
    56   37   59 1   
    57   38   60 1   
    58   44   61 1   
    59   45   61 1   
    60   46   61 1   
    61   58   61 1   
@<TRIPOS>SUBSTRUCTURE
     1 RC8         1 TEMP              0 ****  ****    0 ROOT
