@<TRIPOS>MOLECULE
RC8
   61    62     1     0     0
SMALL
bcc


@<TRIPOS>ATOM
      1 C2         -0.2280    0.3390    0.0360 c2        1 RC8      0.205000
      2 C4         -0.3600    0.1680    2.3200 c2        1 RC8      0.107000
      3 C5          1.0690   -0.1020    2.4010 c2        1 RC8     -0.270000
      4 C6          1.7940   -0.1380    1.1660 c2        1 RC8      0.258000
      5 C8          0.3230   -0.1340    4.4450 c2        1 RC8     -0.052000
      6 C10        -2.2790    1.5940    5.0160 c3        1 RC8     -0.229500
      7 C12        -0.2820    0.3770   -2.4400 c3        1 RC8     -0.021000
      8 C15         2.5300   -2.1280   -2.1850 c1        1 RC8     -0.030000
      9 C13        -1.2280    0.6200   -3.6170 c3        1 RC8     -0.173000
     10 N2         -0.8680    0.6870   -1.1630 nu        1 RC8     -0.288000
     11 N1          1.1350    0.0400   -0.0160 n2        1 RC8     -0.324000
     12 N9         -0.8180    0.1390    3.6460 na        1 RC8     -0.183000
     13 N7          1.4520   -0.2820    3.7400 n2        1 RC8     -0.114000
     14 N3         -1.0360    0.3840    1.1610 n2        1 RC8     -0.262000
     15 N6          3.1720   -0.3030    1.2230 nu        1 RC8     -0.295000
     16 CA'         3.9570   -0.6000    0.0540 c3        1 RC8     -0.030000
     17 C1'         5.4340   -0.4300    0.2480 c2        1 RC8     -0.032000
     18 C6'         5.9500    0.5740    1.2100 c3        1 RC8     -0.198000
     19 C5'         7.3890    0.7560    1.2780 c1        1 RC8     -0.114000
     20 C4'         8.2360   -0.0730    0.4990 c2        1 RC8     -0.217000
     21 C3'         7.7140   -0.9770   -0.3980 c2        1 RC8      0.056000
     22 C2'         6.2990   -1.1550   -0.5140 c2        1 RC8     -0.208000
     23 C1B         9.6990    0.1060    0.6710 c2        1 RC8      0.265000
     24 N1B        10.1220    1.2950    1.1330 n8        1 RC8     -0.287000
     25 C5B        13.4940    1.0120    1.1730 c1        1 RC8      0.029000
     26 C4B        12.7290    0.0820    0.8250 c1        1 RC8     -0.657000
     27 C3B        11.9480   -0.9510    0.4380 c2        1 RC8      0.230000
     28 C2B        10.5550   -0.9630    0.3490 c2        1 RC8     -0.391000
     29 H8          0.2380   -0.2080    5.5350 h5        1 RC8      0.203000
     30 H9         -2.8020    0.5510    3.1900 h1        1 RC8      0.129000
     31 H10        -1.9160    2.5110    4.4940 hc        1 RC8      0.087667
     32 H10A       -3.3520    1.7400    5.2890 hc        1 RC8      0.087667
     33 H10B       -1.6870    1.4570    5.9530 hc        1 RC8      0.087667
     34 H12         0.6340    1.0240   -2.5670 h1        1 RC8      0.075000
     35 H14        -2.1900    2.2140   -4.7140 hc        1 RC8      0.081000
     36 H14A       -0.6460    2.6910   -3.8930 hc        1 RC8      0.081000
     37 H14B       -2.1530    2.4590   -2.9200 hc        1 RC8      0.081000
     38 HO1         2.0830   -0.4450   -3.0440 ho        1 RC8      0.157000
     39 H15         0.0480   -0.7050   -2.4750 h1        1 RC8      0.075000
     40 H15A        1.4560   -2.3650   -2.0070 ha        1 RC8      0.015000
     41 H13        -0.7120    0.2400   -4.5390 hc        1 RC8      0.088500
     42 H13A       -2.1670    0.0180   -3.4910 hc        1 RC8      0.088500
     43 HN2        -1.8660    0.7070   -1.1340 hn        1 RC8      0.234000
     44 H11        -2.1700   -1.0640    5.7760 hc        1 RC8      0.087667
     45 H11A       -3.8040   -0.6240    5.1220 hc        1 RC8      0.087667
     46 H11B       -2.7310   -1.7540    4.1950 hc        1 RC8      0.087667
     47 HN6         3.7500   -1.6570   -0.3090 h1        1 RC8      0.126500
     48 HA'         3.5180   -0.6620    2.0870 hn        1 RC8      0.241000
     49 HA'A        3.6530    0.0970   -0.7870 h1        1 RC8      0.126500
     50 H6'         5.4840    1.5830    0.9890 hc        1 RC8      0.180500
     51 H5'         5.6190    0.3230    2.2660 hc        1 RC8      0.180500
     52 H3'         8.3570   -1.5800   -1.0630 ha        1 RC8      0.151000
     53 H2'         5.9300   -1.8950   -1.2440 ha        1 RC8      0.161000
     54 H5B         9.4460    1.9660    1.4320 hn        1 RC8      0.266500
     55 H4B        11.0930    1.4600    1.3080 hn        1 RC8      0.266500
     56 H3B        12.4540   -1.9000    0.1570 ha        1 RC8      0.112000
     57 H2B        10.0820   -1.9000    0.0200 ha        1 RC8      0.130000
     58 C9         -2.1680    0.3650    4.1110 c3        1 RC8      0.036000
     59 C14        -1.5720    2.0750   -3.7930 c3        1 RC8     -0.214000
     60 O1          2.8280   -1.0350   -2.7840 oh        1 RC8     -0.145000
     61 C11        -2.7460   -0.8470    4.8450 c3        1 RC8     -0.229500
@<TRIPOS>BOND
     1    1   10 1   
     2    1   11 1   
     3    1   14 1   
     4    2    3 1   
     5    2   12 1   
     6    2   14 1   
     7    3    4 1   
     8    3   13 1   
     9    4   11 1   
    10    4   15 1   
    11    5   12 1   
    12    5   13 1   
    13    5   29 1   
    14    6   31 1   
    15    6   32 1   
    16    6   33 1   
    17    6   58 1   
    18    7    9 1   
    19    7   10 1   
    20    7   34 1   
    21    7   39 1   
    22    8   40 1   
    23    8   60 1   
    24    9   41 1   
    25    9   42 1   
    26    9   59 1   
    27   10   43 1   
    28   12   58 1   
    29   15   16 1   
    30   15   48 1   
    31   16   17 1   
    32   16   47 1   
    33   16   49 1   
    34   17   18 1   
    35   17   22 1   
    36   18   19 1   
    37   18   50 1   
    38   18   51 1   
    39   19   20 1   
    40   20   21 1   
    41   20   23 1   
    42   21   22 1   
    43   21   52 1   
    44   22   53 1   
    45   23   24 1   
    46   23   28 1   
    47   24   54 1   
    48   24   55 1   
    49   25   26 1   
    50   26   27 1   
    51   27   28 1   
    52   27   56 1   
    53   28   57 1   
    54   30   58 1   
    55   35   59 1   
    56   36   59 1   
    57   37   59 1   
    58   38   60 1   
    59   44   61 1   
    60   45   61 1   
    61   46   61 1   
    62   58   61 1   
@<TRIPOS>SUBSTRUCTURE
     1 RC8         1 TEMP              0 ****  ****    0 ROOT
