@<TRIPOS>MOLECULE
RCA
   37    38     1     0     0
SMALL
bcc


@<TRIPOS>ATOM
      1 O2          0.0050   -0.7280   -0.4020 o         1 RCA     -0.615500
      2 C3          2.3600   -0.2730   -0.1460 cc        1 RCA     -0.265400
      3 C4          2.5690   -0.3890   -1.6050 c3        1 RCA     -0.037900
      4 C5          3.3610    0.0020    0.7520 cd        1 RCA      0.102400
      5 C1          1.7980   -0.1200    2.6230 c         1 RCA      0.803500
      6 N1          3.0960    0.0740    2.1120 n         1 RCA     -0.466100
      7 C2          0.9780   -0.4830    0.3320 c         1 RCA      0.717700
      8 N2          0.7640   -0.3960    1.7160 n         1 RCA     -0.583500
      9 C11         6.3980    1.7670   -0.7910 c3        1 RCA      0.040700
     10 N4          7.0420    3.0660   -0.7150 n         1 RCA     -0.505900
     11 C10         7.4500    3.5410    0.5500 c         1 RCA      0.785500
     12 C12         7.4140    0.5970   -0.7750 c3        1 RCA      0.086400
     13 O5          8.4320    0.8090   -1.7310 oh        1 RCA     -0.586800
     14 C7          5.3180    1.6030    0.3180 c3        1 RCA     -0.105000
     15 N3          6.8900    2.9600    1.7120 n         1 RCA     -0.591500
     16 C9          5.9400    1.9490    1.6770 c         1 RCA      0.709500
     17 C6          4.7930    0.1650    0.3090 c3        1 RCA     -0.048200
     18 C8          4.1860    2.5920    0.0650 c3        1 RCA     -0.099100
     19 H43         1.5870   -0.4940   -2.1340 hc        1 RCA      0.050700
     20 H42         3.1880   -1.2920   -1.8430 hc        1 RCA      0.050700
     21 H41         3.0890    0.5150   -2.0090 hc        1 RCA      0.050700
     22 H1          3.8230    0.2950    2.7650 hn        1 RCA      0.380500
     23 H2         -0.1500   -0.5370    2.0890 hn        1 RCA      0.355500
     24 H11         5.8620    1.7450   -1.7880 h1        1 RCA      0.078700
     25 H4          7.7250    3.2240   -1.4320 hn        1 RCA      0.329500
     26 H122        7.9520    0.5450    0.2100 h1        1 RCA      0.064200
     27 H121        6.8950   -0.3770   -0.9690 h1        1 RCA      0.064200
     28 H5          8.0410    0.6860   -2.6050 ho        1 RCA      0.404000
     29 H3          7.2220    3.2950    2.5920 hn        1 RCA      0.356500
     30 H62         5.4550   -0.4710    0.9600 hc        1 RCA      0.079700
     31 H61         4.8600   -0.2360   -0.7400 hc        1 RCA      0.079700
     32 H83         4.5710    3.6340   -0.0460 hc        1 RCA      0.062367
     33 H82         3.4620    2.5780    0.9170 hc        1 RCA      0.062367
     34 H81         3.6430    2.3100   -0.8700 hc        1 RCA      0.062367
     35 O1          1.5870   -0.0470    3.8510 o         1 RCA     -0.631500
     36 O4          8.2460    4.4930    0.6670 o         1 RCA     -0.615500
     37 O3          5.6150    1.3850    2.7370 o         1 RCA     -0.625500
@<TRIPOS>BOND
     1    1    7 2   
     2    2    3 1   
     3    2    4 2   
     4    2    7 1   
     5    3   19 1   
     6    3   20 1   
     7    3   21 1   
     8    4    6 1   
     9    4   17 1   
    10    5    6 1   
    11    5    8 1   
    12    5   35 2   
    13    6   22 1   
    14    7    8 1   
    15    8   23 1   
    16    9   10 1   
    17    9   12 1   
    18    9   14 1   
    19    9   24 1   
    20   10   11 1   
    21   10   25 1   
    22   11   15 1   
    23   11   36 2   
    24   12   13 1   
    25   12   26 1   
    26   12   27 1   
    27   13   28 1   
    28   14   16 1   
    29   14   17 1   
    30   14   18 1   
    31   15   16 1   
    32   15   29 1   
    33   16   37 2   
    34   17   30 1   
    35   17   31 1   
    36   18   32 1   
    37   18   33 1   
    38   18   34 1   
@<TRIPOS>SUBSTRUCTURE
     1 RCA         1 TEMP              0 ****  ****    0 ROOT
