@<TRIPOS>MOLECULE
RCA
   37    38     1     0     0
SMALL
bcc


@<TRIPOS>ATOM
      1 O2          1.9980   -0.6430    4.5230 o         1 RCA     -0.615500
      2 C3          1.3700    0.0600    2.3020 cc        1 RCA     -0.263400
      3 C4          2.7760   -0.0060    1.8520 c3        1 RCA     -0.037900
      4 C5          0.3230    0.4300    1.4940 cd        1 RCA      0.101400
      5 C1         -1.2650    0.1710    3.3300 c         1 RCA      0.803500
      6 N1         -0.9710    0.4920    1.9900 n         1 RCA     -0.467100
      7 C2          1.1200   -0.2890    3.7160 c         1 RCA      0.716700
      8 N2         -0.2070   -0.2130    4.1650 n         1 RCA     -0.583500
      9 C11         1.0060   -0.0250   -2.2570 c3        1 RCA      0.081700
     10 N4          0.5270   -0.8680   -3.3360 n         1 RCA     -0.508900
     11 C10        -0.8510   -0.8600   -3.6310 c         1 RCA      0.784500
     12 C12         1.1500    1.4610   -2.6710 c3        1 RCA      0.090400
     13 O5          1.9970    1.4800   -3.8080 oh        1 RCA     -0.604800
     14 C7          0.1070   -0.1670   -0.9920 c3        1 RCA     -0.109000
     15 N3         -1.7550   -0.3890   -2.6490 n         1 RCA     -0.592500
     16 C9         -1.3570    0.0540   -1.3950 c         1 RCA      0.708500
     17 C6          0.5450    0.8510    0.0640 c3        1 RCA     -0.048200
     18 C8          0.2280   -1.5880   -0.4510 c3        1 RCA     -0.098100
     19 H43         3.4220   -0.4510    2.6530 hc        1 RCA      0.051367
     20 H42         2.8740   -0.6380    0.9340 hc        1 RCA      0.051367
     21 H41         3.1650    1.0180    1.6230 hc        1 RCA      0.051367
     22 H1         -1.7370    0.7400    1.3930 hn        1 RCA      0.379500
     23 H2         -0.4260   -0.4340    5.1130 hn        1 RCA      0.354500
     24 H11         2.0390   -0.4070   -1.9940 h1        1 RCA      0.094700
     25 H4          1.1150   -0.8750   -4.1470 hn        1 RCA      0.337500
     26 H122        0.1490    1.9040   -2.9160 h1        1 RCA      0.039200
     27 H121        1.6250    2.0560   -1.8470 h1        1 RCA      0.039200
     28 H5          2.0210    2.3920   -4.1240 ho        1 RCA      0.418000
     29 H3         -2.7230   -0.3770   -2.8920 hn        1 RCA      0.355500
     30 H62         0.0080    1.8230   -0.1210 hc        1 RCA      0.080200
     31 H61         1.6470    1.0420   -0.0580 hc        1 RCA      0.080200
     32 H83        -0.4970   -1.7460    0.3850 hc        1 RCA      0.062367
     33 H82         0.0160   -2.3460   -1.2420 hc        1 RCA      0.062367
     34 H81         1.2630   -1.7540   -0.0650 hc        1 RCA      0.062367
     35 O1         -2.4400    0.2320    3.7490 o         1 RCA     -0.632500
     36 O4         -1.2980   -1.3050   -4.7070 o         1 RCA     -0.620500
     37 O3         -2.1950    0.5890   -0.6480 o         1 RCA     -0.627500
@<TRIPOS>BOND
     1    1    7 2   
     2    2    3 1   
     3    2    4 2   
     4    2    7 1   
     5    3   19 1   
     6    3   20 1   
     7    3   21 1   
     8    4    6 1   
     9    4   17 1   
    10    5    6 1   
    11    5    8 1   
    12    5   35 2   
    13    6   22 1   
    14    7    8 1   
    15    8   23 1   
    16    9   10 1   
    17    9   12 1   
    18    9   14 1   
    19    9   24 1   
    20   10   11 1   
    21   10   25 1   
    22   11   15 1   
    23   11   36 2   
    24   12   13 1   
    25   12   26 1   
    26   12   27 1   
    27   13   28 1   
    28   14   16 1   
    29   14   17 1   
    30   14   18 1   
    31   15   16 1   
    32   15   29 1   
    33   16   37 2   
    34   17   30 1   
    35   17   31 1   
    36   18   32 1   
    37   18   33 1   
    38   18   34 1   
@<TRIPOS>SUBSTRUCTURE
     1 RCA         1 TEMP              0 ****  ****    0 ROOT
