@<TRIPOS>MOLECULE
RCA
   37    39     1     0     0
SMALL
bcc


@<TRIPOS>ATOM
      1 O2         -0.0370    0.5300   -0.7070 o         1 RCA     -0.599500
      2 C3          2.2870   -0.0710   -0.5580 cx        1 RCA     -0.214700
      3 C4          2.8180   -1.4630   -0.3600 cx        1 RCA     -0.121400
      4 C5          3.4390   -0.3060    0.4230 cx        1 RCA      0.087400
      5 C1          1.8910    0.1060    2.2950 c         1 RCA      0.811500
      6 N1          3.1640   -0.1940    1.8130 ns        1 RCA     -0.542900
      7 C2          0.9440    0.2620    0.0070 c         1 RCA      0.731500
      8 N2          0.8150    0.2770    1.3930 ns        1 RCA     -0.597500
      9 C11         6.3600    1.8880   -0.8690 c3        1 RCA      0.039700
     10 N4          6.9630    3.1790   -0.5930 ns        1 RCA     -0.507900
     11 C10         7.3800    3.4600    0.7260 c         1 RCA      0.786500
     12 C12         7.4120    0.7690   -1.0730 c3        1 RCA      0.086400
     13 O5          8.4020    1.1760   -1.9950 oh        1 RCA     -0.586800
     14 C7          5.3160    1.4990    0.2240 c3        1 RCA     -0.104000
     15 N3          6.8770    2.6720    1.7850 ns        1 RCA     -0.593500
     16 C9          5.9820    1.6240    1.6000 c         1 RCA      0.709500
     17 C6          4.8390    0.0680   -0.0300 c3        1 RCA     -0.048400
     18 C8          4.1580    2.4880    0.1680 c3        1 RCA     -0.095100
     19 H43         3.4030   -1.9220   -1.1770 hc        1 RCA      0.091700
     20 H42         2.1950   -2.2070    0.1700 hc        1 RCA      0.091700
     21 H41         2.4740    0.4540   -1.5140 hc        1 RCA      0.118700
     22 H1          3.9220   -0.1880    2.4640 hn        1 RCA      0.376500
     23 H2         -0.0730    0.4860    1.8000 hn        1 RCA      0.353500
     24 H11         5.7970    2.0130   -1.8430 h1        1 RCA      0.075700
     25 H4          7.6230    3.4770   -1.2850 hn        1 RCA      0.328500
     26 H122        7.9730    0.5660   -0.1210 h1        1 RCA      0.063200
     27 H121        6.9180   -0.1740   -1.4250 h1        1 RCA      0.063200
     28 H5          7.9920    1.2070   -2.8680 ho        1 RCA      0.403000
     29 H3          7.2250    2.8660    2.7010 hn        1 RCA      0.356500
     30 H62         4.8630   -0.1120   -1.1410 hc        1 RCA      0.067700
     31 H61         5.5610   -0.6440    0.4560 hc        1 RCA      0.067700
     32 H83         4.5190    3.5430    0.2220 hc        1 RCA      0.059367
     33 H82         3.4580    2.3210    1.0220 hc        1 RCA      0.059367
     34 H81         3.5980    2.3530   -0.7890 hc        1 RCA      0.059367
     35 O1          1.6800    0.2150    3.5220 o         1 RCA     -0.638500
     36 O4          8.1380    4.4170    0.9820 o         1 RCA     -0.618500
     37 O3          5.7530    0.8540    2.5480 o         1 RCA     -0.618500
@<TRIPOS>BOND
     1    1    7 2   
     2    2    3 1   
     3    2    4 1   
     4    2    7 1   
     5    2   21 1   
     6    3    4 1   
     7    3   19 1   
     8    3   20 1   
     9    4    6 1   
    10    4   17 1   
    11    5    6 1   
    12    5    8 1   
    13    5   35 2   
    14    6   22 1   
    15    7    8 1   
    16    8   23 1   
    17    9   10 1   
    18    9   12 1   
    19    9   14 1   
    20    9   24 1   
    21   10   11 1   
    22   10   25 1   
    23   11   15 1   
    24   11   36 2   
    25   12   13 1   
    26   12   26 1   
    27   12   27 1   
    28   13   28 1   
    29   14   16 1   
    30   14   17 1   
    31   14   18 1   
    32   15   16 1   
    33   15   29 1   
    34   16   37 2   
    35   17   30 1   
    36   17   31 1   
    37   18   32 1   
    38   18   33 1   
    39   18   34 1   
@<TRIPOS>SUBSTRUCTURE
     1 RCA         1 TEMP              0 ****  ****    0 ROOT
