@<TRIPOS>MOLECULE
RCE
   36    38     1     0     0
SMALL
bcc


@<TRIPOS>ATOM
      1 P          -3.3920   -1.3060    0.2750 p5        1 RCE      1.432800
      2 N1          2.4500   -0.1790    0.3420 n         1 RCE     -0.349000
      3 C2          3.7910   -0.0320    0.7530 c         1 RCE      0.799500
      4 O2          4.2050    0.9570    1.4050 o         1 RCE     -0.677500
      5 N3          4.7080   -1.0540    0.4310 n         1 RCE     -0.598500
      6 C4          4.3380   -2.2220   -0.2600 c         1 RCE      0.721700
      7 O4          5.2290   -3.0670   -0.5010 o         1 RCE     -0.695500
      8 C5          2.9350   -2.3300   -0.6220 cc        1 RCE     -0.396200
      9 C6          2.0580   -1.3240   -0.3180 cd        1 RCE      0.114600
     10 C1'         1.4930    0.9100    0.6320 c3        1 RCE      0.267500
     11 O1P        -2.4090   -2.3280   -0.1560 o         1 RCE     -0.846500
     12 C2'         1.4770    2.0790   -0.4070 c3        1 RCE     -0.004900
     13 O2A         0.6400    3.0710    0.2110 os        1 RCE     -0.436600
     14 O2P        -4.3890   -1.2630   -1.0320 oh        1 RCE     -0.788400
     15 C3'         0.5520    1.4430   -1.5590 c3        1 RCE      0.413800
     16 O3'         0.2240    2.2140   -2.5390 o         1 RCE     -0.811500
     17 O3P        -4.1930   -1.3370    1.5140 o         1 RCE     -0.846500
     18 C4'        -0.5770    1.1450   -0.4230 c3        1 RCE     -0.019200
     19 O4'         0.1530    0.3950    0.5960 os        1 RCE     -0.410600
     20 C5'        -1.7870    0.3800   -0.8870 c3        1 RCE      0.219400
     21 O5'        -2.7470    0.1980    0.1130 os        1 RCE     -0.580200
     22 C6'        -0.7340    2.5760    0.1390 c3        1 RCE      0.142100
     23 C7'        -1.3580    2.6620    1.5090 c3        1 RCE     -0.095100
     24 H5          2.6130   -3.2400   -1.1380 ha        1 RCE      0.166000
     25 H6          0.9720   -1.3770   -0.5700 h4        1 RCE      0.227000
     26 H1'         1.6990    1.2490    1.6860 h2        1 RCE      0.072700
     27 H2'         2.4400    2.5390   -0.6690 h1        1 RCE      0.074700
     28 H3'         0.9950    0.4400   -1.8480 h1        1 RCE     -0.077300
     29 HO3'       -3.9820   -1.6770   -1.7840 ho        1 RCE      0.415000
     30 H5'        -2.2380    0.9920   -1.7220 h1        1 RCE      0.040200
     31 H5'A       -1.4530   -0.6220   -1.2820 h1        1 RCE      0.040200
     32 H6'        -1.2700    3.2140   -0.6100 h1        1 RCE      0.063700
     33 H7'        -1.4980    3.7270    1.8110 hc        1 RCE      0.033700
     34 H7'A       -2.3450    2.1380    1.4840 hc        1 RCE      0.033700
     35 H7'B       -0.7050    2.1600    2.2620 hc        1 RCE      0.033700
     36 HN3         5.6510   -0.9180    0.7120 hn        1 RCE      0.324500
@<TRIPOS>BOND
     1    1   11 1   
     2    1   14 1   
     3    1   17 1   
     4    1   21 1   
     5    2    3 1   
     6    2    9 1   
     7    2   10 1   
     8    3    4 2   
     9    3    5 1   
    10    5    6 1   
    11    5   36 1   
    12    6    7 2   
    13    6    8 1   
    14    8    9 2   
    15    8   24 1   
    16    9   25 1   
    17   10   12 1   
    18   10   19 1   
    19   10   26 1   
    20   12   13 1   
    21   12   15 1   
    22   12   27 1   
    23   13   22 1   
    24   14   29 1   
    25   15   16 1   
    26   15   18 1   
    27   15   28 1   
    28   18   19 1   
    29   18   20 1   
    30   18   22 1   
    31   20   21 1   
    32   20   30 1   
    33   20   31 1   
    34   22   23 1   
    35   22   32 1   
    36   23   33 1   
    37   23   34 1   
    38   23   35 1   
@<TRIPOS>SUBSTRUCTURE
     1 RCE         1 TEMP              0 ****  ****    0 ROOT
