@<TRIPOS>MOLECULE
RCL
   54    53     1     0     0
SMALL
bcc


@<TRIPOS>ATOM
      1 O1          0.0210   -0.5930   -0.9740 o         1 RCL     -0.853300
      2 C1          1.1940   -0.9950   -0.7230 c         1 RCL      0.907600
      3 O2          1.5870   -1.3430    0.4280 o         1 RCL     -0.853300
      4 C2          2.1870   -1.0830   -1.8960 c3        1 RCL     -0.194400
      5 C3          3.5270   -0.4960   -1.5280 c3        1 RCL     -0.065400
      6 C4          4.5680   -0.7500   -2.5970 c3        1 RCL     -0.078400
      7 C5          5.9040   -0.1420   -2.2270 c3        1 RCL     -0.078400
      8 C6          6.9510   -0.4170   -3.2850 c3        1 RCL     -0.079400
      9 C7          8.2870    0.1900   -2.9120 c3        1 RCL     -0.076400
     10 C8          9.3340   -0.1030   -3.9690 c3        1 RCL     -0.054200
     11 C9         10.6450    0.4970   -3.6220 c2        1 RCL     -0.147200
     12 C10        11.8040   -0.1640   -3.6970 c2        1 RCL     -0.194200
     13 C11        13.1170    0.4490   -3.3890 c3        1 RCL     -0.043200
     14 C12        13.8830   -0.3660   -2.3460 c3        1 RCL      0.143100
     15 O12        14.8420    0.5280   -1.7870 oh        1 RCL     -0.605800
     16 C13        14.5680   -1.5800   -2.9670 c3        1 RCL     -0.118400
     17 C14        15.0080   -2.5790   -1.9190 c3        1 RCL     -0.081400
     18 C15        15.6770   -3.7800   -2.5530 c3        1 RCL     -0.078400
     19 C16        16.1170   -4.7810   -1.5070 c3        1 RCL     -0.079400
     20 C17        16.7850   -5.9830   -2.1400 c3        1 RCL     -0.080400
     21 C18        17.2250   -6.9820   -1.1020 c3        1 RCL     -0.092100
     22 H21         1.7590   -0.5540   -2.7840 hc        1 RCL      0.018700
     23 H22         2.3030   -2.1640   -2.1640 hc        1 RCL      0.018700
     24 H31         3.4190    0.6090   -1.3660 hc        1 RCL      0.044200
     25 H32         3.8580   -0.9420   -0.5510 hc        1 RCL      0.044200
     26 H41         4.2190   -0.3220   -3.5730 hc        1 RCL      0.025700
     27 H42         4.6890   -1.8560   -2.7470 hc        1 RCL      0.025700
     28 H51         5.7870    0.9660   -2.0920 hc        1 RCL      0.037200
     29 H52         6.2450   -0.5600   -1.2430 hc        1 RCL      0.037200
     30 H61         6.6090    0.0010   -4.2690 hc        1 RCL      0.034700
     31 H62         7.0660   -1.5250   -3.4200 hc        1 RCL      0.034700
     32 H71         8.1750    1.2990   -2.7880 hc        1 RCL      0.040700
     33 H72         8.6240   -0.2210   -1.9250 hc        1 RCL      0.040700
     34 H81         8.9950    0.3210   -4.9540 hc        1 RCL      0.045200
     35 H82         9.4270   -1.2140   -4.1040 hc        1 RCL      0.045200
     36 H9         10.6070    1.5500   -3.2960 ha        1 RCL      0.121000
     37 H10        11.8360   -1.2200   -4.0110 ha        1 RCL      0.117000
     38 H111       13.7310    0.5130   -4.3270 hc        1 RCL      0.056700
     39 H112       12.9950    1.4950   -2.9990 hc        1 RCL      0.056700
     40 H12        13.1790   -0.7010   -1.5320 h1        1 RCL      0.041700
     41 HO12       15.3450    0.0250   -1.1370 ho        1 RCL      0.396000
     42 H131       15.4550   -1.2360   -3.5600 hc        1 RCL      0.053700
     43 H132       13.8550   -2.0740   -3.6770 hc        1 RCL      0.053700
     44 H141       14.1190   -2.9170   -1.3220 hc        1 RCL      0.038200
     45 H142       15.7210   -2.0910   -1.2030 hc        1 RCL      0.038200
     46 H151       16.5650   -3.4440   -3.1510 hc        1 RCL      0.040700
     47 H152       14.9650   -4.2720   -3.2680 hc        1 RCL      0.040700
     48 H161       15.2290   -5.1160   -0.9100 hc        1 RCL      0.040200
     49 H162       16.8290   -4.2900   -0.7920 hc        1 RCL      0.040200
     50 H171       16.0720   -6.4720   -2.8560 hc        1 RCL      0.038200
     51 H172       17.6720   -5.6450   -2.7390 hc        1 RCL      0.038200
     52 H181       17.7140   -7.8590   -1.5900 hc        1 RCL      0.032033
     53 H182       17.9550   -6.5200   -0.3940 hc        1 RCL      0.032033
     54 H183       16.3510   -7.3480   -0.5120 hc        1 RCL      0.032033
@<TRIPOS>BOND
     1    1    2 1   
     2    2    3 1   
     3    2    4 1   
     4    4    5 1   
     5    4   22 1   
     6    4   23 1   
     7    5    6 1   
     8    5   24 1   
     9    5   25 1   
    10    6    7 1   
    11    6   26 1   
    12    6   27 1   
    13    7    8 1   
    14    7   28 1   
    15    7   29 1   
    16    8    9 1   
    17    8   30 1   
    18    8   31 1   
    19    9   10 1   
    20    9   32 1   
    21    9   33 1   
    22   10   11 1   
    23   10   34 1   
    24   10   35 1   
    25   11   12 2   
    26   11   36 1   
    27   12   13 1   
    28   12   37 1   
    29   13   14 1   
    30   13   38 1   
    31   13   39 1   
    32   14   15 1   
    33   14   16 1   
    34   14   40 1   
    35   15   41 1   
    36   16   17 1   
    37   16   42 1   
    38   16   43 1   
    39   17   18 1   
    40   17   44 1   
    41   17   45 1   
    42   18   19 1   
    43   18   46 1   
    44   18   47 1   
    45   19   20 1   
    46   19   48 1   
    47   19   49 1   
    48   20   21 1   
    49   20   50 1   
    50   20   51 1   
    51   21   52 1   
    52   21   53 1   
    53   21   54 1   
@<TRIPOS>SUBSTRUCTURE
     1 RCL         1 TEMP              0 ****  ****    0 ROOT
