@<TRIPOS>MOLECULE
RCL
   54    53     1     0     0
SMALL
bcc


@<TRIPOS>ATOM
      1 O1          0.0040   -0.5590   -0.9960 o         1 RCL     -0.853300
      2 C1          1.1750   -0.9610   -0.7350 c         1 RCL      0.907600
      3 O2          1.5620   -1.2960    0.4220 o         1 RCL     -0.853300
      4 C2          2.1720   -1.0650   -1.9020 c3        1 RCL     -0.194400
      5 C3          3.5120   -0.4760   -1.5340 c3        1 RCL     -0.065400
      6 C4          4.5580   -0.7450   -2.5960 c3        1 RCL     -0.078400
      7 C5          5.8930   -0.1350   -2.2270 c3        1 RCL     -0.078400
      8 C6          6.9440   -0.4230   -3.2780 c3        1 RCL     -0.079400
      9 C7          8.2790    0.1860   -2.9070 c3        1 RCL     -0.076400
     10 C8          9.3300   -0.1190   -3.9570 c3        1 RCL     -0.054200
     11 C9         10.6390    0.4840   -3.6110 c2        1 RCL     -0.147200
     12 C10        11.7990   -0.1760   -3.6820 c2        1 RCL     -0.194200
     13 C11        13.1120    0.4380   -3.3770 c3        1 RCL     -0.043200
     14 C12        13.8830   -0.3770   -2.3370 c3        1 RCL      0.143100
     15 O12        14.8400    0.5200   -1.7780 oh        1 RCL     -0.605800
     16 C13        14.5710   -1.5870   -2.9630 c3        1 RCL     -0.118400
     17 C14        15.0170   -2.5870   -1.9180 c3        1 RCL     -0.081400
     18 C15        15.6890   -3.7830   -2.5570 c3        1 RCL     -0.078400
     19 C16        16.1360   -4.7840   -1.5140 c3        1 RCL     -0.079400
     20 C17        16.8070   -5.9820   -2.1520 c3        1 RCL     -0.080400
     21 C18        17.2550   -6.9810   -1.1180 c3        1 RCL     -0.092100
     22 H21         1.7500   -0.5450   -2.7980 hc        1 RCL      0.018700
     23 H22         2.2880   -2.1490   -2.1560 hc        1 RCL      0.018700
     24 H31         3.4050    0.6300   -1.3860 hc        1 RCL      0.044200
     25 H32         3.8380   -0.9110   -0.5520 hc        1 RCL      0.044200
     26 H41         4.2130   -0.3280   -3.5790 hc        1 RCL      0.025700
     27 H42         4.6770   -1.8520   -2.7330 hc        1 RCL      0.025700
     28 H51         5.7770    0.9740   -2.1050 hc        1 RCL      0.037200
     29 H52         6.2290   -0.5420   -1.2370 hc        1 RCL      0.037200
     30 H61         6.6070   -0.0160   -4.2680 hc        1 RCL      0.034700
     31 H62         7.0570   -1.5320   -3.4000 hc        1 RCL      0.034700
     32 H71         8.1680    1.2970   -2.7950 hc        1 RCL      0.040700
     33 H72         8.6120   -0.2150   -1.9140 hc        1 RCL      0.040700
     34 H81         8.9940    0.2950   -4.9480 hc        1 RCL      0.045200
     35 H82         9.4220   -1.2310   -4.0800 hc        1 RCL      0.045200
     36 H9         10.6010    1.5390   -3.2920 ha        1 RCL      0.121000
     37 H10        11.8320   -1.2350   -3.9890 ha        1 RCL      0.117000
     38 H111       13.7220    0.5060   -4.3170 hc        1 RCL      0.056700
     39 H112       12.9880    1.4840   -2.9850 hc        1 RCL      0.056700
     40 H12        13.1810   -0.7150   -1.5220 h1        1 RCL      0.041700
     41 HO12       15.3460    0.0170   -1.1300 ho        1 RCL      0.396000
     42 H131       15.4550   -1.2370   -3.5570 hc        1 RCL      0.053700
     43 H132       13.8570   -2.0820   -3.6720 hc        1 RCL      0.053700
     44 H141       14.1310   -2.9290   -1.3200 hc        1 RCL      0.038200
     45 H142       15.7300   -2.0970   -1.2030 hc        1 RCL      0.038200
     46 H151       16.5740   -3.4420   -3.1560 hc        1 RCL      0.040700
     47 H152       14.9770   -4.2760   -3.2710 hc        1 RCL      0.040700
     48 H161       15.2510   -5.1250   -0.9160 hc        1 RCL      0.040200
     49 H162       16.8480   -4.2920   -0.8000 hc        1 RCL      0.040200
     50 H171       16.0940   -6.4720   -2.8670 hc        1 RCL      0.038200
     51 H172       17.6910   -5.6390   -2.7530 hc        1 RCL      0.038200
     52 H181       17.7460   -7.8560   -1.6090 hc        1 RCL      0.032033
     53 H182       17.9850   -6.5180   -0.4110 hc        1 RCL      0.032033
     54 H183       16.3830   -7.3530   -0.5260 hc        1 RCL      0.032033
@<TRIPOS>BOND
     1    1    2 1   
     2    2    3 1   
     3    2    4 1   
     4    4    5 1   
     5    4   22 1   
     6    4   23 1   
     7    5    6 1   
     8    5   24 1   
     9    5   25 1   
    10    6    7 1   
    11    6   26 1   
    12    6   27 1   
    13    7    8 1   
    14    7   28 1   
    15    7   29 1   
    16    8    9 1   
    17    8   30 1   
    18    8   31 1   
    19    9   10 1   
    20    9   32 1   
    21    9   33 1   
    22   10   11 1   
    23   10   34 1   
    24   10   35 1   
    25   11   12 2   
    26   11   36 1   
    27   12   13 1   
    28   12   37 1   
    29   13   14 1   
    30   13   38 1   
    31   13   39 1   
    32   14   15 1   
    33   14   16 1   
    34   14   40 1   
    35   15   41 1   
    36   16   17 1   
    37   16   42 1   
    38   16   43 1   
    39   17   18 1   
    40   17   44 1   
    41   17   45 1   
    42   18   19 1   
    43   18   46 1   
    44   18   47 1   
    45   19   20 1   
    46   19   48 1   
    47   19   49 1   
    48   20   21 1   
    49   20   50 1   
    50   20   51 1   
    51   21   52 1   
    52   21   53 1   
    53   21   54 1   
@<TRIPOS>SUBSTRUCTURE
     1 RCL         1 TEMP              0 ****  ****    0 ROOT
