@<TRIPOS>MOLECULE
RCL
   54    53     1     0     0
SMALL
bcc


@<TRIPOS>ATOM
      1 O1         -0.5140   -0.3070  -10.6980 o         1 RCL     -0.853300
      2 C1         -1.1620   -0.6330   -9.6620 c         1 RCL      0.907600
      3 O2         -1.8810   -1.6710   -9.5790 o         1 RCL     -0.853300
      4 C2         -1.0840    0.3060   -8.4450 c3        1 RCL     -0.194400
      5 C3         -0.8630   -0.4680   -7.1680 c3        1 RCL     -0.065400
      6 C4         -0.9740    0.4160   -5.9440 c3        1 RCL     -0.078400
      7 C5         -0.7360   -0.3690   -4.6710 c3        1 RCL     -0.078400
      8 C6         -0.8630    0.5080   -3.4440 c3        1 RCL     -0.079400
      9 C7         -0.6310   -0.2840   -2.1750 c3        1 RCL     -0.076400
     10 C8         -0.7720    0.5930   -0.9460 c3        1 RCL     -0.052200
     11 C9         -0.5740   -0.1810    0.3020 c2        1 RCL     -0.153200
     12 C10         0.1360    0.2610    1.3440 c2        1 RCL     -0.191200
     13 C11         0.3350   -0.5230    2.5860 c3        1 RCL     -0.075200
     14 C12         0.3600    0.3730    3.8240 c3        1 RCL      0.138100
     15 O12         1.4090    1.3260    3.7590 oh        1 RCL     -0.595800
     16 C13         0.4740   -0.4810    5.0850 c3        1 RCL     -0.110400
     17 C14         0.3600    0.3640    6.3340 c3        1 RCL     -0.079400
     18 C15         0.5800   -0.4620    7.5820 c3        1 RCL     -0.078400
     19 C16         0.4500    0.3840    8.8300 c3        1 RCL     -0.079400
     20 C17         0.6750   -0.4400   10.0800 c3        1 RCL     -0.080400
     21 C18         0.5450    0.3980   11.3260 c3        1 RCL     -0.092100
     22 H21        -2.0490    0.8710   -8.3860 hc        1 RCL      0.018700
     23 H22        -0.2610    1.0470   -8.6000 hc        1 RCL      0.018700
     24 H31         0.1510   -0.9470   -7.1940 hc        1 RCL      0.044200
     25 H32        -1.6180   -1.2980   -7.1160 hc        1 RCL      0.044200
     26 H41        -1.9920    0.8840   -5.9100 hc        1 RCL      0.026700
     27 H42        -0.2290    1.2520   -6.0130 hc        1 RCL      0.026700
     28 H51         0.2870   -0.8290   -4.7000 hc        1 RCL      0.036700
     29 H52        -1.4740   -1.2120   -4.6100 hc        1 RCL      0.036700
     30 H61        -1.8850    0.9700   -3.4170 hc        1 RCL      0.034700
     31 H62        -0.1230    1.3480   -3.5050 hc        1 RCL      0.034700
     32 H71         0.3950   -0.7370   -2.1970 hc        1 RCL      0.039700
     33 H72        -1.3650   -1.1300   -2.1210 hc        1 RCL      0.039700
     34 H81        -1.8020    1.0440   -0.9290 hc        1 RCL      0.046700
     35 H82        -0.0420    1.4440   -1.0070 hc        1 RCL      0.046700
     36 H9         -1.0650   -1.1690    0.3240 ha        1 RCL      0.117000
     37 H10         0.6300    1.2470    1.3340 ha        1 RCL      0.134000
     38 H111        1.3120   -1.0760    2.5150 hc        1 RCL      0.047700
     39 H112       -0.4750   -1.2890    2.7100 hc        1 RCL      0.047700
     40 H12        -0.5720    1.0060    3.8660 h1        1 RCL      0.079700
     41 HO12        2.2330    0.8390    3.6370 ho        1 RCL      0.395000
     42 H131        1.4590   -1.0180    5.0800 hc        1 RCL      0.042700
     43 H132       -0.3340   -1.2570    5.0750 hc        1 RCL      0.042700
     44 H141       -0.6530    0.8430    6.3710 hc        1 RCL      0.048700
     45 H142        1.1150    1.1940    6.2850 hc        1 RCL      0.048700
     46 H151        1.6000   -0.9300    7.5500 hc        1 RCL      0.037200
     47 H152       -0.1660   -1.3000    7.6150 hc        1 RCL      0.037200
     48 H161       -0.5710    0.8480    8.8650 hc        1 RCL      0.040200
     49 H162        1.1940    1.2230    8.7940 hc        1 RCL      0.040200
     50 H171        1.6960   -0.9040   10.0430 hc        1 RCL      0.037700
     51 H172       -0.0680   -1.2800   10.1130 hc        1 RCL      0.037700
     52 H181        0.7150   -0.2280   12.2350 hc        1 RCL      0.031367
     53 H182        1.2940    1.2270   11.3230 hc        1 RCL      0.031367
     54 H183       -0.4740    0.8490   11.3930 hc        1 RCL      0.031367
@<TRIPOS>BOND
     1    1    2 1   
     2    2    3 1   
     3    2    4 1   
     4    4    5 1   
     5    4   22 1   
     6    4   23 1   
     7    5    6 1   
     8    5   24 1   
     9    5   25 1   
    10    6    7 1   
    11    6   26 1   
    12    6   27 1   
    13    7    8 1   
    14    7   28 1   
    15    7   29 1   
    16    8    9 1   
    17    8   30 1   
    18    8   31 1   
    19    9   10 1   
    20    9   32 1   
    21    9   33 1   
    22   10   11 1   
    23   10   34 1   
    24   10   35 1   
    25   11   12 2   
    26   11   36 1   
    27   12   13 1   
    28   12   37 1   
    29   13   14 1   
    30   13   38 1   
    31   13   39 1   
    32   14   15 1   
    33   14   16 1   
    34   14   40 1   
    35   15   41 1   
    36   16   17 1   
    37   16   42 1   
    38   16   43 1   
    39   17   18 1   
    40   17   44 1   
    41   17   45 1   
    42   18   19 1   
    43   18   46 1   
    44   18   47 1   
    45   19   20 1   
    46   19   48 1   
    47   19   49 1   
    48   20   21 1   
    49   20   50 1   
    50   20   51 1   
    51   21   52 1   
    52   21   53 1   
    53   21   54 1   
@<TRIPOS>SUBSTRUCTURE
     1 RCL         1 TEMP              0 ****  ****    0 ROOT
