@<TRIPOS>MOLECULE
RCM
   31    33     1     0     0
SMALL
bcc


@<TRIPOS>ATOM
      1 O2         -4.0880   -2.2460   -0.8780 o         1 RCM     -0.605500
      2 C14        -3.5620   -1.1550   -0.6080 c         1 RCM      0.774500
      3 N3         -4.2650   -0.0120   -0.1130 n         1 RCM     -0.516400
      4 C17        -5.6880    0.0790   -0.0550 c3        1 RCM      0.095300
      5 C12        -3.3590    1.0370    0.1300 c         1 RCM      0.689500
      6 O1         -3.6430    2.1650    0.5360 o         1 RCM     -0.576500
      7 N2         -2.1840   -0.8280   -0.7820 n         1 RCM     -0.506900
      8 C11        -1.9400    0.4970   -0.2030 c3        1 RCM     -0.010300
      9 C10        -1.0670    0.5260    1.0550 c3        1 RCM     -0.019200
     10 C7          0.2580   -0.0560    0.8150 cc        1 RCM     -0.158400
     11 C2          1.4190    0.6390    0.3010 ca        1 RCM     -0.076800
     12 C8          0.6440   -1.3780    1.0530 cd        1 RCM     -0.098100
     13 N1          1.9840   -1.5560    0.7120 na        1 RCM     -0.174400
     14 C3          2.4840   -0.3380    0.2520 ca        1 RCM     -0.045200
     15 C4          3.7630    0.0220   -0.2080 ca        1 RCM      0.003400
     16 CL1         5.0050   -1.1350   -0.2630 cl        1 RCM     -0.095400
     17 C5          3.9760    1.3340   -0.6090 ca        1 RCM     -0.102000
     18 C6          2.9390    2.2830   -0.5570 ca        1 RCM     -0.145000
     19 C1          1.6700    1.9500   -0.1080 ca        1 RCM     -0.082000
     20 H1         -6.0990    0.4760   -1.0230 h1        1 RCM      0.057367
     21 H2         -6.1150   -0.9430    0.1300 h1        1 RCM      0.057367
     22 H3         -5.9750    0.7750    0.7770 h1        1 RCM      0.057367
     23 H4         -1.5220   -1.5420   -0.5750 hn        1 RCM      0.318500
     24 H5         -1.4760    1.1450   -1.0010 h1        1 RCM      0.110700
     25 H6         -0.9670    1.6020    1.3680 hc        1 RCM      0.070200
     26 H7         -1.5830   -0.0220    1.8890 hc        1 RCM      0.070200
     27 H8          0.0580   -2.2080    1.4550 h4        1 RCM      0.170000
     28 H9          2.5030   -2.3900    0.7970 hn        1 RCM      0.311700
     29 H10         4.9690    1.6420   -0.9730 ha        1 RCM      0.148000
     30 H11         3.1510    3.3120   -0.8830 ha        1 RCM      0.139000
     31 H12         0.8670    2.7010   -0.0710 ha        1 RCM      0.140000
@<TRIPOS>BOND
     1    1    2 2   
     2    2    3 1   
     3    2    7 1   
     4    3    4 1   
     5    3    5 1   
     6    4   20 1   
     7    4   21 1   
     8    4   22 1   
     9    5    6 2   
    10    5    8 1   
    11    7    8 1   
    12    7   23 1   
    13    8    9 1   
    14    8   24 1   
    15    9   10 1   
    16    9   25 1   
    17    9   26 1   
    18   10   11 1   
    19   10   12 2   
    20   11   14 ar  
    21   11   19 ar  
    22   12   13 1   
    23   12   27 1   
    24   13   14 1   
    25   13   28 1   
    26   14   15 ar  
    27   15   16 1   
    28   15   17 ar  
    29   17   18 ar  
    30   17   29 1   
    31   18   19 ar  
    32   18   30 1   
    33   19   31 1   
@<TRIPOS>SUBSTRUCTURE
     1 RCM         1 TEMP              0 ****  ****    0 ROOT
