@<TRIPOS>MOLECULE
RCM
   31    33     1     0     0
SMALL
bcc


@<TRIPOS>ATOM
      1 O2         -0.0420    0.1750   -0.1700 o         1 RCM     -0.605500
      2 C14         1.1940    0.1360   -0.0600 c         1 RCM      0.775500
      3 N3          1.8960   -0.0560    1.1710 n         1 RCM     -0.517400
      4 C17         1.2620   -0.1210    2.4470 c3        1 RCM      0.096300
      5 C12         3.2820   -0.0850    0.9320 c         1 RCM      0.690500
      6 O1          4.1650   -0.2060    1.7820 o         1 RCM     -0.576500
      7 N2          2.1320    0.3360   -1.1160 n         1 RCM     -0.506900
      8 C11         3.4800    0.0720   -0.6030 c3        1 RCM     -0.010300
      9 C10         4.1790   -1.1700   -1.1630 c3        1 RCM     -0.019200
     10 C7          4.3110   -1.1100   -2.6230 cc        1 RCM     -0.158400
     11 C2          5.3870   -0.4830   -3.3620 ca        1 RCM     -0.076800
     12 C8          3.4340   -1.6600   -3.5630 cd        1 RCM     -0.098100
     13 N1          3.8960   -1.4080   -4.8550 na        1 RCM     -0.174400
     14 C3          5.0900   -0.6930   -4.7610 ca        1 RCM     -0.045200
     15 C4          5.9530   -0.1990   -5.7560 ca        1 RCM      0.003400
     16 CL1         5.5930   -0.4510   -7.3960 cl        1 RCM     -0.095400
     17 C5          7.0920    0.4890   -5.3610 ca        1 RCM     -0.102000
     18 C6          7.3790    0.6890   -3.9990 ca        1 RCM     -0.145000
     19 C1          6.5430    0.2120   -3.0010 ca        1 RCM     -0.082000
     20 H1          0.2660    0.3960    2.3970 h1        1 RCM      0.056700
     21 H2          1.9150    0.3740    3.2130 h1        1 RCM      0.056700
     22 H3          1.1020   -1.1940    2.7430 h1        1 RCM      0.056700
     23 H4          1.9020   -0.0530   -2.0030 hn        1 RCM      0.318500
     24 H5          4.1120    0.9850   -0.8010 h1        1 RCM      0.110700
     25 H6          3.6120   -2.0930   -0.8650 hc        1 RCM      0.070200
     26 H7          5.1950   -1.2270   -0.6850 hc        1 RCM      0.070200
     27 H8          2.5140   -2.2260   -3.4030 h4        1 RCM      0.170000
     28 H9          3.4700   -1.7000   -5.6950 hn        1 RCM      0.311700
     29 H10         7.7840    0.8850   -6.1200 ha        1 RCM      0.148000
     30 H11         8.2930    1.2380   -3.7290 ha        1 RCM      0.139000
     31 H12         6.7780    0.3730   -1.9390 ha        1 RCM      0.140000
@<TRIPOS>BOND
     1    1    2 2   
     2    2    3 1   
     3    2    7 1   
     4    3    4 1   
     5    3    5 1   
     6    4   20 1   
     7    4   21 1   
     8    4   22 1   
     9    5    6 2   
    10    5    8 1   
    11    7    8 1   
    12    7   23 1   
    13    8    9 1   
    14    8   24 1   
    15    9   10 1   
    16    9   25 1   
    17    9   26 1   
    18   10   11 1   
    19   10   12 2   
    20   11   14 ar  
    21   11   19 ar  
    22   12   13 1   
    23   12   27 1   
    24   13   14 1   
    25   13   28 1   
    26   14   15 ar  
    27   15   16 1   
    28   15   17 ar  
    29   17   18 ar  
    30   17   29 1   
    31   18   19 ar  
    32   18   30 1   
    33   19   31 1   
@<TRIPOS>SUBSTRUCTURE
     1 RCM         1 TEMP              0 ****  ****    0 ROOT
