@<TRIPOS>MOLECULE
RCM
   31    33     1     0     0
SMALL
bcc


@<TRIPOS>ATOM
      1 O2         -0.0600    0.0200   -0.1740 o         1 RCM     -0.605500
      2 C14         1.1750    0.0460   -0.0620 c         1 RCM      0.774500
      3 N3          1.8850   -0.1010    1.1700 n         1 RCM     -0.516400
      4 C17         1.2570   -0.0970    2.4510 c3        1 RCM      0.095300
      5 C12         3.2720   -0.0680    0.9300 c         1 RCM      0.689500
      6 O1          4.1600   -0.1430    1.7800 o         1 RCM     -0.576500
      7 N2          2.1030    0.2700   -1.1220 ns        1 RCM     -0.506900
      8 C11         3.4620    0.0700   -0.6070 c3        1 RCM     -0.010300
      9 C10         4.2090   -1.1530   -1.1470 c3        1 RCM     -0.019200
     10 C7          4.3380   -1.1140   -2.6080 cc        1 RCM     -0.158400
     11 C2          5.3890   -0.4600   -3.3590 ca        1 RCM     -0.076800
     12 C8          3.4820   -1.7120   -3.5380 cd        1 RCM     -0.098100
     13 N1          3.9320   -1.4650   -4.8340 na        1 RCM     -0.174400
     14 C3          5.0990   -0.7040   -4.7540 ca        1 RCM     -0.045200
     15 C4          5.9420   -0.1960   -5.7590 ca        1 RCM      0.003400
     16 Cl1         5.5910   -0.4890   -7.3940 cl        1 RCM     -0.095400
     17 C5          7.0550    0.5410   -5.3770 ca        1 RCM     -0.102000
     18 C6          7.3350    0.7740   -4.0190 ca        1 RCM     -0.145000
     19 C1          6.5180    0.2840   -3.0110 ca        1 RCM     -0.082000
     20 H1          1.8800   -0.6990    3.1650 h1        1 RCM      0.057367
     21 H2          1.1630    0.9520    2.8440 h1        1 RCM      0.057367
     22 H3          0.2320   -0.5450    2.3600 h1        1 RCM      0.057367
     23 H4          1.8890   -0.1410   -2.0040 hn        1 RCM      0.318500
     24 H5          4.0560    1.0030   -0.8230 h1        1 RCM      0.110700
     25 H6          5.2270   -1.1620   -0.6690 hc        1 RCM      0.070200
     26 H7          3.6790   -2.0930   -0.8330 hc        1 RCM      0.070200
     27 H8          2.5830   -2.3090   -3.3660 h4        1 RCM      0.170000
     28 H9          3.5180   -1.7870   -5.6680 hn        1 RCM      0.311700
     29 H10         7.7310    0.9500   -6.1440 ha        1 RCM      0.148000
     30 H11         8.2290    1.3620   -3.7600 ha        1 RCM      0.139000
     31 H12         6.7490    0.4720   -1.9530 ha        1 RCM      0.140000
@<TRIPOS>BOND
     1    1    2 2   
     2    2    3 1   
     3    2    7 1   
     4    3    4 1   
     5    3    5 1   
     6    4   20 1   
     7    4   21 1   
     8    4   22 1   
     9    5    6 2   
    10    5    8 1   
    11    7    8 1   
    12    7   23 1   
    13    8    9 1   
    14    8   24 1   
    15    9   10 1   
    16    9   25 1   
    17    9   26 1   
    18   10   11 1   
    19   10   12 2   
    20   11   14 ar  
    21   11   19 ar  
    22   12   13 1   
    23   12   27 1   
    24   13   14 1   
    25   13   28 1   
    26   14   15 ar  
    27   15   16 1   
    28   15   17 ar  
    29   17   18 ar  
    30   17   29 1   
    31   18   19 ar  
    32   18   30 1   
    33   19   31 1   
@<TRIPOS>SUBSTRUCTURE
     1 RCM         1 TEMP              0 ****  ****    0 ROOT
