@<TRIPOS>MOLECULE
RCM
   31    33     1     0     0
SMALL
bcc


@<TRIPOS>ATOM
      1 O2         -0.0460    0.1640   -0.1710 o         1 RCM     -0.605500
      2 C14         1.1890    0.1310   -0.0600 c         1 RCM      0.775500
      3 N3          1.8920   -0.0550    1.1710 n         1 RCM     -0.517400
      4 C17         1.2570   -0.1200    2.4470 c3        1 RCM      0.096300
      5 C12         3.2780   -0.0800    0.9330 c         1 RCM      0.690500
      6 O1          4.1610   -0.1940    1.7840 o         1 RCM     -0.576500
      7 N2          2.1270    0.3320   -1.1170 n         1 RCM     -0.506900
      8 C11         3.4760    0.0750   -0.6020 c3        1 RCM     -0.010300
      9 C10         4.1800   -1.1660   -1.1590 c3        1 RCM     -0.019200
     10 C7          4.3130   -1.1100   -2.6180 cc        1 RCM     -0.158400
     11 C2          5.3840   -0.4770   -3.3590 ca        1 RCM     -0.076800
     12 C8          3.4410   -1.6690   -3.5580 cd        1 RCM     -0.098100
     13 N1          3.9010   -1.4170   -4.8500 na        1 RCM     -0.174400
     14 C3          5.0900   -0.6930   -4.7580 ca        1 RCM     -0.045200
     15 C4          5.9490   -0.1970   -5.7540 ca        1 RCM      0.003400
     16 CL1         5.5920   -0.4560   -7.3940 cl        1 RCM     -0.095400
     17 C5          7.0840    0.5010   -5.3600 ca        1 RCM     -0.102000
     18 C6          7.3680    0.7070   -3.9980 ca        1 RCM     -0.145000
     19 C1          6.5350    0.2280   -2.9990 ca        1 RCM     -0.082000
     20 H1          1.9090    0.3790    3.2130 h1        1 RCM      0.057033
     21 H2          0.2600    0.3950    2.3960 h1        1 RCM      0.057033
     22 H3          1.1000   -1.1920    2.7460 h1        1 RCM      0.057033
     23 H4          1.8990   -0.0610   -2.0020 hn        1 RCM      0.318500
     24 H5          4.1040    0.9900   -0.8020 h1        1 RCM      0.110700
     25 H6          3.6170   -2.0910   -0.8590 hc        1 RCM      0.070200
     26 H7          5.1970   -1.2180   -0.6800 hc        1 RCM      0.070200
     27 H8          2.5240   -2.2410   -3.3960 h4        1 RCM      0.170000
     28 H9          3.4780   -1.7150   -5.6890 hn        1 RCM      0.311700
     29 H10         7.7730    0.9000   -6.1200 ha        1 RCM      0.148000
     30 H11         8.2780    1.2640   -3.7300 ha        1 RCM      0.139000
     31 H12         6.7690    0.3940   -1.9380 ha        1 RCM      0.140000
@<TRIPOS>BOND
     1    1    2 2   
     2    2    3 1   
     3    2    7 1   
     4    3    4 1   
     5    3    5 1   
     6    4   20 1   
     7    4   21 1   
     8    4   22 1   
     9    5    6 2   
    10    5    8 1   
    11    7    8 1   
    12    7   23 1   
    13    8    9 1   
    14    8   24 1   
    15    9   10 1   
    16    9   25 1   
    17    9   26 1   
    18   10   11 1   
    19   10   12 2   
    20   11   14 ar  
    21   11   19 ar  
    22   12   13 1   
    23   12   27 1   
    24   13   14 1   
    25   13   28 1   
    26   14   15 ar  
    27   15   16 1   
    28   15   17 ar  
    29   17   18 ar  
    30   17   29 1   
    31   18   19 ar  
    32   18   30 1   
    33   19   31 1   
@<TRIPOS>SUBSTRUCTURE
     1 RCM         1 TEMP              0 ****  ****    0 ROOT
