@<TRIPOS>MOLECULE
RCO
   14    14     1     0     0
SMALL
bcc


@<TRIPOS>ATOM
      1 C1         -0.0510    0.1730    0.0810 ca        1 RCO      0.162100
      2 C2          1.3470    0.2720    0.0670 ca        1 RCO     -0.301000
      3 C3          2.0310    0.1730    1.2860 ca        1 RCO      0.162100
      4 C4          1.3430   -0.0220    2.4950 ca        1 RCO     -0.192000
      5 C5         -0.0450   -0.1160    2.4730 ca        1 RCO     -0.065000
      6 C6         -0.7570   -0.0220    1.2790 ca        1 RCO     -0.192000
      7 O1         -0.8040    0.2590   -1.0670 oh        1 RCO     -0.495100
      8 O3          3.4010    0.2590    1.3660 oh        1 RCO     -0.495100
      9 H2          1.8910    0.4240   -0.8740 ha        1 RCO      0.135000
     10 H4          1.9080   -0.0960    3.4340 ha        1 RCO      0.152000
     11 H5         -0.5920   -0.2690    3.4170 ha        1 RCO      0.138000
     12 H6         -1.8520   -0.0960    1.2580 ha        1 RCO      0.152000
     13 H1         -0.2010    0.3910   -1.8130 ho        1 RCO      0.419000
     14 H3          3.7470    0.3910    0.4720 ho        1 RCO      0.419000
@<TRIPOS>BOND
     1    1    2 ar  
     2    1    6 ar  
     3    1    7 1   
     4    2    3 ar  
     5    2    9 1   
     6    3    4 ar  
     7    3    8 1   
     8    4    5 ar  
     9    4   10 1   
    10    5    6 ar  
    11    5   11 1   
    12    6   12 1   
    13    7   13 1   
    14    8   14 1   
@<TRIPOS>SUBSTRUCTURE
     1 RCO         1 TEMP              0 ****  ****    0 ROOT
