@<TRIPOS>MOLECULE
RCO
   14    14     1     0     0
SMALL
bcc


@<TRIPOS>ATOM
      1 C1         -0.1910    0.0880    1.2000 ca        1 RCO      0.162100
      2 C2         -0.9100   -0.0020    0.0000 ca        1 RCO     -0.301000
      3 C3         -0.1910   -0.0900   -1.2000 ca        1 RCO      0.162100
      4 C4          1.2140   -0.0880   -1.2100 ca        1 RCO     -0.192000
      5 C5          1.8970    0.0030   -0.0000 ca        1 RCO     -0.065000
      6 C6          1.2140    0.0920    1.2100 ca        1 RCO     -0.192000
      7 O1         -0.8130    0.1780    2.4230 oh        1 RCO     -0.495100
      8 O3         -0.8130   -0.1820   -2.4220 oh        1 RCO     -0.495100
      9 H2         -2.0070   -0.0040    0.0000 ha        1 RCO      0.135000
     10 H4          1.7490   -0.1580   -2.1660 ha        1 RCO      0.152000
     11 H5          2.9980    0.0050   -0.0000 ha        1 RCO      0.138000
     12 H6          1.7490    0.1640    2.1660 ha        1 RCO      0.152000
     13 H1         -1.7700    0.1650    2.2750 ho        1 RCO      0.419000
     14 H3         -1.7700   -0.1730   -2.2750 ho        1 RCO      0.419000
@<TRIPOS>BOND
     1    1    2 ar  
     2    1    6 ar  
     3    1    7 1   
     4    2    3 ar  
     5    2    9 1   
     6    3    4 ar  
     7    3    8 1   
     8    4    5 ar  
     9    4   10 1   
    10    5    6 ar  
    11    5   11 1   
    12    6   12 1   
    13    7   13 1   
    14    8   14 1   
@<TRIPOS>SUBSTRUCTURE
     1 RCO         1 TEMP              0 ****  ****    0 ROOT
