@<TRIPOS>MOLECULE
RCP
   71    76     1     0     0
SMALL
bcc


@<TRIPOS>ATOM
      1 C29        -0.2240    0.3090   -0.4250 c3        1 RCP      0.057000
      2 C30         1.2340    0.7950   -0.4870 c3        1 RCP      0.114900
      3 O28         1.7980    0.9680    0.8050 os        1 RCP     -0.409600
      4 C28         1.7360   -0.2250    1.5800 c3        1 RCP      0.114900
      5 C27         0.2960   -0.7290    1.7280 c3        1 RCP      0.057000
      6 N26        -0.4040   -0.8130    0.4630 n         1 RCP     -0.474800
      7 C26        -1.4020   -1.7650    0.2990 c         1 RCP      0.662100
      8 O26        -1.5590   -2.6430    1.1730 o         1 RCP     -0.607100
      9 C25        -2.2690   -1.7520   -0.9550 c3        1 RCP     -0.127700
     10 C24        -1.5380   -2.5400   -2.0560 c3        1 RCP      0.177800
     11 C23        -3.6200   -2.3840   -0.6540 c3        1 RCP     -0.074400
     12 C22        -4.4280   -2.4840   -1.9280 c3        1 RCP     -0.078400
     13 C21        -3.6550   -3.2330   -3.0100 c3        1 RCP      0.167800
     14 N20        -2.3300   -2.6750   -3.2680 n3        1 RCP     -0.735600
     15 C20        -1.6570   -3.3960   -4.3590 c3        1 RCP      0.189500
     16 C19        -0.1230   -3.3360   -4.3280 c3        1 RCP     -0.105400
     17 C18         0.4670   -4.1200   -5.5020 c3        1 RCP      0.078000
     18 C17        -2.1270   -2.8590   -5.7250 c3        1 RCP     -0.105400
     19 C16        -1.4900   -3.6600   -6.8610 c3        1 RCP      0.078000
     20 N15        -0.0470   -3.7250   -6.7970 n         1 RCP     -0.454800
     21 C15         0.7680   -3.0070   -7.6720 c         1 RCP      0.665700
     22 O15         1.9870   -2.8810   -7.4390 o         1 RCP     -0.588100
     23 C14         0.1650   -2.4690   -8.9320 ca        1 RCP     -0.111600
     24 C1         -0.2870   -1.1400   -8.9650 ca        1 RCP     -0.002500
     25 C2         -0.2160   -0.2780   -7.8220 ca        1 RCP     -0.121500
     26 C3         -0.6640    1.0090   -7.8860 ca        1 RCP     -0.118000
     27 C4         -1.2170    1.5250   -9.0940 ca        1 RCP     -0.126000
     28 C5         -1.2980    0.7360  -10.2040 ca        1 RCP     -0.116500
     29 C6         -0.8340   -0.6200  -10.1780 ca        1 RCP     -0.041000
     30 C7         -0.9050   -1.4350  -11.3120 ca        1 RCP     -0.090000
     31 C8         -0.4400   -2.7540  -11.2830 ca        1 RCP     -0.041000
     32 C13         0.1120   -3.2830  -10.0750 ca        1 RCP     -0.002500
     33 C12         0.6020   -4.6310  -10.0800 ca        1 RCP     -0.121500
     34 C11         0.5310   -5.3970  -11.2070 ca        1 RCP     -0.118000
     35 C10        -0.0320   -4.8720  -12.4060 ca        1 RCP     -0.126000
     36 C9         -0.5000   -3.5910  -12.4430 ca        1 RCP     -0.116500
     37 H291       -0.5300    0.0300   -1.4720 h1        1 RCP      0.058700
     38 H292       -0.8730    1.1670   -0.0810 h1        1 RCP      0.058700
     39 H301        1.2740    1.8160   -0.9500 h1        1 RCP      0.057450
     40 H302        1.8620    0.0780   -1.0780 h1        1 RCP      0.057450
     41 H281        2.3890   -1.0100    1.1140 h1        1 RCP      0.057450
     42 H282        2.1430    0.0710    2.5820 h1        1 RCP      0.057450
     43 H271        0.3120   -1.7470    2.2100 h1        1 RCP      0.058700
     44 H272       -0.2640   -0.0250    2.4100 h1        1 RCP      0.058700
     45 H25        -2.4490   -0.6970   -1.3000 hc        1 RCP      0.072700
     46 H241       -1.2420   -3.5430   -1.6280 h1        1 RCP      0.041700
     47 H242       -0.5970   -1.9770   -2.3160 h1        1 RCP      0.041700
     48 H231       -3.4660   -3.4020   -0.2080 hc        1 RCP      0.060700
     49 H232       -4.1660   -1.7660    0.1040 hc        1 RCP      0.060700
     50 H221       -5.3830   -3.0350   -1.7320 hc        1 RCP      0.049700
     51 H222       -4.6940   -1.4580   -2.2930 hc        1 RCP      0.049700
     52 H211       -3.5910   -4.3220   -2.7110 h1        1 RCP      0.033200
     53 H212       -4.2380   -3.1790   -3.9720 h1        1 RCP      0.033200
     54 H20        -1.9360   -4.4970   -4.3170 h1        1 RCP      0.027700
     55 H191        0.2220   -2.2710   -4.3710 hc        1 RCP      0.056950
     56 H192        0.2700   -3.7960   -3.3850 hc        1 RCP      0.056950
     57 H171       -1.8600   -1.7740   -5.8190 hc        1 RCP      0.056950
     58 H172       -3.2390   -2.9460   -5.8220 hc        1 RCP      0.056950
     59 H181        0.2240   -5.2140   -5.3670 h1        1 RCP      0.063450
     60 H182        1.5880   -4.0030   -5.4910 h1        1 RCP      0.063450
     61 H161       -1.8150   -3.2180   -7.8450 h1        1 RCP      0.063450
     62 H162       -1.8730   -4.7220   -6.8160 h1        1 RCP      0.063450
     63 H2          0.2230   -0.6800   -6.8940 ha        1 RCP      0.144000
     64 H3         -0.6040    1.6720   -7.0090 ha        1 RCP      0.135500
     65 H4         -1.5700    2.5660   -9.1110 ha        1 RCP      0.135000
     66 H5         -1.7180    1.1200  -11.1460 ha        1 RCP      0.134000
     67 H7         -1.3290   -1.0310  -12.2450 ha        1 RCP      0.137000
     68 H9         -0.9320   -3.1690  -13.3640 ha        1 RCP      0.134000
     69 H12         1.0480   -5.0250   -9.1530 ha        1 RCP      0.144000
     70 H11         0.9100   -6.4300  -11.2100 ha        1 RCP      0.135500
     71 H10        -0.0760   -5.5180  -13.2960 ha        1 RCP      0.135000
@<TRIPOS>BOND
     1    1    2 1   
     2    1    6 1   
     3    1   37 1   
     4    1   38 1   
     5    2    3 1   
     6    2   39 1   
     7    2   40 1   
     8    3    4 1   
     9    4    5 1   
    10    4   41 1   
    11    4   42 1   
    12    5    6 1   
    13    5   43 1   
    14    5   44 1   
    15    6    7 1   
    16    7    8 2   
    17    7    9 1   
    18    9   10 1   
    19    9   11 1   
    20    9   45 1   
    21   10   14 1   
    22   10   46 1   
    23   10   47 1   
    24   11   12 1   
    25   11   48 1   
    26   11   49 1   
    27   12   13 1   
    28   12   50 1   
    29   12   51 1   
    30   13   14 1   
    31   13   52 1   
    32   13   53 1   
    33   14   15 1   
    34   15   16 1   
    35   15   18 1   
    36   15   54 1   
    37   16   17 1   
    38   16   55 1   
    39   16   56 1   
    40   17   20 1   
    41   17   59 1   
    42   17   60 1   
    43   18   19 1   
    44   18   57 1   
    45   18   58 1   
    46   19   20 1   
    47   19   61 1   
    48   19   62 1   
    49   20   21 1   
    50   21   22 2   
    51   21   23 1   
    52   23   24 ar  
    53   23   32 ar  
    54   24   25 ar  
    55   24   29 ar  
    56   25   26 ar  
    57   25   63 1   
    58   26   27 ar  
    59   26   64 1   
    60   27   28 ar  
    61   27   65 1   
    62   28   29 ar  
    63   28   66 1   
    64   29   30 ar  
    65   30   31 ar  
    66   30   67 1   
    67   31   32 ar  
    68   31   36 ar  
    69   32   33 ar  
    70   33   34 ar  
    71   33   69 1   
    72   34   35 ar  
    73   34   70 1   
    74   35   36 ar  
    75   35   71 1   
    76   36   68 1   
@<TRIPOS>SUBSTRUCTURE
     1 RCP         1 TEMP              0 ****  ****    0 ROOT
