@<TRIPOS>MOLECULE
RCP
   71    76     1     0     0
SMALL
bcc


@<TRIPOS>ATOM
      1 C29        -0.2250    0.3200   -0.4290 c3        1 RCP      0.057000
      2 C30         1.2300    0.8120   -0.4940 c3        1 RCP      0.114900
      3 O28         1.7960    0.9880    0.7960 os        1 RCP     -0.409600
      4 C28         1.7420   -0.2050    1.5710 c3        1 RCP      0.114900
      5 C27         0.3040   -0.7150    1.7230 c3        1 RCP      0.057000
      6 N26        -0.3980   -0.8030    0.4590 n         1 RCP     -0.474800
      7 C26        -1.3930   -1.7590    0.2990 c         1 RCP      0.662100
      8 O26        -1.5440   -2.6360    1.1740 o         1 RCP     -0.607100
      9 C25        -2.2630   -1.7510   -0.9530 c3        1 RCP     -0.127700
     10 C24        -1.5300   -2.5360   -2.0550 c3        1 RCP      0.177800
     11 C23        -3.6100   -2.3880   -0.6500 c3        1 RCP     -0.074400
     12 C22        -4.4200   -2.4920   -1.9220 c3        1 RCP     -0.078400
     13 C21        -3.6460   -3.2390   -3.0050 c3        1 RCP      0.167800
     14 N20        -2.3250   -2.6760   -3.2660 n3        1 RCP     -0.735600
     15 C20        -1.6510   -3.3960   -4.3570 c3        1 RCP      0.189500
     16 C19        -0.1170   -3.3280   -4.3290 c3        1 RCP     -0.105400
     17 C18         0.4750   -4.1120   -5.5030 c3        1 RCP      0.078000
     18 C17        -2.1260   -2.8640   -5.7230 c3        1 RCP     -0.105400
     19 C16        -1.4870   -3.6650   -6.8590 c3        1 RCP      0.078000
     20 N15        -0.0440   -3.7230   -6.7980 n         1 RCP     -0.454800
     21 C15         0.7660   -3.0030   -7.6770 c         1 RCP      0.665700
     22 O15         1.9840   -2.8710   -7.4470 o         1 RCP     -0.588100
     23 C14         0.1570   -2.4720   -8.9370 ca        1 RCP     -0.111600
     24 C1         -0.3020   -1.1450   -8.9730 ca        1 RCP     -0.002500
     25 C2         -0.2330   -0.2800   -7.8320 ca        1 RCP     -0.121500
     26 C3         -0.6880    1.0050   -7.8990 ca        1 RCP     -0.118000
     27 C4         -1.2460    1.5140   -9.1070 ca        1 RCP     -0.126000
     28 C5         -1.3260    0.7220  -10.2150 ca        1 RCP     -0.116500
     29 C6         -0.8550   -0.6310  -10.1860 ca        1 RCP     -0.041000
     30 C7         -0.9240   -1.4510  -11.3170 ca        1 RCP     -0.090000
     31 C8         -0.4520   -2.7670  -11.2850 ca        1 RCP     -0.041000
     32 C13         0.1060   -3.2890  -10.0780 ca        1 RCP     -0.002500
     33 C12         0.6020   -4.6340  -10.0790 ca        1 RCP     -0.121500
     34 C11         0.5330   -5.4050  -11.2040 ca        1 RCP     -0.118000
     35 C10        -0.0360   -4.8860  -12.4030 ca        1 RCP     -0.126000
     36 C9         -0.5110   -3.6080  -12.4430 ca        1 RCP     -0.116500
     37 H291       -0.5320    0.0390   -1.4750 h1        1 RCP      0.058700
     38 H292       -0.8770    1.1740   -0.0840 h1        1 RCP      0.058700
     39 H301        1.8610    0.0980   -1.0870 h1        1 RCP      0.057450
     40 H302        1.2640    1.8330   -0.9580 h1        1 RCP      0.057450
     41 H281        2.3970   -0.9870    1.1040 h1        1 RCP      0.057450
     42 H282        2.1500    0.0930    2.5720 h1        1 RCP      0.057450
     43 H271        0.3260   -1.7340    2.2050 h1        1 RCP      0.058700
     44 H272       -0.2570   -0.0140    2.4060 h1        1 RCP      0.058700
     45 H25        -2.4470   -0.6960   -1.3000 hc        1 RCP      0.072700
     46 H241       -0.5930   -1.9700   -2.3180 h1        1 RCP      0.041700
     47 H242       -1.2290   -3.5380   -1.6270 h1        1 RCP      0.041700
     48 H231       -4.1570   -1.7710    0.1090 hc        1 RCP      0.060700
     49 H232       -3.4510   -3.4050   -0.2030 hc        1 RCP      0.060700
     50 H221       -4.6910   -1.4670   -2.2870 hc        1 RCP      0.049700
     51 H222       -5.3730   -3.0470   -1.7230 hc        1 RCP      0.049700
     52 H211       -3.5780   -4.3270   -2.7040 h1        1 RCP      0.033200
     53 H212       -4.2320   -3.1890   -3.9660 h1        1 RCP      0.033200
     54 H20        -1.9240   -4.4990   -4.3120 h1        1 RCP      0.027700
     55 H191        0.2230   -2.2620   -4.3750 hc        1 RCP      0.056950
     56 H192        0.2810   -3.7840   -3.3860 hc        1 RCP      0.056950
     57 H171       -1.8640   -1.7790   -5.8200 hc        1 RCP      0.056950
     58 H172       -3.2380   -2.9570   -5.8170 hc        1 RCP      0.056950
     59 H181        0.2380   -5.2070   -5.3660 h1        1 RCP      0.063450
     60 H182        1.5950   -3.9900   -5.4950 h1        1 RCP      0.063450
     61 H161       -1.8650   -4.7280   -6.8100 h1        1 RCP      0.063450
     62 H162       -1.8170   -3.2270   -7.8420 h1        1 RCP      0.063450
     63 H2          0.2100   -0.6770   -6.9050 ha        1 RCP      0.144000
     64 H3         -0.6290    1.6710   -7.0240 ha        1 RCP      0.135500
     65 H4         -1.6050    2.5540   -9.1260 ha        1 RCP      0.135000
     66 H5         -1.7510    1.1010  -11.1570 ha        1 RCP      0.134000
     67 H7         -1.3530   -1.0520  -12.2500 ha        1 RCP      0.137000
     68 H9         -0.9470   -3.1910  -13.3640 ha        1 RCP      0.134000
     69 H12         1.0530   -5.0240   -9.1520 ha        1 RCP      0.144000
     70 H11         0.9180   -6.4360  -11.2050 ha        1 RCP      0.135500
     71 H10        -0.0790   -5.5350  -13.2910 ha        1 RCP      0.135000
@<TRIPOS>BOND
     1    1    2 1   
     2    1    6 1   
     3    1   37 1   
     4    1   38 1   
     5    2    3 1   
     6    2   39 1   
     7    2   40 1   
     8    3    4 1   
     9    4    5 1   
    10    4   41 1   
    11    4   42 1   
    12    5    6 1   
    13    5   43 1   
    14    5   44 1   
    15    6    7 1   
    16    7    8 2   
    17    7    9 1   
    18    9   10 1   
    19    9   11 1   
    20    9   45 1   
    21   10   14 1   
    22   10   46 1   
    23   10   47 1   
    24   11   12 1   
    25   11   48 1   
    26   11   49 1   
    27   12   13 1   
    28   12   50 1   
    29   12   51 1   
    30   13   14 1   
    31   13   52 1   
    32   13   53 1   
    33   14   15 1   
    34   15   16 1   
    35   15   18 1   
    36   15   54 1   
    37   16   17 1   
    38   16   55 1   
    39   16   56 1   
    40   17   20 1   
    41   17   59 1   
    42   17   60 1   
    43   18   19 1   
    44   18   57 1   
    45   18   58 1   
    46   19   20 1   
    47   19   61 1   
    48   19   62 1   
    49   20   21 1   
    50   21   22 2   
    51   21   23 1   
    52   23   24 ar  
    53   23   32 ar  
    54   24   25 ar  
    55   24   29 ar  
    56   25   26 ar  
    57   25   63 1   
    58   26   27 ar  
    59   26   64 1   
    60   27   28 ar  
    61   27   65 1   
    62   28   29 ar  
    63   28   66 1   
    64   29   30 ar  
    65   30   31 ar  
    66   30   67 1   
    67   31   32 ar  
    68   31   36 ar  
    69   32   33 ar  
    70   33   34 ar  
    71   33   69 1   
    72   34   35 ar  
    73   34   70 1   
    74   35   36 ar  
    75   35   71 1   
    76   36   68 1   
@<TRIPOS>SUBSTRUCTURE
     1 RCP         1 TEMP              0 ****  ****    0 ROOT
