@<TRIPOS>MOLECULE
RCP
   71    76     1     0     0
SMALL
bcc


@<TRIPOS>ATOM
      1 C29         1.4170   -1.0590   -0.1950 c3        1 RCP      0.057000
      2 C30         1.1850   -2.4020    0.5170 c3        1 RCP      0.114900
      3 O28         1.0140   -2.2450    1.9190 os        1 RCP     -0.409600
      4 C28        -0.0570   -1.3600    2.2300 c3        1 RCP      0.114900
      5 C27         0.1480    0.0210    1.5960 c3        1 RCP      0.057000
      6 N26         0.4580   -0.0500    0.1820 n         1 RCP     -0.474800
      7 C26         0.0780    0.9940   -0.6510 c         1 RCP      0.662100
      8 O26        -0.6740    1.8870   -0.2090 o         1 RCP     -0.607100
      9 C25         0.5500    1.0220   -2.1000 c3        1 RCP     -0.127700
     10 C24        -0.4270    0.1850   -2.9440 c3        1 RCP      0.177800
     11 C23         0.5920    2.4580   -2.6020 c3        1 RCP     -0.074400
     12 C22         0.9380    2.4720   -4.0730 c3        1 RCP     -0.078400
     13 C21        -0.0250    1.5970   -4.8710 c3        1 RCP      0.167800
     14 N20        -0.1230    0.2320   -4.3650 n3        1 RCP     -0.735600
     15 C20        -1.0150   -0.5810   -5.2070 c3        1 RCP      0.189500
     16 C19        -1.6650   -1.7770   -4.4980 c3        1 RCP     -0.105400
     17 C18        -2.5710   -2.5430   -5.4640 c3        1 RCP      0.078000
     18 C17        -0.2530   -1.1120   -6.4360 c3        1 RCP     -0.105400
     19 C16        -1.1980   -1.8890   -7.3540 c3        1 RCP      0.078000
     20 N15        -1.9190   -2.9520   -6.6910 n         1 RCP     -0.454800
     21 C15        -1.6110   -4.2980   -6.8920 c         1 RCP      0.665700
     22 O15        -2.0690   -5.1710   -6.1290 o         1 RCP     -0.588100
     23 C14        -0.7920   -4.6720   -8.0890 ca        1 RCP     -0.111600
     24 C1          0.5960   -4.8310   -7.9500 ca        1 RCP     -0.002500
     25 C2          1.2700   -4.6220   -6.7020 ca        1 RCP     -0.121500
     26 C3          2.6210   -4.7840   -6.5990 ca        1 RCP     -0.118000
     27 C4          3.3930   -5.1630   -7.7360 ca        1 RCP     -0.126000
     28 C5          2.7870   -5.3750   -8.9400 ca        1 RCP     -0.116500
     29 C6          1.3700   -5.2190   -9.0860 ca        1 RCP     -0.041000
     30 C7          0.7370   -5.4400  -10.3130 ca        1 RCP     -0.090000
     31 C8         -0.6480   -5.2970  -10.4460 ca        1 RCP     -0.041000
     32 C13        -1.4320   -4.9130   -9.3150 ca        1 RCP     -0.002500
     33 C12        -2.8520   -4.7950   -9.4750 ca        1 RCP     -0.121500
     34 C11        -3.4430   -5.0310  -10.6820 ca        1 RCP     -0.118000
     35 C10        -2.6580   -5.4010  -11.8130 ca        1 RCP     -0.126000
     36 C9         -1.3050   -5.5320  -11.6980 ca        1 RCP     -0.116500
     37 H291        2.4570   -0.6980    0.0530 h1        1 RCP      0.058700
     38 H292        1.3630   -1.2520   -1.3030 h1        1 RCP      0.058700
     39 H301        0.2900   -2.9250    0.0860 h1        1 RCP      0.057450
     40 H302        2.0960   -3.0470    0.4150 h1        1 RCP      0.057450
     41 H281       -0.0320   -1.2740    3.3480 h1        1 RCP      0.057450
     42 H282       -1.0280   -1.8130    1.8990 h1        1 RCP      0.057450
     43 H271       -0.7890    0.6310    1.7370 h1        1 RCP      0.058700
     44 H272        0.9930    0.5420    2.1310 h1        1 RCP      0.058700
     45 H25         1.5870    0.5940   -2.1870 hc        1 RCP      0.072700
     46 H241       -0.3450   -0.8870   -2.6050 h1        1 RCP      0.041700
     47 H242       -1.4750    0.5450   -2.7220 h1        1 RCP      0.041700
     48 H231        1.3510    3.0390   -2.0180 hc        1 RCP      0.060700
     49 H232       -0.4050    2.9430   -2.4290 hc        1 RCP      0.060700
     50 H221        0.8760    3.5180   -4.4700 hc        1 RCP      0.049700
     51 H222        1.9900    2.1120   -4.2210 hc        1 RCP      0.049700
     52 H211       -1.0360    2.1050   -4.8840 h1        1 RCP      0.033200
     53 H212        0.3390    1.5400   -5.9360 h1        1 RCP      0.033200
     54 H20        -1.8670    0.0660   -5.5930 h1        1 RCP      0.027700
     55 H191       -2.3020   -1.4300   -3.6430 hc        1 RCP      0.056950
     56 H192       -0.8760   -2.4620   -4.0940 hc        1 RCP      0.056950
     57 H171        0.5920   -1.7700   -6.1040 hc        1 RCP      0.056950
     58 H172        0.1840   -0.2660   -7.0260 hc        1 RCP      0.056950
     59 H181       -2.9820   -3.4510   -4.9360 h1        1 RCP      0.063450
     60 H182       -3.4380   -1.8810   -5.7530 h1        1 RCP      0.063450
     61 H161       -1.9670   -1.1750   -7.7710 h1        1 RCP      0.063450
     62 H162       -0.6060   -2.3030   -8.2190 h1        1 RCP      0.063450
     63 H2          0.6650   -4.3400   -5.8250 ha        1 RCP      0.144000
     64 H3          3.1370   -4.6290   -5.6400 ha        1 RCP      0.135500
     65 H4          4.4800   -5.2840   -7.6190 ha        1 RCP      0.135000
     66 H5          3.3680   -5.6720   -9.8250 ha        1 RCP      0.134000
     67 H7          1.3370   -5.7370  -11.1870 ha        1 RCP      0.137000
     68 H9         -0.6850   -5.8230  -12.5600 ha        1 RCP      0.134000
     69 H12        -3.4540   -4.5220   -8.5930 ha        1 RCP      0.144000
     70 H11        -4.5330   -4.9440  -10.8030 ha        1 RCP      0.135500
     71 H10        -3.1660   -5.5820  -12.7720 ha        1 RCP      0.135000
@<TRIPOS>BOND
     1    1    2 1   
     2    1    6 1   
     3    1   37 1   
     4    1   38 1   
     5    2    3 1   
     6    2   39 1   
     7    2   40 1   
     8    3    4 1   
     9    4    5 1   
    10    4   41 1   
    11    4   42 1   
    12    5    6 1   
    13    5   43 1   
    14    5   44 1   
    15    6    7 1   
    16    7    8 2   
    17    7    9 1   
    18    9   10 1   
    19    9   11 1   
    20    9   45 1   
    21   10   14 1   
    22   10   46 1   
    23   10   47 1   
    24   11   12 1   
    25   11   48 1   
    26   11   49 1   
    27   12   13 1   
    28   12   50 1   
    29   12   51 1   
    30   13   14 1   
    31   13   52 1   
    32   13   53 1   
    33   14   15 1   
    34   15   16 1   
    35   15   18 1   
    36   15   54 1   
    37   16   17 1   
    38   16   55 1   
    39   16   56 1   
    40   17   20 1   
    41   17   59 1   
    42   17   60 1   
    43   18   19 1   
    44   18   57 1   
    45   18   58 1   
    46   19   20 1   
    47   19   61 1   
    48   19   62 1   
    49   20   21 1   
    50   21   22 2   
    51   21   23 1   
    52   23   24 ar  
    53   23   32 ar  
    54   24   25 ar  
    55   24   29 ar  
    56   25   26 ar  
    57   25   63 1   
    58   26   27 ar  
    59   26   64 1   
    60   27   28 ar  
    61   27   65 1   
    62   28   29 ar  
    63   28   66 1   
    64   29   30 ar  
    65   30   31 ar  
    66   30   67 1   
    67   31   32 ar  
    68   31   36 ar  
    69   32   33 ar  
    70   33   34 ar  
    71   33   69 1   
    72   34   35 ar  
    73   34   70 1   
    74   35   36 ar  
    75   35   71 1   
    76   36   68 1   
@<TRIPOS>SUBSTRUCTURE
     1 RCP         1 TEMP              0 ****  ****    0 ROOT
