@<TRIPOS>MOLECULE
RCP
   71    76     1     0     0
SMALL
bcc


@<TRIPOS>ATOM
      1 C29        -0.2320    0.3140   -0.4270 c3        1 RCP      0.057000
      2 C30         1.2220    0.8110   -0.4930 c3        1 RCP      0.114900
      3 O28         1.7880    0.9870    0.7970 os        1 RCP     -0.409600
      4 C28         1.7380   -0.2060    1.5710 c3        1 RCP      0.114900
      5 C27         0.3020   -0.7210    1.7240 c3        1 RCP      0.057000
      6 N26        -0.4020   -0.8100    0.4600 n         1 RCP     -0.474800
      7 C26        -1.3920   -1.7700    0.2990 c         1 RCP      0.662100
      8 O26        -1.5400   -2.6490    1.1730 o         1 RCP     -0.607100
      9 C25        -2.2630   -1.7640   -0.9520 c3        1 RCP     -0.127700
     10 C24        -1.5280   -2.5450   -2.0560 c3        1 RCP      0.177800
     11 C23        -3.6070   -2.4070   -0.6490 c3        1 RCP     -0.074400
     12 C22        -4.4180   -2.5130   -1.9210 c3        1 RCP     -0.078400
     13 C21        -3.6410   -3.2550   -3.0050 c3        1 RCP      0.167800
     14 N20        -2.3220   -2.6870   -3.2660 n3        1 RCP     -0.735600
     15 C20        -1.6460   -3.4010   -4.3590 c3        1 RCP      0.189500
     16 C19        -0.1130   -3.3280   -4.3320 c3        1 RCP     -0.105400
     17 C18         0.4810   -4.1080   -5.5070 c3        1 RCP      0.078000
     18 C17        -2.1240   -2.8680   -5.7230 c3        1 RCP     -0.105400
     19 C16        -1.4830   -3.6640   -6.8620 c3        1 RCP      0.078000
     20 N15        -0.0400   -3.7170   -6.8010 n         1 RCP     -0.454800
     21 C15         0.7680   -2.9930   -7.6790 c         1 RCP      0.665700
     22 O15         1.9860   -2.8570   -7.4490 o         1 RCP     -0.588100
     23 C14         0.1570   -2.4610   -8.9380 ca        1 RCP     -0.111600
     24 C1         -0.3070   -1.1360   -8.9700 ca        1 RCP     -0.002500
     25 C2         -0.2410   -0.2730   -7.8270 ca        1 RCP     -0.121500
     26 C3         -0.7000    1.0110   -7.8910 ca        1 RCP     -0.118000
     27 C4         -1.2600    1.5210   -9.0980 ca        1 RCP     -0.126000
     28 C5         -1.3370    0.7310  -10.2080 ca        1 RCP     -0.116500
     29 C6         -0.8610   -0.6200  -10.1820 ca        1 RCP     -0.041000
     30 C7         -0.9270   -1.4370  -11.3150 ca        1 RCP     -0.090000
     31 C8         -0.4510   -2.7520  -11.2860 ca        1 RCP     -0.041000
     32 C13         0.1080   -3.2760  -10.0800 ca        1 RCP     -0.002500
     33 C12         0.6090   -4.6190  -10.0850 ca        1 RCP     -0.121500
     34 C11         0.5430   -5.3870  -11.2110 ca        1 RCP     -0.118000
     35 C10        -0.0280   -4.8670  -12.4100 ca        1 RCP     -0.126000
     36 C9         -0.5070   -3.5910  -12.4470 ca        1 RCP     -0.116500
     37 H291       -0.8870    1.1660   -0.0810 h1        1 RCP      0.058700
     38 H292       -0.5390    0.0330   -1.4730 h1        1 RCP      0.058700
     39 H301        1.8540    0.0980   -1.0870 h1        1 RCP      0.057450
     40 H302        1.2520    1.8320   -0.9570 h1        1 RCP      0.057450
     41 H281        2.3950   -0.9860    1.1030 h1        1 RCP      0.057450
     42 H282        2.1460    0.0920    2.5720 h1        1 RCP      0.057450
     43 H271        0.3270   -1.7400    2.2050 h1        1 RCP      0.058700
     44 H272       -0.2610   -0.0220    2.4080 h1        1 RCP      0.058700
     45 H25        -2.4520   -0.7100   -1.2970 hc        1 RCP      0.072700
     46 H241       -0.5920   -1.9750   -2.3180 h1        1 RCP      0.041700
     47 H242       -1.2220   -3.5460   -1.6290 h1        1 RCP      0.041700
     48 H231       -4.1560   -1.7940    0.1110 hc        1 RCP      0.060700
     49 H232       -3.4440   -3.4240   -0.2030 hc        1 RCP      0.060700
     50 H221       -4.6930   -1.4880   -2.2840 hc        1 RCP      0.049700
     51 H222       -5.3680   -3.0720   -1.7220 hc        1 RCP      0.049700
     52 H211       -3.5680   -4.3440   -2.7060 h1        1 RCP      0.033200
     53 H212       -4.2280   -3.2060   -3.9650 h1        1 RCP      0.033200
     54 H20        -1.9150   -4.5050   -4.3170 h1        1 RCP      0.027700
     55 H191        0.2870   -3.7850   -3.3900 hc        1 RCP      0.056950
     56 H192        0.2240   -2.2600   -4.3760 hc        1 RCP      0.056950
     57 H171       -1.8650   -1.7820   -5.8180 hc        1 RCP      0.056950
     58 H172       -3.2360   -2.9650   -5.8180 hc        1 RCP      0.056950
     59 H181        0.2480   -5.2030   -5.3720 h1        1 RCP      0.063450
     60 H182        1.6010   -3.9820   -5.5000 h1        1 RCP      0.063450
     61 H161       -1.8570   -4.7290   -6.8150 h1        1 RCP      0.063450
     62 H162       -1.8150   -3.2250   -7.8440 h1        1 RCP      0.063450
     63 H2          0.2040   -0.6700   -6.9010 ha        1 RCP      0.144000
     64 H3         -0.6440    1.6740   -7.0140 ha        1 RCP      0.135500
     65 H4         -1.6220    2.5590   -9.1150 ha        1 RCP      0.135000
     66 H5         -1.7620    1.1110  -11.1490 ha        1 RCP      0.134000
     67 H7         -1.3580   -1.0370  -12.2470 ha        1 RCP      0.137000
     68 H9         -0.9450   -3.1720  -13.3660 ha        1 RCP      0.134000
     69 H12         1.0610   -5.0090   -9.1590 ha        1 RCP      0.144000
     70 H11         0.9310   -6.4160  -11.2150 ha        1 RCP      0.135500
     71 H10        -0.0680   -5.5140  -13.2990 ha        1 RCP      0.135000
@<TRIPOS>BOND
     1    1    2 1   
     2    1    6 1   
     3    1   37 1   
     4    1   38 1   
     5    2    3 1   
     6    2   39 1   
     7    2   40 1   
     8    3    4 1   
     9    4    5 1   
    10    4   41 1   
    11    4   42 1   
    12    5    6 1   
    13    5   43 1   
    14    5   44 1   
    15    6    7 1   
    16    7    8 2   
    17    7    9 1   
    18    9   10 1   
    19    9   11 1   
    20    9   45 1   
    21   10   14 1   
    22   10   46 1   
    23   10   47 1   
    24   11   12 1   
    25   11   48 1   
    26   11   49 1   
    27   12   13 1   
    28   12   50 1   
    29   12   51 1   
    30   13   14 1   
    31   13   52 1   
    32   13   53 1   
    33   14   15 1   
    34   15   16 1   
    35   15   18 1   
    36   15   54 1   
    37   16   17 1   
    38   16   55 1   
    39   16   56 1   
    40   17   20 1   
    41   17   59 1   
    42   17   60 1   
    43   18   19 1   
    44   18   57 1   
    45   18   58 1   
    46   19   20 1   
    47   19   61 1   
    48   19   62 1   
    49   20   21 1   
    50   21   22 2   
    51   21   23 1   
    52   23   24 ar  
    53   23   32 ar  
    54   24   25 ar  
    55   24   29 ar  
    56   25   26 ar  
    57   25   63 1   
    58   26   27 ar  
    59   26   64 1   
    60   27   28 ar  
    61   27   65 1   
    62   28   29 ar  
    63   28   66 1   
    64   29   30 ar  
    65   30   31 ar  
    66   30   67 1   
    67   31   32 ar  
    68   31   36 ar  
    69   32   33 ar  
    70   33   34 ar  
    71   33   69 1   
    72   34   35 ar  
    73   34   70 1   
    74   35   36 ar  
    75   35   71 1   
    76   36   68 1   
@<TRIPOS>SUBSTRUCTURE
     1 RCP         1 TEMP              0 ****  ****    0 ROOT
