@<TRIPOS>MOLECULE
RCP
   71    71     1     0     0
SMALL
bcc


@<TRIPOS>ATOM
      1 C29        -3.1910    6.1220   -3.6140 c3        1 RCP     -0.058000
      2 C30        -4.3860    6.2820   -4.5410 c3        1 RCP     -0.035500
      3 O28        -4.2530    5.5050   -5.7310 os        1 RCP     -0.266000
      4 C28        -3.9520    4.1570   -5.4610 c3        1 RCP     -0.035500
      5 C27        -2.7680    4.0070   -4.5360 c3        1 RCP     -0.058000
      6 N26        -2.9000    4.7940   -3.3640 n         1 RCP     -0.332000
      7 C26        -2.7440    4.2670   -2.0400 c2        1 RCP      0.309000
      8 O26        -2.8740    5.0230   -1.0560 o         1 RCP     -0.369000
      9 C25        -2.2140    2.8450   -1.8400 c3        1 RCP     -0.121000
     10 C24        -1.3090    2.7270   -0.4640 c3        1 RCP     -0.058000
     11 C23        -3.3230    1.8510   -1.7900 c3        1 RCP     -0.149000
     12 C22        -3.0870    0.8620   -0.8810 c3        1 RCP     -0.183000
     13 C21        -1.9110    0.2780   -0.6480 c3        1 RCP     -0.072000
     14 N20        -0.8410    1.2150   -0.6640 n3        1 RCP     -0.260000
     15 C20         0.1350    0.8720    0.3730 c3        1 RCP     -0.008000
     16 C19         1.5250    0.9780   -0.2120 c3        1 RCP     -0.184500
     17 C18         2.5900    0.4690    0.7460 c3        1 RCP     -0.038000
     18 C17        -0.1550   -0.5130    0.8940 c3        1 RCP     -0.184500
     19 C16         0.9250   -1.0090    1.8410 c3        1 RCP     -0.038000
     20 N15         2.2740   -0.8850    1.2670 n         1 RCP     -0.313000
     21 C15         3.2370   -2.0150    1.2180 c2        1 RCP      0.339000
     22 O15         4.3580   -1.8490    0.7230 o         1 RCP     -0.348000
     23 C14         2.9110   -3.3160    1.9350 c2        1 RCP     -0.090000
     24 C1          3.3840   -3.1040    3.2470 c2        1 RCP     -0.001000
     25 C2          3.9630   -1.8470    3.6020 c2        1 RCP     -0.118000
     26 C3          4.4230   -1.6380    4.8870 c1        1 RCP     -0.120000
     27 C4          4.3190   -2.6600    5.8400 c1        1 RCP     -0.122000
     28 C5          3.7420   -3.9070    5.4810 c1        1 RCP     -0.122000
     29 C6          3.2820   -4.1140    4.1900 c1        1 RCP     -0.041000
     30 C7          2.7030   -5.3580    3.8350 c2        1 RCP     -0.091000
     31 C8          2.2330   -5.5670    2.5290 c1        1 RCP     -0.041000
     32 C13         2.3330   -4.5600    1.5840 c1        1 RCP     -0.005000
     33 C12         1.9880   -4.8170    0.2460 c1        1 RCP     -0.123000
     34 C11         1.5410   -6.0970   -0.1320 c1        1 RCP     -0.122000
     35 C10         1.4390   -7.1230    0.8310 c1        1 RCP     -0.122000
     36 C9          1.7780   -6.8710    2.1440 c1        1 RCP     -0.116000
     37 H291       -2.4350    6.5310   -4.0150 h1        1 RCP      0.097750
     38 H292       -3.3870    6.5790   -2.7470 h1        1 RCP      0.097750
     39 H301       -4.4800    7.2720   -4.7980 h1        1 RCP      0.096000
     40 H302       -5.2230    5.9900   -4.0510 h1        1 RCP      0.096000
     41 H281       -4.7360    3.7310   -5.0470 h1        1 RCP      0.096000
     42 H282       -3.7550    3.7060   -6.2990 h1        1 RCP      0.096000
     43 H271       -2.6860    3.0780   -4.2800 h1        1 RCP      0.097750
     44 H272       -1.9210    4.2890   -5.0320 h1        1 RCP      0.097750
     45 H25        -1.6690    2.7300   -2.6340 hc        1 RCP      0.113000
     46 H241       -0.5490    3.3450   -0.4750 h1        1 RCP      0.093000
     47 H242       -1.8620    2.8320    0.3450 h1        1 RCP      0.093000
     48 H231       -3.4370    1.4340   -2.7030 hc        1 RCP      0.087500
     49 H232       -4.1790    2.3320   -1.5400 hc        1 RCP      0.087500
     50 H221       -3.7200    0.1220   -1.1090 hc        1 RCP      0.088000
     51 H222       -3.3900    1.2410    0.0240 hc        1 RCP      0.088000
     52 H211       -1.9380   -0.1650    0.2300 h1        1 RCP      0.086000
     53 H212       -1.7440   -0.4260   -1.3680 h1        1 RCP      0.086000
     54 H20         0.0450    1.5430    1.1460 h1        1 RCP      0.062000
     55 H191        1.5640    0.4500   -1.0460 hc        1 RCP      0.098250
     56 H192        1.7100    1.9170   -0.4220 hc        1 RCP      0.098250
     57 H171       -0.2130   -1.1070    0.1690 hc        1 RCP      0.098250
     58 H172       -0.9590   -0.5040    1.3350 hc        1 RCP      0.098250
     59 H181        3.4670    0.4300    0.2640 h1        1 RCP      0.101750
     60 H182        2.6690    1.1130    1.5250 h1        1 RCP      0.101750
     61 H161        0.7600   -1.9200    2.0380 h1        1 RCP      0.101750
     62 H162        0.8840   -0.4960    2.6650 h1        1 RCP      0.101750
     63 H2          4.0360   -1.1380    2.9350 ha        1 RCP      0.148000
     64 H3          4.8370   -0.7390    5.1430 ha        1 RCP      0.136000
     65 H4          4.6630   -2.5090    6.7990 ha        1 RCP      0.134250
     66 H5          3.6680   -4.6170    6.1400 ha        1 RCP      0.134250
     67 H7          2.6180   -6.0650    4.5000 ha        1 RCP      0.137000
     68 H9          1.7080   -7.5770    2.8080 ha        1 RCP      0.133000
     69 H12         2.0620   -4.0810   -0.4470 ha        1 RCP      0.143000
     70 H11         1.3030   -6.2720   -1.0500 ha        1 RCP      0.134250
     71 H10         1.1160   -8.0500    0.5560 ha        1 RCP      0.134250
@<TRIPOS>BOND
     1    1    2 1   
     2    1    6 1   
     3    1   37 1   
     4    1   38 1   
     5    2    3 1   
     6    2   39 1   
     7    2   40 1   
     8    3    4 1   
     9    4    5 1   
    10    4   41 1   
    11    4   42 1   
    12    5    6 1   
    13    5   43 1   
    14    5   44 1   
    15    6    7 1   
    16    7    8 1   
    17    7    9 1   
    18    9   10 1   
    19    9   11 1   
    20    9   45 1   
    21   10   14 1   
    22   10   46 1   
    23   10   47 1   
    24   11   12 1   
    25   11   48 1   
    26   11   49 1   
    27   12   13 1   
    28   12   50 1   
    29   12   51 1   
    30   13   14 1   
    31   13   52 1   
    32   13   53 1   
    33   14   15 1   
    34   15   16 1   
    35   15   18 1   
    36   15   54 1   
    37   16   17 1   
    38   16   55 1   
    39   16   56 1   
    40   17   20 1   
    41   17   59 1   
    42   17   60 1   
    43   18   19 1   
    44   18   57 1   
    45   18   58 1   
    46   19   20 1   
    47   19   61 1   
    48   19   62 1   
    49   20   21 1   
    50   21   22 1   
    51   21   23 1   
    52   23   24 1   
    53   23   32 1   
    54   24   25 1   
    55   24   29 1   
    56   25   26 1   
    57   25   63 1   
    58   26   64 1   
    59   27   28 1   
    60   27   65 1   
    61   28   66 1   
    62   29   30 1   
    63   30   31 1   
    64   30   67 1   
    65   31   36 1   
    66   32   33 1   
    67   33   69 1   
    68   34   35 1   
    69   34   70 1   
    70   35   71 1   
    71   36   68 1   
@<TRIPOS>SUBSTRUCTURE
     1 RCP         1 TEMP              0 ****  ****    0 ROOT
