@<TRIPOS>MOLECULE
RDA
   46    47     1     0     0
SMALL
bcc


@<TRIPOS>ATOM
      1 C7          0.1640   -0.0580   -0.2180 c3        1 RDA      0.122700
      2 O4          1.5820    0.0790   -0.1070 os        1 RDA     -0.440900
      3 C6          2.1410   -0.3160    1.0820 c         1 RDA      0.664700
      4 O3          1.3900   -0.7160    1.9700 o         1 RDA     -0.514000
      5 C5          3.6110   -0.1900    1.1050 ca        1 RDA     -0.173600
      6 C4          4.4000   -1.3540    1.0020 ca        1 RDA      0.208100
      7 O2          3.7370   -2.5420    0.8340 oh        1 RDA     -0.479100
      8 C3          5.7950   -1.2860    1.0590 ca        1 RDA     -0.254000
      9 C2          6.4040   -0.0330    1.2110 ca        1 RDA      0.199100
     10 O1          7.7730   -0.0490    1.2570 oh        1 RDA     -0.484100
     11 C1          5.6260    1.1390    1.3000 ca        1 RDA     -0.115600
     12 Cl          6.4080    2.6440    1.4670 cl        1 RDA     -0.081400
     13 C8          4.2250    1.0620    1.2520 ca        1 RDA      0.046700
     14 C9          3.3810    2.2870    1.3690 c3        1 RDA     -0.044100
     15 C10         3.1750    2.9310    0.0100 c3        1 RDA     -0.153400
     16 C11         2.3650    4.2110    0.1460 c         1 RDA      0.669100
     17 O5          2.0080    4.6430    1.2580 o         1 RDA     -0.601100
     18 N1          2.0520    4.8410   -1.0490 ns        1 RDA     -0.461100
     19 C12         1.3670    6.0540   -1.2200 ca        1 RDA      0.058600
     20 C18         0.7120    6.7230   -0.1670 ca        1 RDA     -0.189000
     21 C17         0.0360    7.9230   -0.3910 ca        1 RDA      0.099100
     22 O8         -0.6120    8.6020    0.6150 oh        1 RDA     -0.476100
     23 C15        -0.0150    8.4950   -1.6840 ca        1 RDA      0.110100
     24 O7         -0.7140    9.6790   -1.7910 os        1 RDA     -0.297900
     25 C16        -0.7550   10.2630   -3.0880 c3        1 RDA      0.109700
     26 C14         0.6230    7.8460   -2.7400 ca        1 RDA     -0.230000
     27 C13         1.3060    6.6460   -2.5130 ca        1 RDA      0.068100
     28 O6          1.9490    5.9860   -3.5450 oh        1 RDA     -0.517100
     29 H71        -0.3410    0.5770    0.5490 h1        1 RDA      0.053033
     30 H72        -0.0550    0.2990   -1.2550 h1        1 RDA      0.053033
     31 H73        -0.1280   -1.1270   -0.0830 h1        1 RDA      0.053033
     32 HO2         4.3900   -3.2590    0.8350 ho        1 RDA      0.433000
     33 H3          6.4180   -2.1880    0.9880 ha        1 RDA      0.164000
     34 HO1         8.0910    0.8610    1.3820 ho        1 RDA      0.438000
     35 H91         3.8510    3.0270    2.0720 hc        1 RDA      0.083700
     36 H92         2.3780    2.0250    1.8070 hc        1 RDA      0.083700
     37 H101        4.1680    3.1720   -0.4530 hc        1 RDA      0.081200
     38 H102        2.6360    2.2090   -0.6630 hc        1 RDA      0.081200
     39 HN1         2.4090    4.4380   -1.8890 hn        1 RDA      0.332500
     40 H18         0.7310    6.3050    0.8550 ha        1 RDA      0.182000
     41 HO8        -0.4760    8.1070    1.4380 ho        1 RDA      0.420000
     42 H161       -1.2660    9.5830   -3.8120 h1        1 RDA      0.043367
     43 H162       -1.3560   11.1950   -2.9310 h1        1 RDA      0.043367
     44 H163        0.2730   10.5130   -3.4440 h1        1 RDA      0.043367
     45 H14         0.6000    8.2680   -3.7550 ha        1 RDA      0.142000
     46 HO6         1.7990    6.4900   -4.3570 ho        1 RDA      0.425000
@<TRIPOS>BOND
     1    1    2 1   
     2    1   29 1   
     3    1   30 1   
     4    1   31 1   
     5    2    3 1   
     6    3    4 2   
     7    3    5 1   
     8    5    6 ar  
     9    5   13 ar  
    10    6    7 1   
    11    6    8 ar  
    12    7   32 1   
    13    8    9 ar  
    14    8   33 1   
    15    9   10 1   
    16    9   11 ar  
    17   10   34 1   
    18   11   12 1   
    19   11   13 ar  
    20   13   14 1   
    21   14   15 1   
    22   14   35 1   
    23   14   36 1   
    24   15   16 1   
    25   15   37 1   
    26   15   38 1   
    27   16   17 2   
    28   16   18 1   
    29   18   19 1   
    30   18   39 1   
    31   19   20 ar  
    32   19   27 ar  
    33   20   21 ar  
    34   20   40 1   
    35   21   22 1   
    36   21   23 ar  
    37   22   41 1   
    38   23   24 1   
    39   23   26 ar  
    40   24   25 1   
    41   25   42 1   
    42   25   43 1   
    43   25   44 1   
    44   26   27 ar  
    45   26   45 1   
    46   27   28 1   
    47   28   46 1   
@<TRIPOS>SUBSTRUCTURE
     1 RDA         1 TEMP              0 ****  ****    0 ROOT
