@<TRIPOS>MOLECULE
RDA
   46    47     1     0     0
SMALL
bcc


@<TRIPOS>ATOM
      1 C7          2.7040    4.2320    1.5120 c3        1 RDA      0.125700
      2 O4          3.2470    2.9140    1.4100 os        1 RDA     -0.462900
      3 C6          3.1150    2.2820    0.1940 c         1 RDA      0.648700
      4 O3          2.5560    2.9140   -0.7030 o         1 RDA     -0.517000
      5 C5          3.7080    0.9370    0.1750 ca        1 RDA     -0.237600
      6 C4          5.0030    0.7290    0.6950 ca        1 RDA      0.225100
      7 O2          5.7840    1.7060    1.2490 oh        1 RDA     -0.488100
      8 C3          5.6090   -0.5350    0.6470 ca        1 RDA     -0.207000
      9 C2          4.8990   -1.6030    0.0940 ca        1 RDA      0.199100
     10 O1          5.5520   -2.8050    0.0860 oh        1 RDA     -0.481100
     11 C1          3.5890   -1.4150   -0.4030 ca        1 RDA     -0.121600
     12 CL          2.7550   -2.7600   -1.0370 cl        1 RDA     -0.081400
     13 C8          2.9940   -0.1480   -0.3740 ca        1 RDA      0.062700
     14 C9          1.6140    0.0360   -0.9140 c3        1 RDA     -0.065100
     15 C10         0.5730   -0.2810    0.1440 c3        1 RDA     -0.146400
     16 C11        -0.8260   -0.2270   -0.4540 c         1 RDA      0.666100
     17 O5         -1.0120   -0.2200   -1.6830 o         1 RDA     -0.584100
     18 N1         -1.8630   -0.1880    0.4690 n         1 RDA     -0.463100
     19 C12        -3.2390   -0.2230    0.1950 ca        1 RDA      0.060600
     20 C18        -3.7700    0.0460   -1.0810 ca        1 RDA     -0.136000
     21 C17        -5.1530    0.0160   -1.2920 ca        1 RDA      0.110100
     22 O8         -5.5870    0.3010   -2.5660 oh        1 RDA     -0.489100
     23 C15        -6.0370   -0.2740   -0.2330 ca        1 RDA      0.044100
     24 O7         -7.3840   -0.2360   -0.5540 os        1 RDA     -0.342900
     25 C16        -8.2550   -0.8930    0.3600 c3        1 RDA      0.120700
     26 C14        -5.5340   -0.5410    1.0390 ca        1 RDA     -0.211000
     27 C13        -4.1530   -0.5190    1.2490 ca        1 RDA      0.063100
     28 O6         -3.6160   -0.7870    2.4970 oh        1 RDA     -0.516100
     29 H71         3.2130    4.9100    0.7860 h1        1 RDA      0.055033
     30 H72         1.6070    4.2080    1.3080 h1        1 RDA      0.055033
     31 H73         2.9180    4.5230    2.5700 h1        1 RDA      0.055033
     32 HO2         5.2760    2.5280    1.3360 ho        1 RDA      0.446000
     33 H3          6.6260   -0.6810    1.0400 ha        1 RDA      0.180000
     34 HO1         4.9800   -3.4700   -0.3340 ho        1 RDA      0.437000
     35 H91         1.4630    1.0860   -1.2870 hc        1 RDA      0.097700
     36 H92         1.4520   -0.6300   -1.8060 hc        1 RDA      0.097700
     37 H101        0.7390   -1.3150    0.5490 hc        1 RDA      0.070700
     38 H102        0.6660    0.4450    0.9940 hc        1 RDA      0.070700
     39 HN1        -1.6240   -0.2710    1.4340 hn        1 RDA      0.330500
     40 H18        -3.1130    0.2760   -1.9380 ha        1 RDA      0.197000
     41 HO8        -6.5500    0.1910   -2.5840 ho        1 RDA      0.434000
     42 H161       -7.9090   -1.9350    0.5650 h1        1 RDA      0.044700
     43 H162       -8.3250   -0.3090    1.3100 h1        1 RDA      0.044700
     44 H163       -9.2390   -0.8970   -0.1720 h1        1 RDA      0.044700
     45 H14        -6.2100   -0.7690    1.8750 ha        1 RDA      0.141000
     46 HO6        -4.3500   -0.8780    3.1200 ho        1 RDA      0.424000
@<TRIPOS>BOND
     1    1    2 1   
     2    1   29 1   
     3    1   30 1   
     4    1   31 1   
     5    2    3 1   
     6    3    4 2   
     7    3    5 1   
     8    5    6 ar  
     9    5   13 ar  
    10    6    7 1   
    11    6    8 ar  
    12    7   32 1   
    13    8    9 ar  
    14    8   33 1   
    15    9   10 1   
    16    9   11 ar  
    17   10   34 1   
    18   11   12 1   
    19   11   13 ar  
    20   13   14 1   
    21   14   15 1   
    22   14   35 1   
    23   14   36 1   
    24   15   16 1   
    25   15   37 1   
    26   15   38 1   
    27   16   17 2   
    28   16   18 1   
    29   18   19 1   
    30   18   39 1   
    31   19   20 ar  
    32   19   27 ar  
    33   20   21 ar  
    34   20   40 1   
    35   21   22 1   
    36   21   23 ar  
    37   22   41 1   
    38   23   24 1   
    39   23   26 ar  
    40   24   25 1   
    41   25   42 1   
    42   25   43 1   
    43   25   44 1   
    44   26   27 ar  
    45   26   45 1   
    46   27   28 1   
    47   28   46 1   
@<TRIPOS>SUBSTRUCTURE
     1 RDA         1 TEMP              0 ****  ****    0 ROOT
