@<TRIPOS>MOLECULE
RDA
   47    48     1     0     0
SMALL
bcc


@<TRIPOS>ATOM
      1 C7          0.6480    1.1290   -1.5290 c3        1 RDA      0.111700
      2 O4          1.8910    1.2840   -0.8350 os        1 RDA     -0.515900
      3 C6          1.9270    0.7580    0.4510 c         1 RDA      0.664700
      4 O3          0.8400    0.5350    0.9720 o         1 RDA     -0.469000
      5 C5          3.2760    0.5480    0.9950 ca        1 RDA     -0.192600
      6 C4          3.6070   -0.7530    1.4450 ca        1 RDA      0.227100
      7 O2          2.6700   -1.7270    1.2420 oh        1 RDA     -0.473100
      8 C3          4.8420   -1.0160    2.0420 ca        1 RDA     -0.242000
      9 C2          5.7660    0.0280    2.1850 ca        1 RDA      0.223100
     10 O1          6.9450   -0.3120    2.7810 oh        1 RDA     -0.464100
     11 C1          5.4570    1.3270    1.7190 ca        1 RDA     -0.117600
     12 CL          6.6120    2.5660    1.8840 cl        1 RDA     -0.067400
     13 C8          4.2130    1.5820    1.1310 ca        1 RDA      0.023700
     14 C9          3.8660    2.9540    0.6520 c3        1 RDA     -0.040100
     15 C10         4.3790    3.1430   -0.7680 c3        1 RDA     -0.158400
     16 C11         3.7620    4.3410   -1.4290 c         1 RDA      0.549100
     17 O5          4.2870    5.4090   -1.6880 o         1 RDA     -0.390100
     18 N1          2.3130    4.1470   -1.8570 n4        1 RDA     -0.535200
     19 C12         1.4600    5.2930   -1.5650 ca        1 RDA     -0.100400
     20 C18         0.9760    5.4840   -0.2530 ca        1 RDA     -0.106000
     21 C17         0.1700    6.5810    0.0290 ca        1 RDA      0.114100
     22 O8         -0.2660    6.7100    1.3210 oh        1 RDA     -0.472100
     23 C15        -0.1660    7.5100   -1.0020 ca        1 RDA      0.154100
     24 O7         -0.9610    8.5460   -0.5920 os        1 RDA     -0.321900
     25 C16        -1.3230    9.5180   -1.5770 c3        1 RDA      0.111700
     26 C14         0.3020    7.3190   -2.2980 ca        1 RDA     -0.246000
     27 C13         1.1160    6.2100   -2.5810 ca        1 RDA      0.184100
     28 O6          1.5920    5.9490   -3.8410 oh        1 RDA     -0.515100
     29 H71        -0.1180    1.8080   -1.0820 h1        1 RDA      0.059367
     30 H72         0.8900    1.4090   -2.5840 h1        1 RDA      0.059367
     31 H73         0.2980    0.0700   -1.4660 h1        1 RDA      0.059367
     32 HO2         2.9750   -2.5480    1.6640 ho        1 RDA      0.449000
     33 H3          5.1020   -2.0230    2.4040 ha        1 RDA      0.181000
     34 HO1         7.5060    0.4790    2.8610 ho        1 RDA      0.448000
     35 H91         4.3150    3.7310    1.3290 hc        1 RDA      0.074700
     36 H92         2.7510    3.0880    0.6940 hc        1 RDA      0.074700
     37 H101        5.4950    3.3010   -0.7530 hc        1 RDA      0.120200
     38 H102        4.1650    2.2200   -1.3760 hc        1 RDA      0.120200
     39 HN1         2.3010    3.9860   -2.8750 hn        1 RDA      0.475300
     40 H18         1.2160    4.7820    0.5630 ha        1 RDA      0.173000
     41 HO8        -0.8210    7.5070    1.3860 ho        1 RDA      0.458000
     42 H161       -0.4100   10.0170   -1.9830 h1        1 RDA      0.066700
     43 H162       -1.9180    9.0390   -2.3920 h1        1 RDA      0.066700
     44 H163       -1.9500   10.2410   -0.9940 h1        1 RDA      0.066700
     45 H14         0.0480    8.0240   -3.1030 ha        1 RDA      0.171000
     46 HO6         1.3330    6.6740   -4.4330 ho        1 RDA      0.464000
     47 H12         1.9310    3.3120   -1.3830 hn        1 RDA      0.475300
@<TRIPOS>BOND
     1    1    2 1   
     2    1   29 1   
     3    1   30 1   
     4    1   31 1   
     5    2    3 1   
     6    3    4 2   
     7    3    5 1   
     8    5    6 ar  
     9    5   13 ar  
    10    6    7 1   
    11    6    8 ar  
    12    7   32 1   
    13    8    9 ar  
    14    8   33 1   
    15    9   10 1   
    16    9   11 ar  
    17   10   34 1   
    18   11   12 1   
    19   11   13 ar  
    20   13   14 1   
    21   14   15 1   
    22   14   35 1   
    23   14   36 1   
    24   15   16 1   
    25   15   37 1   
    26   15   38 1   
    27   16   17 2   
    28   16   18 1   
    29   18   19 1   
    30   18   39 1   
    31   18   47 1   
    32   19   20 ar  
    33   19   27 ar  
    34   20   21 ar  
    35   20   40 1   
    36   21   22 1   
    37   21   23 ar  
    38   22   41 1   
    39   23   24 1   
    40   23   26 ar  
    41   24   25 1   
    42   25   42 1   
    43   25   43 1   
    44   25   44 1   
    45   26   27 ar  
    46   26   45 1   
    47   27   28 1   
    48   28   46 1   
@<TRIPOS>SUBSTRUCTURE
     1 RDA         1 TEMP              0 ****  ****    0 ROOT
