@<TRIPOS>MOLECULE
RDA
   46    47     1     0     0
SMALL
bcc


@<TRIPOS>ATOM
      1 C7          0.1510   -0.0130   -0.1540 c3        1 RDA      0.122700
      2 O4          1.5720    0.1070   -0.0690 os        1 RDA     -0.440900
      3 C6          2.1480   -0.2920    1.1110 c         1 RDA      0.664700
      4 O3          1.4090   -0.6800    2.0140 o         1 RDA     -0.514000
      5 C5          3.6200   -0.1830    1.1070 ca        1 RDA     -0.173600
      6 C4          4.3930   -1.3570    0.9920 ca        1 RDA      0.208100
      7 O2          3.7120   -2.5370    0.8390 oh        1 RDA     -0.479100
      8 C3          5.7890   -1.3060    1.0220 ca        1 RDA     -0.254000
      9 C2          6.4160   -0.0600    1.1600 ca        1 RDA      0.199100
     10 O1          7.7850   -0.0920    1.1800 oh        1 RDA     -0.484100
     11 C1          5.6540    1.1220    1.2610 ca        1 RDA     -0.115600
     12 CL          6.4580    2.6170    1.4090 cl        1 RDA     -0.081400
     13 C8          4.2520    1.0610    1.2390 ca        1 RDA      0.046700
     14 C9          3.4250    2.2960    1.3680 c3        1 RDA     -0.044100
     15 C10         3.2010    2.9400    0.0120 c3        1 RDA     -0.153400
     16 C11         2.4080    4.2290    0.1610 c         1 RDA      0.668100
     17 O5          2.0790    4.6690    1.2780 o         1 RDA     -0.601100
     18 N1          2.0800    4.8610   -1.0300 n         1 RDA     -0.461100
     19 C12         1.4060    6.0810   -1.1910 ca        1 RDA      0.058600
     20 C18         0.7780    6.7600   -0.1270 ca        1 RDA     -0.189000
     21 C17         0.1120    7.9660   -0.3410 ca        1 RDA      0.099100
     22 O8         -0.5100    8.6550    0.6750 oh        1 RDA     -0.476100
     23 C15         0.0430    8.5360   -1.6350 ca        1 RDA      0.110100
     24 O7         -0.6440    9.7280   -1.7310 os        1 RDA     -0.297900
     25 C16        -0.7030   10.3100   -3.0280 c3        1 RDA      0.109700
     26 C14         0.6540    7.8780   -2.7010 ca        1 RDA     -0.230000
     27 C13         1.3270    6.6710   -2.4840 ca        1 RDA      0.068100
     28 O6          1.9440    6.0020   -3.5260 oh        1 RDA     -0.517100
     29 H71        -0.3320    0.6300    0.6210 h1        1 RDA      0.053033
     30 H72        -0.0830    0.3430   -1.1870 h1        1 RDA      0.053033
     31 H73        -0.1510   -1.0790   -0.0100 h1        1 RDA      0.053033
     32 HO2         4.3570   -3.2620    0.8300 ho        1 RDA      0.433000
     33 H3          6.4000   -2.2160    0.9420 ha        1 RDA      0.164000
     34 HO1         8.1170    0.8140    1.2970 ho        1 RDA      0.438000
     35 H91         2.4280    2.0470    1.8260 hc        1 RDA      0.083700
     36 H92         3.9170    3.0330    2.0610 hc        1 RDA      0.083700
     37 H101        2.6410    2.2230   -0.6490 hc        1 RDA      0.081200
     38 H102        4.1880    3.1690   -0.4700 hc        1 RDA      0.081200
     39 HN1         2.4170    4.4510   -1.8750 hn        1 RDA      0.332500
     40 H18         0.8110    6.3430    0.8940 ha        1 RDA      0.182000
     41 HO8        -0.3630    8.1600    1.4960 ho        1 RDA      0.420000
     42 H161        0.3220   10.5470   -3.4040 h1        1 RDA      0.043367
     43 H162       -1.2900   11.2490   -2.8620 h1        1 RDA      0.043367
     44 H163       -1.2350    9.6340   -3.7410 h1        1 RDA      0.043367
     45 H14         0.6170    8.2980   -3.7160 ha        1 RDA      0.142000
     46 HO6         1.7840    6.5050   -4.3360 ho        1 RDA      0.425000
@<TRIPOS>BOND
     1    1    2 1   
     2    1   29 1   
     3    1   30 1   
     4    1   31 1   
     5    2    3 1   
     6    3    4 2   
     7    3    5 1   
     8    5    6 ar  
     9    5   13 ar  
    10    6    7 1   
    11    6    8 ar  
    12    7   32 1   
    13    8    9 ar  
    14    8   33 1   
    15    9   10 1   
    16    9   11 ar  
    17   10   34 1   
    18   11   12 1   
    19   11   13 ar  
    20   13   14 1   
    21   14   15 1   
    22   14   35 1   
    23   14   36 1   
    24   15   16 1   
    25   15   37 1   
    26   15   38 1   
    27   16   17 2   
    28   16   18 1   
    29   18   19 1   
    30   18   39 1   
    31   19   20 ar  
    32   19   27 ar  
    33   20   21 ar  
    34   20   40 1   
    35   21   22 1   
    36   21   23 ar  
    37   22   41 1   
    38   23   24 1   
    39   23   26 ar  
    40   24   25 1   
    41   25   42 1   
    42   25   43 1   
    43   25   44 1   
    44   26   27 ar  
    45   26   45 1   
    46   27   28 1   
    47   28   46 1   
@<TRIPOS>SUBSTRUCTURE
     1 RDA         1 TEMP              0 ****  ****    0 ROOT
