@<TRIPOS>MOLECULE
RDC
   42    44     1     0     0
SMALL
bcc


@<TRIPOS>ATOM
      1 C1         -1.1700   -0.3170   -0.3560 c         1 RDC      0.657700
      2 C2         -1.1140   -0.1170    1.1040 ca        1 RDC     -0.237600
      3 C3         -2.2690   -0.3190    1.8860 ca        1 RDC      0.221100
      4 C4         -2.2170   -0.2380    3.2850 ca        1 RDC     -0.200000
      5 C5         -1.0020    0.0790    3.8960 ca        1 RDC      0.198100
      6 C6          0.1520    0.3390    3.1200 ca        1 RDC     -0.099600
      7 C7          0.1020    0.2350    1.7260 ca        1 RDC      0.065700
      8 C8          1.2980    0.5680    0.8980 c3        1 RDC     -0.151100
      9 C9          2.2530   -0.5810    0.6620 c         1 RDC      0.581300
     10 C10         2.9460   -0.6090   -0.6420 ce        1 RDC     -0.234200
     11 C11         2.3560   -0.2550   -1.7910 cf        1 RDC     -0.079000
     12 C12         2.9490   -0.3730   -3.1070 cf        1 RDC     -0.127000
     13 C13         2.3160    0.0170   -4.2250 c2        1 RDC     -0.137200
     14 C14         1.0180    0.7090   -4.2450 cx        1 RDC      0.084300
     15 C15        -0.2450    0.1010   -3.7250 cx        1 RDC      0.069100
     16 C16        -1.3220    0.9940   -3.1870 c3        1 RDC     -0.101400
     17 C17        -2.4190    0.3160   -2.3750 c3        1 RDC      0.169100
     18 C18        -2.7830   -1.0800   -2.8250 c3        1 RDC     -0.133100
     19 O1         -2.1760    0.3930   -0.9560 os        1 RDC     -0.462900
     20 O2         -0.4590   -1.0430   -1.0510 o         1 RDC     -0.533000
     21 O3         -3.4990   -0.6320    1.3740 oh        1 RDC     -0.488100
     22 O4         -1.0270    0.1370    5.2640 oh        1 RDC     -0.481100
     23 CL1         1.5920    0.7810    3.9170 cl        1 RDC     -0.076400
     24 O5          2.4920   -1.4290    1.5260 o         1 RDC     -0.512100
     25 O6          0.0120    0.2010   -5.1380 os        1 RDC     -0.399600
     26 H4         -3.1170   -0.4220    3.8890 ha        1 RDC      0.180000
     27 H81         1.8950    1.3810    1.4030 hc        1 RDC      0.083200
     28 H82         0.9510    0.9900   -0.0830 hc        1 RDC      0.083200
     29 H10         3.9730   -1.0090   -0.6060 ha        1 RDC      0.150000
     30 H11         1.3100    0.1100   -1.7920 ha        1 RDC      0.138000
     31 H12         3.9500   -0.8330   -3.1650 ha        1 RDC      0.136000
     32 H13         2.7700   -0.1360   -5.2190 ha        1 RDC      0.145000
     33 H14         1.1130    1.8170   -4.2770 h1        1 RDC      0.093700
     34 H15        -0.2320   -0.9390   -3.3360 h1        1 RDC      0.125700
     35 H161       -1.8150    1.5200   -4.0500 hc        1 RDC      0.069200
     36 H162       -0.8450    1.7790   -2.5390 hc        1 RDC      0.069200
     37 H17        -3.3420    0.9750   -2.4420 h1        1 RDC      0.076700
     38 H181       -1.9850   -1.8190   -2.5710 hc        1 RDC      0.059700
     39 H182       -3.7280   -1.4040   -2.3260 hc        1 RDC      0.059700
     40 H183       -2.9350   -1.0820   -3.9310 hc        1 RDC      0.059700
     41 HO3        -3.4810   -0.5520    0.4070 ho        1 RDC      0.442000
     42 HO4        -0.1280    0.3170    5.5860 ho        1 RDC      0.438000
@<TRIPOS>BOND
     1    1    2 1   
     2    1   19 1   
     3    1   20 2   
     4    2    3 ar  
     5    2    7 ar  
     6    3    4 ar  
     7    3   21 1   
     8    4    5 ar  
     9    4   26 1   
    10    5    6 ar  
    11    5   22 1   
    12    6    7 ar  
    13    6   23 1   
    14    7    8 1   
    15    8    9 1   
    16    8   27 1   
    17    8   28 1   
    18    9   10 1   
    19    9   24 2   
    20   10   11 2   
    21   10   29 1   
    22   11   12 1   
    23   11   30 1   
    24   12   13 2   
    25   12   31 1   
    26   13   14 1   
    27   13   32 1   
    28   14   15 1   
    29   14   25 1   
    30   14   33 1   
    31   15   16 1   
    32   15   25 1   
    33   15   34 1   
    34   16   17 1   
    35   16   35 1   
    36   16   36 1   
    37   17   18 1   
    38   17   19 1   
    39   17   37 1   
    40   18   38 1   
    41   18   39 1   
    42   18   40 1   
    43   21   41 1   
    44   22   42 1   
@<TRIPOS>SUBSTRUCTURE
     1 RDC         1 TEMP              0 ****  ****    0 ROOT
