@<TRIPOS>MOLECULE
RDC
   42    44     1     0     0
SMALL
bcc


@<TRIPOS>ATOM
      1 C1         -0.0140    0.6120   -0.4520 c         1 RDC      0.677700
      2 C2          1.4250    0.3360   -0.2410 ca        1 RDC     -0.179600
      3 C3          2.3240    0.5770   -1.3000 ca        1 RDC      0.206100
      4 C4          3.7000    0.3890   -1.1350 ca        1 RDC     -0.251000
      5 C5          4.1750   -0.0510    0.1080 ca        1 RDC      0.199100
      6 C6          3.2850   -0.3090    1.1710 ca        1 RDC     -0.113600
      7 C7          1.9040   -0.1230    0.9950 ca        1 RDC      0.051700
      8 C8          0.9500   -0.4400    2.0960 c3        1 RDC     -0.162100
      9 C9          0.7810    0.6880    3.0930 c         1 RDC      0.578300
     10 C10         0.2010    1.9190    2.5340 ce        1 RDC     -0.252200
     11 C11        -0.9390    2.4980    2.9210 cf        1 RDC     -0.072000
     12 C12        -1.8060    2.0840    4.0100 cf        1 RDC     -0.119000
     13 C13        -2.8200    1.2170    3.9660 c2        1 RDC     -0.151200
     14 C14        -3.2680    0.3800    2.8460 cx        1 RDC      0.093300
     15 C15        -2.8510    0.5300    1.4190 cx        1 RDC      0.059100
     16 C16        -2.8540   -0.6810    0.5350 c3        1 RDC     -0.105400
     17 C17        -2.1680   -0.5100   -0.8150 c3        1 RDC      0.165100
     18 C18        -2.7090    0.6360   -1.6360 c3        1 RDC     -0.120100
     19 O1         -0.7390   -0.5250   -0.6530 os        1 RDC     -0.437900
     20 O2         -0.5590    1.7160   -0.4570 o         1 RDC     -0.531000
     21 O3          1.7860    0.9960   -2.4890 oh        1 RDC     -0.480100
     22 O4          5.5330   -0.2070    0.1940 oh        1 RDC     -0.483100
     23 Cl1         3.9070   -0.8460    2.6600 cl        1 RDC     -0.067400
     24 O5          1.0930    0.5420    4.2770 o         1 RDC     -0.508100
     25 O6         -4.1420    0.9760    1.8680 os        1 RDC     -0.395600
     26 H4          4.4090    0.5780   -1.9530 ha        1 RDC      0.165000
     27 H81         1.2950   -1.3610    2.6430 hc        1 RDC      0.093200
     28 H82        -0.0680   -0.6690    1.6680 hc        1 RDC      0.093200
     29 H10         0.7740    2.3370    1.6860 ha        1 RDC      0.160000
     30 H11        -1.2890    3.4090    2.3930 ha        1 RDC      0.147000
     31 H12        -1.5800    2.6020    4.9640 ha        1 RDC      0.145000
     32 H13        -3.4200    1.0560    4.8820 ha        1 RDC      0.135000
     33 H14        -3.6190   -0.6230    3.1800 h1        1 RDC      0.086700
     34 H15        -2.1710    1.3530    1.1110 h1        1 RDC      0.119700
     35 H161       -3.9160   -0.9920    0.3380 hc        1 RDC      0.067700
     36 H162       -2.3440   -1.5200    1.0820 hc        1 RDC      0.067700
     37 H17        -2.3120   -1.4770   -1.3940 h1        1 RDC      0.072700
     38 H181       -2.0150    0.8650   -2.4790 hc        1 RDC      0.057700
     39 H182       -2.8290    1.5600   -1.0190 hc        1 RDC      0.057700
     40 H183       -3.7070    0.3510   -2.0490 hc        1 RDC      0.057700
     41 HO3         2.5120    1.1590   -3.1110 ho        1 RDC      0.433000
     42 HO4         5.7570   -0.5060    1.0910 ho        1 RDC      0.439000
@<TRIPOS>BOND
     1    1    2 1   
     2    1   19 1   
     3    1   20 2   
     4    2    3 ar  
     5    2    7 ar  
     6    3    4 ar  
     7    3   21 1   
     8    4    5 ar  
     9    4   26 1   
    10    5    6 ar  
    11    5   22 1   
    12    6    7 ar  
    13    6   23 1   
    14    7    8 1   
    15    8    9 1   
    16    8   27 1   
    17    8   28 1   
    18    9   10 1   
    19    9   24 2   
    20   10   11 2   
    21   10   29 1   
    22   11   12 1   
    23   11   30 1   
    24   12   13 2   
    25   12   31 1   
    26   13   14 1   
    27   13   32 1   
    28   14   15 1   
    29   14   25 1   
    30   14   33 1   
    31   15   16 1   
    32   15   25 1   
    33   15   34 1   
    34   16   17 1   
    35   16   35 1   
    36   16   36 1   
    37   17   18 1   
    38   17   19 1   
    39   17   37 1   
    40   18   38 1   
    41   18   39 1   
    42   18   40 1   
    43   21   41 1   
    44   22   42 1   
@<TRIPOS>SUBSTRUCTURE
     1 RDC         1 TEMP              0 ****  ****    0 ROOT
