@<TRIPOS>MOLECULE
RDC
   42    44     1     0     0
SMALL
bcc


@<TRIPOS>ATOM
      1 C1         -0.0190    0.6130   -0.4440 c         1 RDC      0.677700
      2 C2          1.4190    0.3250   -0.2400 ca        1 RDC     -0.179600
      3 C3          2.3150    0.5540   -1.3040 ca        1 RDC      0.206100
      4 C4          3.6890    0.3540   -1.1460 ca        1 RDC     -0.251000
      5 C5          4.1680   -0.0850    0.0960 ca        1 RDC      0.199100
      6 C6          3.2810   -0.3310    1.1650 ca        1 RDC     -0.113600
      7 C7          1.9010   -0.1330    0.9960 ca        1 RDC      0.051700
      8 C8          0.9500   -0.4380    2.1030 c3        1 RDC     -0.162100
      9 C9          0.7960    0.6960    3.0970 c         1 RDC      0.578300
     10 C10         0.2240    1.9290    2.5360 ce        1 RDC     -0.252200
     11 C11        -0.9080    2.5200    2.9270 cf        1 RDC     -0.072000
     12 C12        -1.7730    2.1180    4.0220 cf        1 RDC     -0.119000
     13 C13        -2.7950    1.2600    3.9860 c2        1 RDC     -0.151200
     14 C14        -3.2560    0.4220    2.8730 cx        1 RDC      0.093300
     15 C15        -2.8460    0.5630    1.4430 cx        1 RDC      0.059100
     16 C16        -2.8640   -0.6520    0.5630 c3        1 RDC     -0.105400
     17 C17        -2.1840   -0.4920   -0.7910 c3        1 RDC      0.165100
     18 C18        -2.7200    0.6560   -1.6130 c3        1 RDC     -0.120100
     19 O1         -0.7540   -0.5180   -0.6370 os        1 RDC     -0.437900
     20 O2         -0.5540    1.7210   -0.4500 o         1 RDC     -0.531000
     21 O3          1.7740    0.9730   -2.4920 oh        1 RDC     -0.480100
     22 O4          5.5240   -0.2520    0.1750 oh        1 RDC     -0.483100
     23 CL1         3.9070   -0.8680    2.6530 cl        1 RDC     -0.067400
     24 O5          1.1130    0.5510    4.2800 o         1 RDC     -0.508100
     25 O6         -4.1300    1.0220    1.8970 os        1 RDC     -0.395600
     26 H4          4.3950    0.5340   -1.9680 ha        1 RDC      0.165000
     27 H81        -0.0720   -0.6590    1.6810 hc        1 RDC      0.093200
     28 H82         1.2900   -1.3590    2.6510 hc        1 RDC      0.093200
     29 H10         0.7970    2.3390    1.6830 ha        1 RDC      0.160000
     30 H11        -1.2530    3.4320    2.3970 ha        1 RDC      0.147000
     31 H12        -1.5370    2.6370    4.9730 ha        1 RDC      0.145000
     32 H13        -3.3910    1.1070    4.9060 ha        1 RDC      0.135000
     33 H14        -3.6150   -0.5770    3.2130 h1        1 RDC      0.086700
     34 H15        -2.1610    1.3790    1.1280 h1        1 RDC      0.119700
     35 H161       -2.3580   -1.4930    1.1110 hc        1 RDC      0.067700
     36 H162       -3.9300   -0.9540    0.3740 hc        1 RDC      0.067700
     37 H17        -2.3400   -1.4600   -1.3650 h1        1 RDC      0.072700
     38 H181       -2.0280    0.8760   -2.4620 hc        1 RDC      0.057700
     39 H182       -3.7220    0.3780   -2.0200 hc        1 RDC      0.057700
     40 H183       -2.8280    1.5830   -1.0000 hc        1 RDC      0.057700
     41 HO3         2.4980    1.1280   -3.1190 ho        1 RDC      0.433000
     42 HO4         5.7510   -0.5500    1.0720 ho        1 RDC      0.439000
@<TRIPOS>BOND
     1    1    2 1   
     2    1   19 1   
     3    1   20 2   
     4    2    3 ar  
     5    2    7 ar  
     6    3    4 ar  
     7    3   21 1   
     8    4    5 ar  
     9    4   26 1   
    10    5    6 ar  
    11    5   22 1   
    12    6    7 ar  
    13    6   23 1   
    14    7    8 1   
    15    8    9 1   
    16    8   27 1   
    17    8   28 1   
    18    9   10 1   
    19    9   24 2   
    20   10   11 2   
    21   10   29 1   
    22   11   12 1   
    23   11   30 1   
    24   12   13 2   
    25   12   31 1   
    26   13   14 1   
    27   13   32 1   
    28   14   15 1   
    29   14   25 1   
    30   14   33 1   
    31   15   16 1   
    32   15   25 1   
    33   15   34 1   
    34   16   17 1   
    35   16   35 1   
    36   16   36 1   
    37   17   18 1   
    38   17   19 1   
    39   17   37 1   
    40   18   38 1   
    41   18   39 1   
    42   18   40 1   
    43   21   41 1   
    44   22   42 1   
@<TRIPOS>SUBSTRUCTURE
     1 RDC         1 TEMP              0 ****  ****    0 ROOT
