@<TRIPOS>MOLECULE
RDD
   29    30     1     0     0
SMALL
bcc


@<TRIPOS>ATOM
      1 C2         -1.7980   -0.4830    1.1150 c         1 RDD      0.825000
      2 C6         -0.8960    0.5970   -0.9070 c         1 RDD      0.825000
      3 C4         -3.1820    1.1310   -0.1410 c         1 RDD      0.820500
      4 O6          0.0080    0.7980   -1.7440 o         1 RDD     -0.616500
      5 N5         -2.1140    1.2870   -1.0420 n         1 RDD     -0.590500
      6 O4         -4.2470    1.7590   -0.2840 o         1 RDD     -0.604500
      7 N3         -2.9910    0.2400    0.9280 n         1 RDD     -0.590500
      8 O2         -1.6960   -1.2560    2.0850 o         1 RDD     -0.616500
      9 N1         -0.7540   -0.3220    0.1610 n         1 RDD     -0.496400
     10 C1'         0.5270   -0.9680    0.4470 c3        1 RDD      0.270500
     11 O4'         1.4220   -0.0490    1.0820 os        1 RDD     -0.421600
     12 C4'         2.5870    0.1970    0.2790 c3        1 RDD      0.058100
     13 C5'         2.6210    1.6750   -0.1070 c3        1 RDD      0.115400
     14 O5'         2.7800    2.4940    1.0310 oh        1 RDD     -0.593800
     15 C3'         2.5430   -0.7360   -0.9430 c3        1 RDD      0.089100
     16 O3'         3.6320   -1.6390   -0.9320 oh        1 RDD     -0.594800
     17 C2'         1.2500   -1.5680   -0.8020 c3        1 RDD      0.138100
     18 O2'         1.4590   -2.9420   -0.6090 oh        1 RDD     -0.569800
     19 HN5        -2.2230    1.9120   -1.8120 hn        1 RDD      0.375500
     20 HN3        -3.7320    0.1090    1.5830 hn        1 RDD      0.375500
     21 H1'         0.3260   -1.7790    1.2170 h2        1 RDD      0.135700
     22 H4'         3.4590   -0.0470    0.9490 h1        1 RDD      0.089700
     23 H5'         3.5220    1.8840   -0.7440 h1        1 RDD      0.060700
     24 H5'A        1.6860    1.9520   -0.6640 h1        1 RDD      0.060700
     25 HO5'        2.0620    2.2760    1.6410 ho        1 RDD      0.412000
     26 H3'         2.5180   -0.1470   -1.8990 h1        1 RDD      0.081700
     27 HO3'        4.4200   -1.1330   -1.1640 ho        1 RDD      0.419000
     28 H2'         0.6270   -1.4980   -1.7360 h1        1 RDD      0.113700
     29 HO2'        2.2290   -3.0610   -0.0350 ho        1 RDD      0.426000
@<TRIPOS>BOND
     1    1    7 1   
     2    1    8 2   
     3    1    9 1   
     4    2    4 2   
     5    2    5 1   
     6    2    9 1   
     7    3    5 1   
     8    3    6 2   
     9    3    7 1   
    10    5   19 1   
    11    7   20 1   
    12    9   10 1   
    13   10   11 1   
    14   10   17 1   
    15   10   21 1   
    16   11   12 1   
    17   12   13 1   
    18   12   15 1   
    19   12   22 1   
    20   13   14 1   
    21   13   23 1   
    22   13   24 1   
    23   14   25 1   
    24   15   16 1   
    25   15   17 1   
    26   15   26 1   
    27   16   27 1   
    28   17   18 1   
    29   17   28 1   
    30   18   29 1   
@<TRIPOS>SUBSTRUCTURE
     1 RDD         1 TEMP              0 ****  ****    0 ROOT
