@<TRIPOS>MOLECULE
RDD
   29    30     1     0     0
SMALL
bcc


@<TRIPOS>ATOM
      1 C2         -0.1090    0.1730    0.0660 c         1 RDD      0.825000
      2 C6         -0.3420   -0.1060    2.5030 c         1 RDD      0.825000
      3 C4          1.8090    0.6440    1.5480 c         1 RDD      0.820500
      4 O6         -0.9960   -0.3950    3.5260 o         1 RDD     -0.613500
      5 N5          0.9990    0.2960    2.6440 n         1 RDD     -0.590000
      6 O4          2.9900    1.0020    1.7040 o         1 RDD     -0.603500
      7 N3          1.2250    0.5700    0.2730 n         1 RDD     -0.590000
      8 O2         -0.5630    0.1320   -1.0920 o         1 RDD     -0.613500
      9 N1         -0.8870   -0.1990    1.1990 n         1 RDD     -0.498400
     10 C1'        -2.3140   -0.4440    0.9840 c3        1 RDD      0.310500
     11 O4'        -3.0750    0.7320    1.2780 os        1 RDD     -0.425600
     12 C4'        -4.0070    0.5150    2.3500 c3        1 RDD      0.065100
     13 C5'        -3.6460    1.4330    3.5170 c3        1 RDD      0.117400
     14 O5'        -3.7620    2.7910    3.1510 oh        1 RDD     -0.592800
     15 C3'        -3.9710   -0.9720    2.7360 c3        1 RDD      0.095100
     16 O3'        -5.2190   -1.6060    2.5730 oh        1 RDD     -0.586800
     17 C2'        -2.9000   -1.6140    1.8250 c3        1 RDD      0.085100
     18 O2'        -3.4910   -2.5000    0.8910 oh        1 RDD     -0.595800
     19 HN5         1.3890    0.3400    3.5610 hn        1 RDD      0.376000
     20 HN3         1.7760    0.8120   -0.5220 hn        1 RDD      0.376000
     21 H1'        -2.4600   -0.6350   -0.1270 h2        1 RDD      0.145700
     22 H4'        -5.0100    0.8090    1.9300 h1        1 RDD      0.089700
     23 H5'        -2.6060    1.2110    3.8780 h1        1 RDD      0.064200
     24 H5'A       -4.3820    1.2930    4.3540 h1        1 RDD      0.064200
     25 HO5'       -3.2060    2.9240    2.3720 ho        1 RDD      0.410000
     26 H3'        -3.7130   -1.1100    3.8210 h1        1 RDD      0.112700
     27 HO3'       -5.4930   -1.4870    1.6520 ho        1 RDD      0.416000
     28 H2'        -2.1260   -2.1520    2.4320 h1        1 RDD      0.085700
     29 HO2'       -3.9190   -3.1980    1.4070 ho        1 RDD      0.427000
@<TRIPOS>BOND
     1    1    7 1   
     2    1    8 2   
     3    1    9 1   
     4    2    4 2   
     5    2    5 1   
     6    2    9 1   
     7    3    5 1   
     8    3    6 2   
     9    3    7 1   
    10    5   19 1   
    11    7   20 1   
    12    9   10 1   
    13   10   11 1   
    14   10   17 1   
    15   10   21 1   
    16   11   12 1   
    17   12   13 1   
    18   12   15 1   
    19   12   22 1   
    20   13   14 1   
    21   13   23 1   
    22   13   24 1   
    23   14   25 1   
    24   15   16 1   
    25   15   17 1   
    26   15   26 1   
    27   16   27 1   
    28   17   18 1   
    29   17   28 1   
    30   18   29 1   
@<TRIPOS>SUBSTRUCTURE
     1 RDD         1 TEMP              0 ****  ****    0 ROOT
