@<TRIPOS>MOLECULE
RDD
   29    30     1     0     0
SMALL
bcc


@<TRIPOS>ATOM
      1 C2         -0.1220    0.2570    0.0690 c         1 RDD      0.825000
      2 C6         -0.4040   -0.1570    2.4820 c         1 RDD      0.825000
      3 C4          1.7700    0.6280    1.6120 c         1 RDD      0.820500
      4 O6         -1.0800   -0.4990    3.4740 o         1 RDD     -0.616000
      5 N5          0.9360    0.2250    2.6700 ns        1 RDD     -0.589500
      6 O4          2.9510    0.9660    1.8100 o         1 RDD     -0.603500
      7 N3          1.2100    0.6320    0.3240 ns        1 RDD     -0.589500
      8 O2         -0.5530    0.2790   -1.0980 o         1 RDD     -0.616000
      9 N1         -0.9260   -0.1690    1.1650 n         1 RDD     -0.497400
     10 C1'        -2.3490   -0.3910    0.9070 c3        1 RDD      0.276500
     11 O4'        -3.1070    0.7860    1.1990 os        1 RDD     -0.426600
     12 C4'        -4.0200    0.5810    2.2910 c3        1 RDD      0.094100
     13 C5'        -3.6230    1.4900    3.4530 c3        1 RDD      0.117400
     14 O5'        -3.7110    2.8500    3.0890 oh        1 RDD     -0.592800
     15 C3'        -3.9860   -0.9060    2.6720 c3        1 RDD      0.089100
     16 O3'        -5.2880   -1.4260    2.4690 oh        1 RDD     -0.592800
     17 C2'        -2.9810   -1.5720    1.7050 c3        1 RDD      0.091100
     18 O2'        -3.6150   -2.4700    0.8270 oh        1 RDD     -0.581800
     19 HN5         1.3090    0.2100    3.5960 hn        1 RDD      0.376000
     20 HN3         1.7800    0.9110   -0.4460 hn        1 RDD      0.376000
     21 H1'        -2.4610   -0.5550   -0.2100 h2        1 RDD      0.134700
     22 H4'        -5.0300    0.8790    1.8910 h1        1 RDD      0.104700
     23 H5'        -2.5830    1.2440    3.7990 h1        1 RDD      0.061700
     24 H5'A       -4.3490    1.3650    4.2990 h1        1 RDD      0.061700
     25 HO5'       -3.1800    2.9680    2.2900 ho        1 RDD      0.410000
     26 H3'        -3.6610   -1.0500    3.7370 h1        1 RDD      0.083700
     27 HO3'       -5.2490   -2.3680    2.6850 ho        1 RDD      0.420000
     28 H2'        -2.2200   -2.1900    2.2520 h1        1 RDD      0.116700
     29 HO2'       -4.3860   -2.0230    0.4470 ho        1 RDD      0.421000
@<TRIPOS>BOND
     1    1    7 1   
     2    1    8 2   
     3    1    9 1   
     4    2    4 2   
     5    2    5 1   
     6    2    9 1   
     7    3    5 1   
     8    3    6 2   
     9    3    7 1   
    10    5   19 1   
    11    7   20 1   
    12    9   10 1   
    13   10   11 1   
    14   10   17 1   
    15   10   21 1   
    16   11   12 1   
    17   12   13 1   
    18   12   15 1   
    19   12   22 1   
    20   13   14 1   
    21   13   23 1   
    22   13   24 1   
    23   14   25 1   
    24   15   16 1   
    25   15   17 1   
    26   15   26 1   
    27   16   27 1   
    28   17   18 1   
    29   17   28 1   
    30   18   29 1   
@<TRIPOS>SUBSTRUCTURE
     1 RDD         1 TEMP              0 ****  ****    0 ROOT
