@<TRIPOS>MOLECULE
RDD
   29    30     1     0     0
SMALL
bcc


@<TRIPOS>ATOM
      1 C2         -0.0870    0.1270    0.0840 c         1 RDD      0.825000
      2 C6         -0.3480   -0.1090    2.5230 c         1 RDD      0.825000
      3 C4          1.8180    0.6100    1.5800 c         1 RDD      0.820500
      4 O6         -1.0160   -0.3750    3.5430 o         1 RDD     -0.613500
      5 N5          0.9930    0.2860    2.6720 n         1 RDD     -0.590000
      6 O4          3.0000    0.9620    1.7420 o         1 RDD     -0.603500
      7 N3          1.2470    0.5180    0.2990 n         1 RDD     -0.590000
      8 O2         -0.5280    0.0690   -1.0780 o         1 RDD     -0.613500
      9 N1         -0.8800   -0.2200    1.2150 n         1 RDD     -0.498400
     10 C1'        -2.3060   -0.4580    0.9880 c3        1 RDD      0.310500
     11 O4'        -3.0620    0.7290    1.2540 os        1 RDD     -0.425600
     12 C4'        -4.0080    0.5370    2.3190 c3        1 RDD      0.065100
     13 C5'        -3.6530    1.4720    3.4740 c3        1 RDD      0.117400
     14 O5'        -3.7530    2.8240    3.0840 oh        1 RDD     -0.592800
     15 C3'        -3.9880   -0.9430    2.7290 c3        1 RDD      0.095100
     16 O3'        -5.2380   -1.5710    2.5630 oh        1 RDD     -0.586800
     17 C2'        -2.9110   -1.6090    1.8420 c3        1 RDD      0.085100
     18 O2'        -3.4980   -2.5060    0.9170 oh        1 RDD     -0.595800
     19 HN5         1.3730    0.3430    3.5930 hn        1 RDD      0.376000
     20 HN3         1.8100    0.7420   -0.4940 hn        1 RDD      0.376000
     21 H1'        -2.4410   -0.6670   -0.1210 h2        1 RDD      0.145700
     22 H4'        -5.0030    0.8310    1.8820 h1        1 RDD      0.089700
     23 H5'        -2.6180    1.2480    3.8500 h1        1 RDD      0.064200
     24 H5'A       -4.3990    1.3510    4.3040 h1        1 RDD      0.064200
     25 HO5'       -3.1880    2.9400    2.3090 ho        1 RDD      0.410000
     26 H3'        -3.7420   -1.0660    3.8200 h1        1 RDD      0.112700
     27 HO3'       -5.5000   -1.4660    1.6370 ho        1 RDD      0.416000
     28 H2'        -2.1470   -2.1420    2.4670 h1        1 RDD      0.085700
     29 HO2'       -3.9370   -3.1930    1.4390 ho        1 RDD      0.427000
@<TRIPOS>BOND
     1    1    7 1   
     2    1    8 2   
     3    1    9 1   
     4    2    4 2   
     5    2    5 1   
     6    2    9 1   
     7    3    5 1   
     8    3    6 2   
     9    3    7 1   
    10    5   19 1   
    11    7   20 1   
    12    9   10 1   
    13   10   11 1   
    14   10   17 1   
    15   10   21 1   
    16   11   12 1   
    17   12   13 1   
    18   12   15 1   
    19   12   22 1   
    20   13   14 1   
    21   13   23 1   
    22   13   24 1   
    23   14   25 1   
    24   15   16 1   
    25   15   17 1   
    26   15   26 1   
    27   16   27 1   
    28   17   18 1   
    29   17   28 1   
    30   18   29 1   
@<TRIPOS>SUBSTRUCTURE
     1 RDD         1 TEMP              0 ****  ****    0 ROOT
