@<TRIPOS>MOLECULE
RDE
   47    48     1     0     0
SMALL
bcc


@<TRIPOS>ATOM
      1 CAC         2.9920   -1.2840   -2.8570 c3        1 RDE      0.114700
      2 OAP         2.7340   -1.3800   -1.4550 os        1 RDE     -0.326900
      3 CBA         3.4380   -0.4620   -0.6910 ca        1 RDE      0.035100
      4 CAW         4.8290   -0.5990   -0.4820 ca        1 RDE      0.141100
      5 OAN         5.4400   -1.6020   -1.2070 os        1 RDE     -0.318900
      6 CAA         6.8140   -1.8410   -0.9240 c3        1 RDE      0.111700
      7 CAJ         5.5050    0.2510    0.3930 ca        1 RDE     -0.251000
      8 CAS         4.8080    1.2750    1.0710 ca        1 RDE      0.159600
      9 NAD         5.4900    2.1810    1.8850 nh        1 RDE     -0.813200
     10 CAZ         3.4100    1.4040    0.8440 ca        1 RDE      0.004100
     11 OAO         2.6940    2.3360    1.5910 os        1 RDE     -0.343900
     12 CAB         2.6370    3.6280    0.9830 c3        1 RDE      0.109700
     13 CAY         2.7240    0.5480   -0.0280 ca        1 RDE     -0.032300
     14 CAM         1.2580    0.6860   -0.2460 c3        1 RDE     -0.032100
     15 CAL         0.5040   -0.3850    0.5300 c3        1 RDE      0.148400
     16 OAQ        -0.8870   -0.1800    0.2070 os        1 RDE     -0.435900
     17 CAR        -1.7800   -0.9990    0.8350 c         1 RDE      0.665700
     18 OAE        -1.3350   -1.8380    1.6320 o         1 RDE     -0.578000
     19 CAX        -3.1790   -0.7680    0.4730 ca        1 RDE     -0.257600
     20 CAK        -3.5040    0.2330   -0.4550 ca        1 RDE      0.011000
     21 CAV        -4.8240    0.4730   -0.8150 ca        1 RDE     -0.129600
     22 CLAH       -5.1780    1.6960   -1.9430 cl        1 RDE     -0.087400
     23 CAT        -5.8580   -0.3020   -0.2400 ca        1 RDE      0.204100
     24 OAF        -7.1840   -0.1380   -0.5340 oh        1 RDE     -0.481100
     25 CAI        -5.5580   -1.3050    0.6850 ca        1 RDE     -0.217000
     26 CAU        -4.2180   -1.5400    1.0430 ca        1 RDE      0.241100
     27 OAG        -4.0400   -2.5390    1.9520 oh        1 RDE     -0.493100
     28 HAC1        2.3690   -2.1030   -3.2950 h1        1 RDE      0.042033
     29 HAC2        2.6660   -0.2880   -3.2420 h1        1 RDE      0.042033
     30 HAC3        4.0750   -1.4510   -3.0690 h1        1 RDE      0.042033
     31 HAA1        6.9600   -2.0940    0.1540 h1        1 RDE      0.046033
     32 HAA2        7.0610   -2.7200   -1.5730 h1        1 RDE      0.046033
     33 HAA3        7.4340   -0.9560   -1.2080 h1        1 RDE      0.046033
     34 HAJ1        6.5860    0.1320    0.5560 ha        1 RDE      0.143000
     35 HAD         4.9010    2.6550    2.5370 hn        1 RDE      0.397300
     36 HAC         6.3220    1.8180    2.2950 hn        1 RDE      0.397300
     37 HAB1        3.6610    4.0630    0.8870 h1        1 RDE      0.042033
     38 HAB2        2.1500    3.5680   -0.0200 h1        1 RDE      0.042033
     39 HAB3        2.0130    4.2270    1.6920 h1        1 RDE      0.042033
     40 HAM1        0.9060    1.7000    0.0820 hc        1 RDE      0.066200
     41 HAM2        1.0310    0.5730   -1.3400 hc        1 RDE      0.066200
     42 HAL1        0.8040   -1.4150    0.2050 h1        1 RDE      0.070200
     43 HAL2        0.6410   -0.2760    1.6360 h1        1 RDE      0.070200
     44 HAK1       -2.6890    0.8330   -0.8980 ha        1 RDE      0.172000
     45 HAA        -7.2710    0.5800   -1.1840 ho        1 RDE      0.437000
     46 HAI1       -6.3610   -1.9090    1.1320 ha        1 RDE      0.178000
     47 HAB        -3.0940   -2.6520    2.1530 ho        1 RDE      0.467000
@<TRIPOS>BOND
     1    1    2 1   
     2    1   28 1   
     3    1   29 1   
     4    1   30 1   
     5    2    3 1   
     6    3    4 ar  
     7    3   13 ar  
     8    4    5 1   
     9    4    7 ar  
    10    5    6 1   
    11    6   31 1   
    12    6   32 1   
    13    6   33 1   
    14    7    8 ar  
    15    7   34 1   
    16    8    9 1   
    17    8   10 ar  
    18    9   35 1   
    19    9   36 1   
    20   10   11 1   
    21   10   13 ar  
    22   11   12 1   
    23   12   37 1   
    24   12   38 1   
    25   12   39 1   
    26   13   14 1   
    27   14   15 1   
    28   14   40 1   
    29   14   41 1   
    30   15   16 1   
    31   15   42 1   
    32   15   43 1   
    33   16   17 1   
    34   17   18 2   
    35   17   19 1   
    36   19   20 ar  
    37   19   26 ar  
    38   20   21 ar  
    39   20   44 1   
    40   21   22 1   
    41   21   23 ar  
    42   23   24 1   
    43   23   25 ar  
    44   24   45 1   
    45   25   26 ar  
    46   25   46 1   
    47   26   27 1   
    48   27   47 1   
@<TRIPOS>SUBSTRUCTURE
     1 RDE         1 TEMP              0 ****  ****    0 ROOT
