@<TRIPOS>MOLECULE
RDE
   47    48     1     0     0
SMALL
bcc


@<TRIPOS>ATOM
      1 CAC         0.1070    0.2390   -0.3020 c3        1 RDE      0.113700
      2 OAP         1.4780   -0.0170    0.0020 os        1 RDE     -0.323900
      3 CBA         1.7580   -0.0340    1.3600 ca        1 RDE      0.038100
      4 CAW         1.7920    1.1660    2.1070 ca        1 RDE      0.139100
      5 OAN         1.3790    2.2960    1.4290 os        1 RDE     -0.318900
      6 CAA         1.5290    3.5350    2.1130 c3        1 RDE      0.111700
      7 CAJ         2.2050    1.1670    3.4380 ca        1 RDE     -0.251000
      8 CAS         2.5790   -0.0420    4.0660 ca        1 RDE      0.157600
      9 NAD         2.9210   -0.0630    5.4210 nv        1 RDE     -0.812200
     10 CAZ         2.5260   -1.2410    3.3060 ca        1 RDE      0.002100
     11 OAO         2.9940   -2.4210    3.8780 os        1 RDE     -0.343900
     12 CAB         1.9940   -3.1380    4.6050 c3        1 RDE      0.110700
     13 CAY         2.1210   -1.2460    1.9630 ca        1 RDE     -0.029300
     14 CAM         2.0920   -2.5140    1.1830 c3        1 RDE     -0.033100
     15 CAL         3.4990   -2.9090    0.7590 c3        1 RDE      0.149400
     16 OAQ         3.3530   -4.1650    0.0710 os        1 RDE     -0.454900
     17 CAR         4.5080   -4.7240   -0.4200 c         1 RDE      0.658700
     18 OAE         5.5640   -4.1190   -0.2320 o         1 RDE     -0.520000
     19 CAX         4.2860   -6.0000   -1.1100 ca        1 RDE     -0.189600
     20 CAK         3.0160   -6.5880   -1.1310 ca        1 RDE     -0.005000
     21 CAV         2.7880   -7.8030   -1.7760 ca        1 RDE     -0.069600
     22 ClAH        1.2260   -8.4650   -1.7610 cl        1 RDE     -0.062400
     23 CAT         3.8620   -8.4510   -2.4240 ca        1 RDE      0.205100
     24 OAF         3.6130   -9.6440   -3.0500 oh        1 RDE     -0.473100
     25 CAI         5.1400   -7.8800   -2.4190 ca        1 RDE     -0.325000
     26 CAU         5.3510   -6.6570   -1.7650 ca        1 RDE      0.223100
     27 OAG         6.5790   -6.0580   -1.7370 oh        1 RDE     -0.451100
     28 HAC1       -0.2060    1.2300    0.1060 h1        1 RDE      0.041367
     29 HAC2       -0.5390   -0.5750    0.1070 h1        1 RDE      0.041367
     30 HAC3        0.0820    0.2420   -1.4200 h1        1 RDE      0.041367
     31 HAA1        0.8690    3.5690    3.0130 h1        1 RDE      0.045700
     32 HAA2        2.5950    3.7040    2.3990 h1        1 RDE      0.045700
     33 HAA3        1.2000    4.2890    1.3530 h1        1 RDE      0.045700
     34 HAJ1        2.2390    2.1070    4.0080 ha        1 RDE      0.142000
     35 HAD         3.4490   -0.8690    5.6860 hn        1 RDE      0.395800
     36 HAC         3.3100    0.7900    5.7570 hn        1 RDE      0.395800
     37 HAB1        2.5310   -4.0510    4.9630 h1        1 RDE      0.041033
     38 HAB2        1.1440   -3.4160    3.9360 h1        1 RDE      0.041033
     39 HAB3        1.6220   -2.5310    5.4650 h1        1 RDE      0.041033
     40 HAM1        1.6550   -3.3360    1.8110 hc        1 RDE      0.065700
     41 HAM2        1.4490   -2.3920    0.2710 hc        1 RDE      0.065700
     42 HAL1        3.9510   -2.1600    0.0590 h1        1 RDE      0.066200
     43 HAL2        4.1690   -3.0540    1.6470 h1        1 RDE      0.066200
     44 HAK1        2.1820   -6.0710   -0.6220 ha        1 RDE      0.176000
     45 HAA         4.4410   -9.9580   -3.4450 ho        1 RDE      0.428000
     46 HAI1        5.9740   -8.3850   -2.9260 ha        1 RDE      0.144000
     47 HAB         7.2050   -6.6210   -2.2200 ho        1 RDE      0.423000
@<TRIPOS>BOND
     1    1    2 1   
     2    1   28 1   
     3    1   29 1   
     4    1   30 1   
     5    2    3 1   
     6    3    4 ar  
     7    3   13 ar  
     8    4    5 1   
     9    4    7 ar  
    10    5    6 1   
    11    6   31 1   
    12    6   32 1   
    13    6   33 1   
    14    7    8 ar  
    15    7   34 1   
    16    8    9 1   
    17    8   10 ar  
    18    9   35 1   
    19    9   36 1   
    20   10   11 1   
    21   10   13 ar  
    22   11   12 1   
    23   12   37 1   
    24   12   38 1   
    25   12   39 1   
    26   13   14 1   
    27   14   15 1   
    28   14   40 1   
    29   14   41 1   
    30   15   16 1   
    31   15   42 1   
    32   15   43 1   
    33   16   17 1   
    34   17   18 2   
    35   17   19 1   
    36   19   20 ar  
    37   19   26 ar  
    38   20   21 ar  
    39   20   44 1   
    40   21   22 1   
    41   21   23 ar  
    42   23   24 1   
    43   23   25 ar  
    44   24   45 1   
    45   25   26 ar  
    46   25   46 1   
    47   26   27 1   
    48   27   47 1   
@<TRIPOS>SUBSTRUCTURE
     1 RDE         1 TEMP              0 ****  ****    0 ROOT
