@<TRIPOS>MOLECULE
RDE
   48    49     1     0     0
SMALL
bcc


@<TRIPOS>ATOM
      1 CAC         0.8310    0.4210   -0.5800 c3        1 RDE      0.118700
      2 OAP         1.2440   -0.6330    0.2950 os        1 RDE     -0.298900
      3 CBA         1.6590   -0.3430    1.5600 ca        1 RDE      0.200100
      4 CAW         1.6710    0.9460    2.1680 ca        1 RDE      0.082100
      5 OAN         1.2120    1.9890    1.3940 os        1 RDE     -0.317900
      6 CAA         1.2820    3.2980    1.9560 c3        1 RDE      0.105700
      7 CAJ         2.1320    1.1100    3.4700 ca        1 RDE     -0.150000
      8 CAS         2.5480   -0.0180    4.2000 ca        1 RDE     -0.121400
      9 NAD         3.0710    0.1480    5.5510 n4        1 RDE     -0.685000
     10 CAZ         2.5000   -1.3060    3.6230 ca        1 RDE      0.149100
     11 OAO         2.9680   -2.3600    4.3930 os        1 RDE     -0.363900
     12 CAB         1.9470   -3.2460    4.8760 c3        1 RDE      0.109700
     13 CAY         2.1020   -1.4730    2.2900 ca        1 RDE     -0.095300
     14 CAM         2.1620   -2.8030    1.6240 c3        1 RDE     -0.041100
     15 CAL         3.3090   -2.8440    0.6210 c3        1 RDE      0.149400
     16 OAQ         3.2870   -4.1660    0.0680 os        1 RDE     -0.457900
     17 CAR         4.2790   -4.4450   -0.8550 c         1 RDE      0.667700
     18 OAE         5.0800   -3.5400   -1.0950 o         1 RDE     -0.517000
     19 CAX         4.1970   -5.7980   -1.4020 ca        1 RDE     -0.204600
     20 CAK         3.0480   -6.5760   -1.2170 ca        1 RDE      0.005000
     21 CAV         2.9550   -7.8570   -1.7540 ca        1 RDE     -0.129600
     22 CLAH        1.5400   -8.7660   -1.5090 cl        1 RDE     -0.076400
     23 CAT         4.0350   -8.3850   -2.4970 ca        1 RDE      0.221100
     24 OAF         4.0380   -9.6270   -3.0630 oh        1 RDE     -0.474100
     25 CAI         5.1960   -7.6260   -2.6880 ca        1 RDE     -0.267000
     26 CAU         5.2760   -6.3380   -2.1410 ca        1 RDE      0.228100
     27 OAG         6.3910   -5.5630   -2.2850 oh        1 RDE     -0.459100
     28 HAC1        1.6630    1.1500   -0.7330 h1        1 RDE      0.070033
     29 HAC2        0.6000   -0.1320   -1.5280 h1        1 RDE      0.070033
     30 HAC3       -0.0800    0.9250   -0.1770 h1        1 RDE      0.070033
     31 HAA1        2.3380    3.5720    2.1900 h1        1 RDE      0.060367
     32 HAA2        0.6350    3.3700    2.8640 h1        1 RDE      0.060367
     33 HAA3        0.8790    3.9440    1.1320 h1        1 RDE      0.060367
     34 HAJ1        2.1700    2.1140    3.9220 ha        1 RDE      0.158000
     35 HAD         3.2950   -0.7810    5.9380 hn        1 RDE      0.463133
     36 HAC         2.3760    0.6120    6.1430 hn        1 RDE      0.463133
     37 HAB1        1.4790   -2.7890    5.7830 h1        1 RDE      0.062367
     38 HAB2        1.1720   -3.4500    4.1010 h1        1 RDE      0.062367
     39 HAB3        2.5100   -4.1780    5.1360 h1        1 RDE      0.062367
     40 HAM1        1.1950   -2.9990    1.0850 hc        1 RDE      0.080200
     41 HAM2        2.3140   -3.6240    2.3730 hc        1 RDE      0.080200
     42 HAL1        3.1610   -2.0980   -0.2030 h1        1 RDE      0.060700
     43 HAL2        4.2990   -2.6680    1.1150 h1        1 RDE      0.060700
     44 HAK1        2.2070   -6.1580   -0.6360 ha        1 RDE      0.167000
     45 HAA         3.1880  -10.0620   -2.8770 ho        1 RDE      0.443000
     46 HAI1        6.0290   -8.0510   -3.2670 ha        1 RDE      0.170000
     47 HAB         7.0330   -6.0440   -2.8330 ho        1 RDE      0.435000
     48 HAD3        3.9260    0.7140    5.5200 hn        1 RDE      0.463133
@<TRIPOS>BOND
     1    1    2 1   
     2    1   28 1   
     3    1   29 1   
     4    1   30 1   
     5    2    3 1   
     6    3    4 ar  
     7    3   13 ar  
     8    4    5 1   
     9    4    7 ar  
    10    5    6 1   
    11    6   31 1   
    12    6   32 1   
    13    6   33 1   
    14    7    8 ar  
    15    7   34 1   
    16    8    9 1   
    17    8   10 ar  
    18    9   35 1   
    19    9   36 1   
    20    9   48 1   
    21   10   11 1   
    22   10   13 ar  
    23   11   12 1   
    24   12   37 1   
    25   12   38 1   
    26   12   39 1   
    27   13   14 1   
    28   14   15 1   
    29   14   40 1   
    30   14   41 1   
    31   15   16 1   
    32   15   42 1   
    33   15   43 1   
    34   16   17 1   
    35   17   18 2   
    36   17   19 1   
    37   19   20 ar  
    38   19   26 ar  
    39   20   21 ar  
    40   20   44 1   
    41   21   22 1   
    42   21   23 ar  
    43   23   24 1   
    44   23   25 ar  
    45   24   45 1   
    46   25   26 ar  
    47   25   46 1   
    48   26   27 1   
    49   27   47 1   
@<TRIPOS>SUBSTRUCTURE
     1 RDE         1 TEMP              0 ****  ****    0 ROOT
