@<TRIPOS>MOLECULE
RDE
   47    48     1     0     0
SMALL
bcc


@<TRIPOS>ATOM
      1 CAC        -0.0800    0.0790   -0.1820 c3        1 RDE      0.113700
      2 OAP         1.3190   -0.1060    0.0370 os        1 RDE     -0.324900
      3 CBA         1.6850   -0.0820    1.3740 ca        1 RDE      0.037100
      4 CAW         1.7060    1.1330    2.0980 ca        1 RDE      0.139100
      5 OAN         1.1940    2.2270    1.4290 os        1 RDE     -0.319900
      6 CAA         1.3270    3.4860    2.0800 c3        1 RDE      0.111700
      7 CAJ         2.2020    1.1800    3.4000 ca        1 RDE     -0.251000
      8 CAS         2.6750    0.0040    4.0220 ca        1 RDE      0.157600
      9 NAD         3.1030    0.0260    5.3530 nh        1 RDE     -0.812200
     10 CAZ         2.6350   -1.2110    3.2870 ca        1 RDE      0.002100
     11 OAO         3.1980   -2.3550    3.8470 os        1 RDE     -0.343900
     12 CAB         2.2840   -3.1070    4.6470 c3        1 RDE      0.110700
     13 CAY         2.1470   -1.2630    1.9720 ca        1 RDE     -0.029300
     14 CAM         2.1340   -2.5450    1.2170 c3        1 RDE     -0.033100
     15 CAL         3.5320   -2.8810    0.7170 c3        1 RDE      0.148400
     16 OAQ         3.4040   -4.1480    0.0440 os        1 RDE     -0.453900
     17 CAR         4.5580   -4.6730   -0.4810 c         1 RDE      0.658700
     18 OAE         5.6010   -4.0340   -0.3350 o         1 RDE     -0.518000
     19 CAX         4.3470   -5.9550   -1.1650 ca        1 RDE     -0.189600
     20 CAK         3.0630   -6.3410   -1.5620 ca        1 RDE      0.005000
     21 CAV         2.8530   -7.5430   -2.2360 ca        1 RDE     -0.127600
     22 CLAH        1.2760   -7.9750   -2.7070 cl        1 RDE     -0.086400
     23 CAT         3.9470   -8.3880   -2.5190 ca        1 RDE      0.207100
     24 OAF         3.8410   -9.5830   -3.1760 oh        1 RDE     -0.484100
     25 CAI         5.2400   -8.0230   -2.1230 ca        1 RDE     -0.268000
     26 CAU         5.4360   -6.8110   -1.4460 ca        1 RDE      0.219100
     27 OAG         6.6750   -6.4190   -1.0220 oh        1 RDE     -0.456100
     28 HAC1       -0.4150    1.0610    0.2290 h1        1 RDE      0.041367
     29 HAC2       -0.6570   -0.7570    0.2810 h1        1 RDE      0.041367
     30 HAC3       -0.1760    0.0590   -1.2960 h1        1 RDE      0.041367
     31 HAA1        0.9140    4.2080    1.3310 h1        1 RDE      0.045700
     32 HAA2        2.4000    3.7110    2.2940 h1        1 RDE      0.045700
     33 HAA3        0.7260    3.5070    3.0210 h1        1 RDE      0.045700
     34 HAJ1        2.2240    2.1310    3.9500 ha        1 RDE      0.142000
     35 HAD         3.6860   -0.7470    5.5960 hn        1 RDE      0.396300
     36 HAC         3.4670    0.9040    5.6490 hn        1 RDE      0.396300
     37 HAB1        1.4090   -3.4400    4.0380 h1        1 RDE      0.041367
     38 HAB2        2.8880   -3.9850    4.9850 h1        1 RDE      0.041367
     39 HAB3        1.9350   -2.5030    5.5190 h1        1 RDE      0.041367
     40 HAM1        1.4330   -2.4720    0.3430 hc        1 RDE      0.065700
     41 HAM2        1.7750   -3.3750    1.8830 hc        1 RDE      0.065700
     42 HAL1        3.9090   -2.1190   -0.0130 h1        1 RDE      0.066200
     43 HAL2        4.2560   -2.9880    1.5670 h1        1 RDE      0.066200
     44 HAK1        2.2110   -5.6770   -1.3330 ha        1 RDE      0.175000
     45 HAA         2.9080   -9.7310   -3.4030 ho        1 RDE      0.438000
     46 HAI1        6.0830   -8.6910   -2.3470 ha        1 RDE      0.162000
     47 HAB         7.3210   -7.0850   -1.3070 ho        1 RDE      0.427000
@<TRIPOS>BOND
     1    1    2 1   
     2    1   28 1   
     3    1   29 1   
     4    1   30 1   
     5    2    3 1   
     6    3    4 ar  
     7    3   13 ar  
     8    4    5 1   
     9    4    7 ar  
    10    5    6 1   
    11    6   31 1   
    12    6   32 1   
    13    6   33 1   
    14    7    8 ar  
    15    7   34 1   
    16    8    9 1   
    17    8   10 ar  
    18    9   35 1   
    19    9   36 1   
    20   10   11 1   
    21   10   13 ar  
    22   11   12 1   
    23   12   37 1   
    24   12   38 1   
    25   12   39 1   
    26   13   14 1   
    27   14   15 1   
    28   14   40 1   
    29   14   41 1   
    30   15   16 1   
    31   15   42 1   
    32   15   43 1   
    33   16   17 1   
    34   17   18 2   
    35   17   19 1   
    36   19   20 ar  
    37   19   26 ar  
    38   20   21 ar  
    39   20   44 1   
    40   21   22 1   
    41   21   23 ar  
    42   23   24 1   
    43   23   25 ar  
    44   24   45 1   
    45   25   26 ar  
    46   25   46 1   
    47   26   27 1   
    48   27   47 1   
@<TRIPOS>SUBSTRUCTURE
     1 RDE         1 TEMP              0 ****  ****    0 ROOT
