@<TRIPOS>MOLECULE
RDI
   48    50     1     0     0
SMALL
bcc


@<TRIPOS>ATOM
      1 C1          0.1260   -0.9920   -1.3690 c         1 RDI      0.640100
      2 C2         -1.1560   -1.0150   -0.5770 c3        1 RDI     -0.248700
      3 C3         -2.3600   -1.3250   -1.4400 c         1 RDI      0.581100
      4 C4         -3.7040   -1.1050   -0.8070 c3        1 RDI     -0.289400
      5 C5         -3.7840    0.1130    0.0610 c         1 RDI      0.573100
      6 C6         -2.6000    0.3680    0.9670 c3        1 RDI     -0.063300
      7 C7         -1.2850    0.2990    0.2010 c3        1 RDI     -0.042700
      8 C8         -1.1380    1.5450   -0.6700 c3        1 RDI     -0.202400
      9 C9         -0.5270    2.6730    0.1280 c         1 RDI      0.568100
     10 C10         0.8860    3.0510   -0.2180 c3        1 RDI     -0.180400
     11 C11         1.8670    2.0190    0.3030 c3        1 RDI     -0.082400
     12 C12         3.2820    2.3320   -0.1370 c3        1 RDI     -0.072400
     13 C13         4.2790    1.3130    0.3780 c3        1 RDI     -0.075400
     14 C14         4.0360   -0.0520   -0.1900 cx        1 RDI      0.076100
     15 C15         3.8520   -1.2450    0.6910 cx        1 RDI      0.058100
     16 C16         3.0470   -2.4240    0.2310 c3        1 RDI     -0.076400
     17 C17         1.5420   -2.1310    0.2890 c3        1 RDI      0.161100
     18 C18         1.1540   -1.5910    1.6510 c3        1 RDI     -0.139100
     19 O1          1.3430   -1.1680   -0.7590 os        1 RDI     -0.444900
     20 O2          0.2510   -0.6820   -2.5520 o         1 RDI     -0.451000
     21 O3         -2.2610   -1.8150   -2.5640 o         1 RDI     -0.474100
     22 O4         -4.7600    0.8620    0.0550 o         1 RDI     -0.479100
     23 CL1        -2.6400   -0.7930    2.2950 cl        1 RDI     -0.161400
     24 O5         -1.1660    3.2510    1.0130 o         1 RDI     -0.525100
     25 O6          5.0900   -1.0140   -0.0010 os        1 RDI     -0.401600
     26 H2         -1.1010   -1.8610    0.1730 hc        1 RDI      0.104700
     27 H41        -3.9410   -2.0050   -0.1710 hc        1 RDI      0.112700
     28 H42        -4.4900   -1.0490   -1.6120 hc        1 RDI      0.112700
     29 H6         -2.6930    1.3850    1.4480 h1        1 RDI      0.138700
     30 H7         -0.4390    0.3080    0.9520 hc        1 RDI      0.087700
     31 H81        -2.1430    1.8740   -1.0500 hc        1 RDI      0.089200
     32 H82        -0.4970    1.3280   -1.5650 hc        1 RDI      0.089200
     33 H101        1.1210    4.0550    0.2260 hc        1 RDI      0.073200
     34 H102        0.9790    3.1390   -1.3330 hc        1 RDI      0.073200
     35 H111        1.5810    1.0000   -0.0790 hc        1 RDI      0.051700
     36 H112        1.8170    1.9870    1.4230 hc        1 RDI      0.051700
     37 H121        3.5750    3.3470    0.2410 hc        1 RDI      0.048700
     38 H122        3.3250    2.3670   -1.2580 hc        1 RDI      0.048700
     39 H131        4.2390    1.2750    1.4990 hc        1 RDI      0.056700
     40 H132        5.3160    1.6380    0.0930 hc        1 RDI      0.056700
     41 H14         3.5910   -0.0700   -1.2080 h1        1 RDI      0.109700
     42 H15         3.9310   -1.1370    1.7920 h1        1 RDI      0.084700
     43 H161        3.2590   -3.3090    0.8850 hc        1 RDI      0.074200
     44 H162        3.3290   -2.6900   -0.8230 hc        1 RDI      0.074200
     45 H17         0.9620   -3.0630    0.0490 h1        1 RDI      0.052700
     46 H181        1.4730   -0.5230    1.7500 hc        1 RDI      0.053700
     47 H182        0.0540   -1.6580    1.8270 hc        1 RDI      0.053700
     48 H183        1.6670   -2.1890    2.4440 hc        1 RDI      0.053700
@<TRIPOS>BOND
     1    1    2 1   
     2    1   19 1   
     3    1   20 2   
     4    2    3 1   
     5    2    7 1   
     6    2   26 1   
     7    3    4 1   
     8    3   21 2   
     9    4    5 1   
    10    4   27 1   
    11    4   28 1   
    12    5    6 1   
    13    5   22 2   
    14    6    7 1   
    15    6   23 1   
    16    6   29 1   
    17    7    8 1   
    18    7   30 1   
    19    8    9 1   
    20    8   31 1   
    21    8   32 1   
    22    9   10 1   
    23    9   24 2   
    24   10   11 1   
    25   10   33 1   
    26   10   34 1   
    27   11   12 1   
    28   11   35 1   
    29   11   36 1   
    30   12   13 1   
    31   12   37 1   
    32   12   38 1   
    33   13   14 1   
    34   13   39 1   
    35   13   40 1   
    36   14   15 1   
    37   14   25 1   
    38   14   41 1   
    39   15   16 1   
    40   15   25 1   
    41   15   42 1   
    42   16   17 1   
    43   16   43 1   
    44   16   44 1   
    45   17   18 1   
    46   17   19 1   
    47   17   45 1   
    48   18   46 1   
    49   18   47 1   
    50   18   48 1   
@<TRIPOS>SUBSTRUCTURE
     1 RDI         1 TEMP              0 ****  ****    0 ROOT
