@<TRIPOS>MOLECULE
RDI
   48    50     1     0     0
SMALL
bcc


@<TRIPOS>ATOM
      1 C1         -0.0800   -0.0060   -0.2810 c         1 RDI      0.640100
      2 C2          1.4230   -0.0300   -0.1770 c3        1 RDI     -0.248700
      3 C3          2.0330   -1.1910   -0.9310 c         1 RDI      0.581100
      4 C4          3.4870   -1.4610   -0.6700 c3        1 RDI     -0.289400
      5 C5          3.8980   -1.2880    0.7590 c         1 RDI      0.573100
      6 C6          3.3320   -0.0830    1.4770 c3        1 RDI     -0.063300
      7 C7          1.8220    0.0130    1.3020 c3        1 RDI     -0.042700
      8 C8          1.1430   -1.0590    2.1520 c3        1 RDI     -0.202400
      9 C9          0.9360   -0.5570    3.5620 c         1 RDI      0.568100
     10 C10        -0.4810   -0.2550    3.9660 c3        1 RDI     -0.180400
     11 C11        -0.9620    1.0340    3.3300 c3        1 RDI     -0.082400
     12 C12        -2.4220    1.2900    3.6390 c3        1 RDI     -0.072400
     13 C13        -2.9220    2.5780    3.0160 c3        1 RDI     -0.075400
     14 C14        -2.8910    2.5290    1.5180 cx        1 RDI      0.076100
     15 C15        -2.1800    3.5710    0.7160 cx        1 RDI      0.058100
     16 C16        -1.6290    3.2520   -0.6430 c3        1 RDI     -0.076400
     17 C17        -0.3400    2.4260   -0.5430 c3        1 RDI      0.161100
     18 C18         0.6460    3.0840    0.4020 c3        1 RDI     -0.139100
     19 O1         -0.7910    1.1490   -0.0640 os        1 RDI     -0.444900
     20 O2         -0.8220   -0.9780   -0.4100 o         1 RDI     -0.451000
     21 O3          1.4130   -1.8280   -1.7810 o         1 RDI     -0.474100
     22 O4          4.6640   -2.0680    1.3230 o         1 RDI     -0.479100
     23 CL1         4.1470    1.3660    0.8860 cl        1 RDI     -0.161400
     24 O5          1.8870   -0.4110    4.3360 o         1 RDI     -0.525100
     25 O6         -3.6120    3.5710    0.8350 os        1 RDI     -0.401600
     26 H2          1.8330    0.8990   -0.6760 hc        1 RDI      0.104700
     27 H41         3.7390   -2.5040   -1.0130 hc        1 RDI      0.112700
     28 H42         4.0930   -0.7480   -1.2980 hc        1 RDI      0.112700
     29 H6          3.5720   -0.1410    2.5780 h1        1 RDI      0.138700
     30 H7          1.4850    1.0200    1.6930 hc        1 RDI      0.087700
     31 H81         1.7770   -1.9860    2.1880 hc        1 RDI      0.089200
     32 H82         0.1530   -1.3490    1.7080 hc        1 RDI      0.089200
     33 H101       -1.1400   -1.1070    3.6520 hc        1 RDI      0.073200
     34 H102       -0.5380   -0.1710    5.0840 hc        1 RDI      0.073200
     35 H111       -0.3410    1.8910    3.7030 hc        1 RDI      0.051700
     36 H112       -0.8280    0.9790    2.2150 hc        1 RDI      0.051700
     37 H121       -2.5640    1.3490    4.7510 hc        1 RDI      0.048700
     38 H122       -3.0390    0.4290    3.2680 hc        1 RDI      0.048700
     39 H131       -2.3080    3.4410    3.3840 hc        1 RDI      0.056700
     40 H132       -3.9820    2.7580    3.3450 hc        1 RDI      0.056700
     41 H14        -3.0340    1.5210    1.0730 h1        1 RDI      0.109700
     42 H15        -1.6910    4.4240    1.2270 h1        1 RDI      0.084700
     43 H161       -2.3890    2.6770   -1.2360 hc        1 RDI      0.074200
     44 H162       -1.3990    4.2000   -1.1930 hc        1 RDI      0.074200
     45 H17         0.1100    2.2990   -1.5650 h1        1 RDI      0.052700
     46 H181        0.3340    2.9190    1.4630 hc        1 RDI      0.053700
     47 H182        1.6810    2.6900    0.2630 hc        1 RDI      0.053700
     48 H183        0.6660    4.1840    0.2060 hc        1 RDI      0.053700
@<TRIPOS>BOND
     1    1    2 1   
     2    1   19 1   
     3    1   20 2   
     4    2    3 1   
     5    2    7 1   
     6    2   26 1   
     7    3    4 1   
     8    3   21 2   
     9    4    5 1   
    10    4   27 1   
    11    4   28 1   
    12    5    6 1   
    13    5   22 2   
    14    6    7 1   
    15    6   23 1   
    16    6   29 1   
    17    7    8 1   
    18    7   30 1   
    19    8    9 1   
    20    8   31 1   
    21    8   32 1   
    22    9   10 1   
    23    9   24 2   
    24   10   11 1   
    25   10   33 1   
    26   10   34 1   
    27   11   12 1   
    28   11   35 1   
    29   11   36 1   
    30   12   13 1   
    31   12   37 1   
    32   12   38 1   
    33   13   14 1   
    34   13   39 1   
    35   13   40 1   
    36   14   15 1   
    37   14   25 1   
    38   14   41 1   
    39   15   16 1   
    40   15   25 1   
    41   15   42 1   
    42   16   17 1   
    43   16   43 1   
    44   16   44 1   
    45   17   18 1   
    46   17   19 1   
    47   17   45 1   
    48   18   46 1   
    49   18   47 1   
    50   18   48 1   
@<TRIPOS>SUBSTRUCTURE
     1 RDI         1 TEMP              0 ****  ****    0 ROOT
