@<TRIPOS>MOLECULE
RDI
   48    50     1     0     0
SMALL
bcc


@<TRIPOS>ATOM
      1 C1         -0.0660   -0.0110   -0.2780 c         1 RDI      0.640100
      2 C2          1.4370   -0.0350   -0.1610 c3        1 RDI     -0.248700
      3 C3          2.0540   -1.1970   -0.9080 c         1 RDI      0.581100
      4 C4          3.5050   -1.4680   -0.6340 c3        1 RDI     -0.289400
      5 C5          3.9030   -1.2920    0.7990 c         1 RDI      0.573100
      6 C6          3.3300   -0.0870    1.5110 c3        1 RDI     -0.063300
      7 C7          1.8220    0.0090    1.3220 c3        1 RDI     -0.042700
      8 C8          1.1350   -1.0620    2.1670 c3        1 RDI     -0.202400
      9 C9          0.9150   -0.5580    3.5740 c         1 RDI      0.568100
     10 C10        -0.5050   -0.2550    3.9640 c3        1 RDI     -0.180400
     11 C11        -0.9810    1.0340    3.3230 c3        1 RDI     -0.082400
     12 C12        -2.4440    1.2900    3.6180 c3        1 RDI     -0.072400
     13 C13        -2.9380    2.5770    2.9880 c3        1 RDI     -0.075400
     14 C14        -2.8920    2.5270    1.4900 cx        1 RDI      0.076100
     15 C15        -2.1740    3.5670    0.6940 cx        1 RDI      0.058100
     16 C16        -1.6100    3.2470   -0.6590 c3        1 RDI     -0.076400
     17 C17        -0.3220    2.4210   -0.5460 c3        1 RDI      0.161100
     18 C18         0.6550    3.0800    0.4070 c3        1 RDI     -0.139100
     19 O1         -0.7780    1.1440   -0.0700 os        1 RDI     -0.444900
     20 O2         -0.8060   -0.9830   -0.4140 o         1 RDI     -0.451000
     21 O3          1.4400   -1.8350   -1.7620 o         1 RDI     -0.474100
     22 O4          4.6630   -2.0720    1.3720 o         1 RDI     -0.479100
     23 Cl1         4.1510    1.3610    0.9250 cl        1 RDI     -0.161400
     24 O5          1.8590   -0.4100    4.3560 o         1 RDI     -0.525100
     25 O6         -3.6070    3.5690    0.8000 os        1 RDI     -0.401600
     26 H2          1.8520    0.8930   -0.6570 hc        1 RDI      0.104700
     27 H41         3.7600   -2.5110   -0.9730 hc        1 RDI      0.112700
     28 H42         4.1170   -0.7550   -1.2560 hc        1 RDI      0.112700
     29 H6          3.5600   -0.1430    2.6140 h1        1 RDI      0.138700
     30 H7          1.4820    1.0180    1.7090 hc        1 RDI      0.087700
     31 H81         0.1490   -1.3510    1.7140 hc        1 RDI      0.089200
     32 H82         1.7690   -1.9880    2.2100 hc        1 RDI      0.089200
     33 H101       -1.1620   -1.1070    3.6450 hc        1 RDI      0.073200
     34 H102       -0.5730   -0.1690    5.0820 hc        1 RDI      0.073200
     35 H111       -0.8360    0.9770    2.2080 hc        1 RDI      0.051700
     36 H112       -0.3630    1.8910    3.7000 hc        1 RDI      0.051700
     37 H121       -3.0570    0.4290    3.2420 hc        1 RDI      0.048700
     38 H122       -2.5960    1.3500    4.7280 hc        1 RDI      0.048700
     39 H131       -2.3270    3.4410    3.3610 hc        1 RDI      0.056700
     40 H132       -4.0000    2.7580    3.3070 hc        1 RDI      0.056700
     41 H14        -3.0310    1.5180    1.0460 h1        1 RDI      0.109700
     42 H15        -1.6890    4.4210    1.2090 h1        1 RDI      0.084700
     43 H161       -1.3750    4.1950   -1.2080 hc        1 RDI      0.074200
     44 H162       -2.3650    2.6720   -1.2580 hc        1 RDI      0.074200
     45 H17         0.1380    2.2920   -1.5640 h1        1 RDI      0.052700
     46 H181        0.6770    4.1790    0.2100 hc        1 RDI      0.053700
     47 H182        1.6910    2.6860    0.2790 hc        1 RDI      0.053700
     48 H183        0.3330    2.9160    1.4660 hc        1 RDI      0.053700
@<TRIPOS>BOND
     1    1    2 1   
     2    1   19 1   
     3    1   20 2   
     4    2    3 1   
     5    2    7 1   
     6    2   26 1   
     7    3    4 1   
     8    3   21 2   
     9    4    5 1   
    10    4   27 1   
    11    4   28 1   
    12    5    6 1   
    13    5   22 2   
    14    6    7 1   
    15    6   23 1   
    16    6   29 1   
    17    7    8 1   
    18    7   30 1   
    19    8    9 1   
    20    8   31 1   
    21    8   32 1   
    22    9   10 1   
    23    9   24 2   
    24   10   11 1   
    25   10   33 1   
    26   10   34 1   
    27   11   12 1   
    28   11   35 1   
    29   11   36 1   
    30   12   13 1   
    31   12   37 1   
    32   12   38 1   
    33   13   14 1   
    34   13   39 1   
    35   13   40 1   
    36   14   15 1   
    37   14   25 1   
    38   14   41 1   
    39   15   16 1   
    40   15   25 1   
    41   15   42 1   
    42   16   17 1   
    43   16   43 1   
    44   16   44 1   
    45   17   18 1   
    46   17   19 1   
    47   17   45 1   
    48   18   46 1   
    49   18   47 1   
    50   18   48 1   
@<TRIPOS>SUBSTRUCTURE
     1 RDI         1 TEMP              0 ****  ****    0 ROOT
