@<TRIPOS>MOLECULE
RDL
   37    34     1     0     0
SMALL
bcc


@<TRIPOS>ATOM
      1 O15        -4.5100   -1.3070   -3.2580 oh        1 RDL     -0.606800
      2 C15        -3.2540   -0.6790   -3.3020 c3        1 RDL      0.090400
      3 C14        -2.8570   -0.2300   -1.9000 c3        1 RDL      0.107100
      4 O14        -3.2400   -1.2200   -0.9580 oh        1 RDL     -0.620800
      5 C13        -1.3620   -0.0320   -1.8420 c3        1 RDL      0.109100
      6 O13        -0.9650    0.8480   -2.8700 oh        1 RDL     -0.590800
      7 C12        -0.9830    0.5480   -0.5190 c3        1 RDL      0.145100
      8 O12        -1.3090   -0.3590    0.5020 oh        1 RDL     -0.633800
      9 C11         0.5360    0.8240   -0.4960 c3        1 RDL      0.080000
     10 N9          0.9870    0.9260    0.8710 n         1 RDL     -0.371400
     11 C8          0.5600    1.9390    1.6460 c2        1 RDL      0.624300
     12 O8         -0.2790    2.7200    1.2240 o         1 RDL     -0.535300
     13 C7          1.0680    2.0970    2.9120 c1        1 RDL      0.524500
     14 O7          0.7440    3.0770    3.5880 o         1 RDL     -0.529500
     15 C10         1.9260    0.0560    1.3430 c1        1 RDL      0.427400
     16 C5          2.4260    0.2140    2.5950 c1        1 RDL      0.041400
     17 N6          1.9930    1.2380    3.3780 n2        1 RDL     -0.734800
     18 C4          3.4230   -0.6330    3.0530 c1        1 RDL      0.605500
     19 O4          3.7990   -0.5580    4.2170 o         1 RDL     -0.571500
     20 N3          3.8920   -1.6010    2.2660 n2        1 RDL     -0.821800
     21 C2          3.3880   -1.7640    0.9990 c1        1 RDL      0.856900
     22 N1          2.4070   -0.9350    0.5420 n2        1 RDL     -0.767800
     23 O2          3.8120   -2.6340    0.2960 o         1 RDL     -0.582500
     24 H15O       -4.7330   -1.5870   -4.0800 ho        1 RDL      0.416000
     25 H151       -3.2990    0.1010   -3.8960 h1        1 RDL      0.035700
     26 H152       -2.5820   -1.3140   -3.6450 h1        1 RDL      0.035700
     27 H141       -3.2970    0.5970   -1.6910 h1        1 RDL      0.072700
     28 H14O       -4.0290   -1.0160   -0.6210 ho        1 RDL      0.438000
     29 H131       -0.9250   -0.8720   -1.9570 h1        1 RDL      0.057700
     30 H13O       -0.4700    0.4120   -3.4540 ho        1 RDL      0.409000
     31 H121       -1.4670    1.3830   -0.3800 h1        1 RDL      0.074700
     32 H12O       -2.0830   -0.1280    0.8680 ho        1 RDL      0.444000
     33 H111        0.7220    1.6640   -0.9650 h1        1 RDL      0.095700
     34 H112        1.0140    0.0810   -0.9480 h1        1 RDL      0.095700
     35 HN6         2.3360    1.3450    4.2330 hn        1 RDL      0.523400
     36 HN3         4.5470   -2.1540    2.5690 hn        1 RDL      0.520400
     37 HN1         2.0650   -1.0470   -0.3190 hn        1 RDL      0.536400
@<TRIPOS>BOND
     1    1    2 1   
     2    1   24 1   
     3    2    3 1   
     4    2   25 1   
     5    2   26 1   
     6    3    4 1   
     7    3    5 1   
     8    3   27 1   
     9    4   28 1   
    10    5    6 1   
    11    5    7 1   
    12    5   29 1   
    13    6   30 1   
    14    7    8 1   
    15    7    9 1   
    16    7   31 1   
    17    8   32 1   
    18    9   10 1   
    19    9   33 1   
    20    9   34 1   
    21   10   11 1   
    22   10   15 2   
    23   11   12 1   
    24   11   13 2   
    25   13   14 2   
    26   15   22 2   
    27   16   17 2   
    28   16   18 2   
    29   17   35 1   
    30   18   19 2   
    31   20   21 2   
    32   20   36 1   
    33   21   23 2   
    34   22   37 1   
@<TRIPOS>SUBSTRUCTURE
     1 RDL         1 TEMP              0 ****  ****    0 ROOT
