@<TRIPOS>MOLECULE
RDL
   37    38     1     0     0
SMALL
bcc


@<TRIPOS>ATOM
      1 O15         0.2350    1.0160    0.3700 oh        1 RDL     -0.607800
      2 C15         1.5500    0.5100    0.2140 c3        1 RDL      0.089400
      3 C14         2.1630    0.5000    1.6210 c3        1 RDL      0.107100
      4 O14         1.4250   -0.3550    2.4750 oh        1 RDL     -0.615800
      5 C13         3.6160   -0.0140    1.5670 c3        1 RDL      0.104100
      6 O13         4.4820    1.0730    1.2710 oh        1 RDL     -0.619800
      7 C12         4.0640   -0.6020    2.9230 c3        1 RDL      0.145100
      8 O12         3.6060   -1.9380    3.0260 oh        1 RDL     -0.593800
      9 C11         5.6060   -0.7030    3.0130 c3        1 RDL      0.065000
     10 N9          6.1550   -0.3660    4.3120 n         1 RDL     -0.377000
     11 C8          6.7070   -1.3850    5.1160 c         1 RDL      0.639500
     12 O8          6.8160   -2.5370    4.6850 o         1 RDL     -0.532500
     13 C7          7.1880   -1.0360    6.5220 c         1 RDL      0.633500
     14 O7          7.6400   -1.9140    7.2710 o         1 RDL     -0.568500
     15 C10         6.1110    0.9580    4.7950 cc        1 RDL      0.203200
     16 C5          6.5870    1.2650    6.0750 cd        1 RDL     -0.191600
     17 N6          7.0930    0.2770    6.9250 ns        1 RDL     -0.428100
     18 C4          6.5710    2.6550    6.5790 c         1 RDL      0.732700
     19 O4          6.9840    2.9950    7.7020 o         1 RDL     -0.611500
     20 N3          6.0540    3.6260    5.7150 ns        1 RDL     -0.576500
     21 C2          5.5700    3.3230    4.4360 c         1 RDL      0.815500
     22 N1          5.6010    1.9880    3.9950 ns        1 RDL     -0.476100
     23 O2          5.1090    4.2080    3.6840 o         1 RDL     -0.630500
     24 H15O       -0.1930    0.9570   -0.4920 ho        1 RDL      0.417000
     25 H151        1.5200   -0.5300   -0.2070 h1        1 RDL      0.037700
     26 H152        2.1450    1.1750   -0.4650 h1        1 RDL      0.037700
     27 H141        2.1480    1.5460    2.0430 h1        1 RDL      0.067700
     28 H14O        0.4960   -0.0940    2.3980 ho        1 RDL      0.439000
     29 H131        3.7160   -0.8060    0.7730 h1        1 RDL      0.066700
     30 H13O        4.1540    1.5010    0.4710 ho        1 RDL      0.421000
     31 H121        3.6260    0.0260    3.7470 h1        1 RDL      0.059700
     32 H12O        2.6500   -1.9150    3.1670 ho        1 RDL      0.432000
     33 H111        5.8880   -1.7770    2.7840 h1        1 RDL      0.102200
     34 H112        6.0880   -0.0500    2.2320 h1        1 RDL      0.102200
     35 HN6         7.4140    0.5580    7.8290 hn        1 RDL      0.364500
     36 HN3         6.0220    4.5800    6.0060 hn        1 RDL      0.363500
     37 HN1         5.2620    1.8120    3.0680 hn        1 RDL      0.382500
@<TRIPOS>BOND
     1    1    2 1   
     2    1   24 1   
     3    2    3 1   
     4    2   25 1   
     5    2   26 1   
     6    3    4 1   
     7    3    5 1   
     8    3   27 1   
     9    4   28 1   
    10    5    6 1   
    11    5    7 1   
    12    5   29 1   
    13    6   30 1   
    14    7    8 1   
    15    7    9 1   
    16    7   31 1   
    17    8   32 1   
    18    9   10 1   
    19    9   33 1   
    20    9   34 1   
    21   10   11 1   
    22   10   15 1   
    23   11   12 2   
    24   11   13 1   
    25   13   14 2   
    26   13   17 1   
    27   15   16 2   
    28   15   22 1   
    29   16   17 1   
    30   16   18 1   
    31   17   35 1   
    32   18   19 2   
    33   18   20 1   
    34   20   21 1   
    35   20   36 1   
    36   21   22 1   
    37   21   23 2   
    38   22   37 1   
@<TRIPOS>SUBSTRUCTURE
     1 RDL         1 TEMP              0 ****  ****    0 ROOT
