@<TRIPOS>MOLECULE
RDL
   37    38     1     0     0
SMALL
bcc


@<TRIPOS>ATOM
      1 O15         0.2220    1.0100    0.3880 oh        1 RDL     -0.607800
      2 C15         1.5350    0.5030    0.2290 c3        1 RDL      0.089400
      3 C14         2.1550    0.4960    1.6320 c3        1 RDL      0.107100
      4 O14         1.4190   -0.3560    2.4920 oh        1 RDL     -0.615800
      5 C13         3.6060   -0.0190    1.5730 c3        1 RDL      0.104100
      6 O13         4.4730    1.0660    1.2700 oh        1 RDL     -0.619800
      7 C12         4.0610   -0.6040    2.9290 c3        1 RDL      0.145100
      8 O12         3.6020   -1.9380    3.0380 oh        1 RDL     -0.593800
      9 C11         5.6030   -0.7060    3.0130 c3        1 RDL      0.065000
     10 N9          6.1580   -0.3650    4.3080 n         1 RDL     -0.377000
     11 C8          6.7130   -1.3820    5.1120 c         1 RDL      0.639500
     12 O8          6.8190   -2.5350    4.6840 o         1 RDL     -0.532500
     13 C7          7.2010   -1.0280    6.5150 c         1 RDL      0.633500
     14 O7          7.6550   -1.9050    7.2640 o         1 RDL     -0.568500
     15 C10         6.1170    0.9610    4.7870 cc        1 RDL      0.203200
     16 C5          6.6000    1.2720    6.0640 cd        1 RDL     -0.191600
     17 N6          7.1090    0.2850    6.9140 n         1 RDL     -0.428100
     18 C4          6.5880    2.6640    6.5620 c         1 RDL      0.732700
     19 O4          7.0060    3.0060    7.6820 o         1 RDL     -0.611500
     20 N3          6.0670    3.6320    5.6970 n         1 RDL     -0.576500
     21 C2          5.5770    3.3250    4.4220 c         1 RDL      0.815500
     22 N1          5.6050    1.9880    3.9850 n         1 RDL     -0.476100
     23 O2          5.1140    4.2080    3.6700 o         1 RDL     -0.630500
     24 H15O       -0.2110    0.9500   -0.4710 ho        1 RDL      0.417000
     25 H151        2.1280    1.1650   -0.4560 h1        1 RDL      0.037700
     26 H152        1.5020   -0.5380   -0.1900 h1        1 RDL      0.037700
     27 H141        2.1430    1.5440    2.0510 h1        1 RDL      0.067700
     28 H14O        0.4910   -0.0930    2.4190 ho        1 RDL      0.439000
     29 H131        3.7020   -0.8140    0.7820 h1        1 RDL      0.066700
     30 H13O        4.1410    1.4920    0.4700 ho        1 RDL      0.421000
     31 H121        3.6270    0.0270    3.7530 h1        1 RDL      0.059700
     32 H12O        2.6460   -1.9140    3.1840 ho        1 RDL      0.432000
     33 H111        5.8820   -1.7800    2.7850 h1        1 RDL      0.102200
     34 H112        6.0820   -0.0560    2.2260 h1        1 RDL      0.102200
     35 HN6         7.4340    0.5690    7.8160 hn        1 RDL      0.364500
     36 HN3         6.0370    4.5870    5.9860 hn        1 RDL      0.363500
     37 HN1         5.2610    1.8100    3.0610 hn        1 RDL      0.382500
@<TRIPOS>BOND
     1    1    2 1   
     2    1   24 1   
     3    2    3 1   
     4    2   25 1   
     5    2   26 1   
     6    3    4 1   
     7    3    5 1   
     8    3   27 1   
     9    4   28 1   
    10    5    6 1   
    11    5    7 1   
    12    5   29 1   
    13    6   30 1   
    14    7    8 1   
    15    7    9 1   
    16    7   31 1   
    17    8   32 1   
    18    9   10 1   
    19    9   33 1   
    20    9   34 1   
    21   10   11 1   
    22   10   15 1   
    23   11   12 2   
    24   11   13 1   
    25   13   14 2   
    26   13   17 1   
    27   15   16 2   
    28   15   22 1   
    29   16   17 1   
    30   16   18 1   
    31   17   35 1   
    32   18   19 2   
    33   18   20 1   
    34   20   21 1   
    35   20   36 1   
    36   21   22 1   
    37   21   23 2   
    38   22   37 1   
@<TRIPOS>SUBSTRUCTURE
     1 RDL         1 TEMP              0 ****  ****    0 ROOT
