@<TRIPOS>MOLECULE
RDL
   37    38     1     0     0
SMALL
bcc


@<TRIPOS>ATOM
      1 O15         2.2550   -0.9180    4.4740 oh        1 RDL     -0.595800
      2 C15         1.2520   -0.0430    4.9460 c3        1 RDL      0.088400
      3 C14        -0.0110   -0.1580    4.0850 c3        1 RDL      0.066100
      4 O14        -1.1600    0.2510    4.8040 oh        1 RDL     -0.585800
      5 C13         0.0930    0.6580    2.7830 c3        1 RDL      0.078100
      6 O13         1.4190    0.8670    2.3370 oh        1 RDL     -0.607800
      7 C12        -0.7090   -0.0180    1.6500 c3        1 RDL      0.094100
      8 O12        -1.8630   -0.6750    2.1220 oh        1 RDL     -0.576800
      9 C11        -1.0790    1.0550    0.5980 c3        1 RDL      0.041000
     10 N9         -1.0620    0.5960   -0.7750 n         1 RDL     -0.375000
     11 C8         -2.2810    0.4250   -1.4620 c         1 RDL      0.642500
     12 O8         -3.3500    0.7350   -0.9260 o         1 RDL     -0.540500
     13 C7         -2.2540   -0.1250   -2.8850 c         1 RDL      0.635500
     14 O7         -3.3070   -0.3040   -3.5130 o         1 RDL     -0.565500
     15 C10         0.1550    0.2710   -1.4110 cc        1 RDL      0.199200
     16 C5          0.1600   -0.2110   -2.7240 cd        1 RDL     -0.185600
     17 N6         -1.0260   -0.4150   -3.4360 n         1 RDL     -0.428100
     18 C4          1.4320   -0.5250   -3.4120 c         1 RDL      0.732700
     19 O4          1.5050   -0.9480   -4.5790 o         1 RDL     -0.608500
     20 N3          2.6040   -0.3250   -2.6770 n         1 RDL     -0.576500
     21 C2          2.6030    0.1460   -1.3580 c         1 RDL      0.814500
     22 N1          1.3730    0.4370   -0.7390 n         1 RDL     -0.480100
     23 O2          3.6640    0.3060   -0.7210 o         1 RDL     -0.622500
     24 H15O        1.9910   -1.8170    4.7060 ho        1 RDL      0.409000
     25 H151        0.9950   -0.2590    6.0170 h1        1 RDL      0.068700
     26 H152        1.7050    0.9820    4.8620 h1        1 RDL      0.068700
     27 H141       -0.2150   -1.2410    3.8380 h1        1 RDL      0.101700
     28 H14O       -0.9810    1.1270    5.1700 ho        1 RDL      0.405000
     29 H131       -0.3090    1.6960    2.9700 h1        1 RDL      0.074700
     30 H13O        1.9390    0.0710    2.5280 ho        1 RDL      0.438000
     31 H121       -0.0900   -0.8480    1.2020 h1        1 RDL      0.086700
     32 H12O       -2.3180   -0.0840    2.7380 ho        1 RDL      0.420000
     33 H111       -2.1230    1.4230    0.8290 h1        1 RDL      0.087200
     34 H112       -0.3770    1.9330    0.6940 h1        1 RDL      0.087200
     35 HN6        -0.9560   -0.7640   -4.3700 hn        1 RDL      0.366500
     36 HN3         3.4890   -0.5220   -3.0960 hn        1 RDL      0.364500
     37 HN1         1.4130    0.7950    0.1980 hn        1 RDL      0.379500
@<TRIPOS>BOND
     1    1    2 1   
     2    1   24 1   
     3    2    3 1   
     4    2   25 1   
     5    2   26 1   
     6    3    4 1   
     7    3    5 1   
     8    3   27 1   
     9    4   28 1   
    10    5    6 1   
    11    5    7 1   
    12    5   29 1   
    13    6   30 1   
    14    7    8 1   
    15    7    9 1   
    16    7   31 1   
    17    8   32 1   
    18    9   10 1   
    19    9   33 1   
    20    9   34 1   
    21   10   11 1   
    22   10   15 1   
    23   11   12 2   
    24   11   13 1   
    25   13   14 2   
    26   13   17 1   
    27   15   16 2   
    28   15   22 1   
    29   16   17 1   
    30   16   18 1   
    31   17   35 1   
    32   18   19 2   
    33   18   20 1   
    34   20   21 1   
    35   20   36 1   
    36   21   22 1   
    37   21   23 2   
    38   22   37 1   
@<TRIPOS>SUBSTRUCTURE
     1 RDL         1 TEMP              0 ****  ****    0 ROOT
