@<TRIPOS>MOLECULE
RDP
   23    23     1     0     0
SMALL
bcc


@<TRIPOS>ATOM
      1 O1P        -2.7440    0.4800   -0.6660 o         1 RDP     -0.911833
      2 P          -2.3610   -0.2840    0.5690 p5        1 RDP      1.318900
      3 O2P        -2.2630   -1.7800    0.3850 o         1 RDP     -0.911833
      4 O3P        -2.8600    0.2170    1.8860 o         1 RDP     -0.911833
      5 O1'        -0.6220   -0.0150    0.6260 os        1 RDP     -0.551200
      6 C1'        -0.0230    0.0670   -0.5780 c3        1 RDP      0.373900
      7 C2'         0.8530   -1.1940   -0.8930 c3        1 RDP      0.080100
      8 O2'         0.3970   -2.3780   -0.3040 oh        1 RDP     -0.674800
      9 C3'         2.2570   -0.8440   -0.3370 c3        1 RDP      0.111100
     10 O3'         2.6050   -1.5920    0.8090 oh        1 RDP     -0.633800
     11 C4'         2.1830    0.6630   -0.0020 c3        1 RDP      0.085100
     12 O4'         0.9380    1.1570   -0.4800 os        1 RDP     -0.482600
     13 C5'         3.2870    1.4620   -0.6910 c3        1 RDP      0.137400
     14 O5'         3.1380    2.8590   -0.5000 oh        1 RDP     -0.644800
     15 H1'        -0.7250    0.3520   -1.4110 h2        1 RDP      0.106700
     16 H2'         0.9190   -1.3530   -2.0020 h1        1 RDP      0.009700
     17 HO2'       -0.5100   -2.1990    0.0850 ho        1 RDP      0.509000
     18 H3'         3.0660   -1.0560   -1.0850 h1        1 RDP      0.024700
     19 HO3'        1.7720   -1.8490    1.2380 ho        1 RDP      0.439000
     20 H4'         2.2280    0.8170    1.1100 h1        1 RDP      0.057700
     21 H5'1        3.2910    1.2520   -1.7950 h1        1 RDP      0.017700
     22 H5'2        4.2870    1.2030   -0.2570 h1        1 RDP      0.017700
     23 HO5'        2.1870    3.0390   -0.4820 ho        1 RDP      0.432000
@<TRIPOS>BOND
     1    1    2 1   
     2    2    3 1   
     3    2    4 1   
     4    2    5 1   
     5    5    6 1   
     6    6    7 1   
     7    6   12 1   
     8    6   15 1   
     9    7    8 1   
    10    7    9 1   
    11    7   16 1   
    12    8   17 1   
    13    9   10 1   
    14    9   11 1   
    15    9   18 1   
    16   10   19 1   
    17   11   12 1   
    18   11   13 1   
    19   11   20 1   
    20   13   14 1   
    21   13   21 1   
    22   13   22 1   
    23   14   23 1   
@<TRIPOS>SUBSTRUCTURE
     1 RDP         1 TEMP              0 ****  ****    0 ROOT
