@<TRIPOS>MOLECULE
RDR
   54    58     1     0     0
SMALL
bcc


@<TRIPOS>ATOM
      1 O15         4.1510   -0.2430   -6.7580 oh        1 RDR     -0.599800
      2 C10         2.9030   -0.6610   -6.2300 c3        1 RDR      0.106400
      3 C6          2.0270    0.6060   -6.2120 c3        1 RDR      0.036300
      4 N2          0.7270    0.4110   -5.6500 na        1 RDR     -0.071400
      5 C5         -0.4110   -0.0020   -6.3490 ca        1 RDR     -0.014200
      6 C7         -1.4980   -0.1390   -5.4020 ca        1 RDR     -0.216100
      7 C11        -2.7560   -0.5290   -5.8940 ca        1 RDR      0.448200
      8 N16        -2.9750   -0.7750   -7.1910 nb        1 RDR     -0.687000
      9 C14        -1.9400   -0.6390   -8.0590 ca        1 RDR      0.402200
     10 C9         -0.6410   -0.2570   -7.7110 ca        1 RDR     -0.259300
     11 C3         -0.9610    0.1910   -4.1060 cc        1 RDR     -0.152200
     12 C1          0.3860    0.5060   -4.2800 cd        1 RDR     -0.091300
     13 C4          1.3910    0.9400   -3.2560 c3        1 RDR      0.148200
     14 N8          1.0420    0.6510   -1.8870 n         1 RDR     -0.461800
     15 C12         0.5240    1.6460   -1.0670 c         1 RDR      0.692500
     16 O18         0.4920    2.8370   -1.4300 o         1 RDR     -0.626500
     17 C17         0.0740    1.2990    0.3560 c3        1 RDR      0.153800
     18 N20        -0.1180   -0.0950    0.6360 n3        1 RDR     -0.812500
     19 C19         0.8330   -0.9690    0.0060 c3        1 RDR      0.208800
     20 C13         0.9410   -0.7410   -1.5160 c3        1 RDR      0.078000
     21 S21        -1.3390   -0.6370    1.5820 sy        1 RDR      1.537800
     22 O23        -2.4740    0.1750    1.3940 o         1 RDR     -0.644300
     23 O24        -1.4960   -2.0210    1.3690 o         1 RDR     -0.644300
     24 C22        -0.7710   -0.3790    3.1340 cc        1 RDR     -0.453500
     25 C25        -1.2660    0.6650    3.9030 cd        1 RDR      0.020800
     26 C27        -0.6890    0.7030    5.2070 ca        1 RDR     -0.119800
     27 C28         0.2510   -0.3560    5.3760 ca        1 RDR     -0.074100
     28 S26         0.3480   -1.2800    3.9940 ss        1 RDR      0.221500
     29 C30         0.9340   -0.4980    6.5960 ca        1 RDR     -0.108000
     30 C32         0.6740    0.4050    7.6120 ca        1 RDR      0.050400
     31 CL33        1.4860    0.2580    9.0970 cl        1 RDR     -0.077400
     32 C31        -0.2610    1.4580    7.4500 ca        1 RDR     -0.138000
     33 C29        -0.9380    1.6060    6.2590 ca        1 RDR     -0.057000
     34 H15         4.6820   -1.0400   -6.8700 ho        1 RDR      0.410000
     35 H101        2.4460   -1.4540   -6.8780 h1        1 RDR      0.033200
     36 H102        3.0450   -1.0680   -5.1930 h1        1 RDR      0.033200
     37 H61         2.5640    1.4050   -5.6250 h1        1 RDR      0.077200
     38 H62         1.9110    0.9700   -7.2740 h1        1 RDR      0.077200
     39 H11        -3.6200   -0.6440   -5.2150 h4        1 RDR      0.026100
     40 H14        -2.1890   -0.8560   -9.1140 h4        1 RDR      0.019100
     41 H9          0.1490   -0.1620   -8.4640 ha        1 RDR      0.143000
     42 H3         -1.5200    0.2050   -3.1750 ha        1 RDR      0.164000
     43 H41         2.3790    0.4310   -3.4680 h1        1 RDR      0.078200
     44 H42         1.5380    2.0590   -3.3570 h1        1 RDR      0.078200
     45 H171       -0.8960    1.8550    0.5310 h1        1 RDR      0.086700
     46 H172        0.8660    1.7300    1.0390 h1        1 RDR      0.086700
     47 H191        1.8510   -0.8140    0.4690 h1        1 RDR      0.067700
     48 H192        0.5260   -2.0430    0.1690 h1        1 RDR      0.067700
     49 H131        0.0480   -1.2050   -2.0290 h1        1 RDR      0.056200
     50 H132        1.8640   -1.2760   -1.8790 h1        1 RDR      0.056200
     51 H25        -2.0260    1.3800    3.5600 ha        1 RDR      0.184000
     52 H30         1.6600   -1.3150    6.7310 ha        1 RDR      0.156000
     53 H31        -0.4400    2.1530    8.2850 ha        1 RDR      0.155000
     54 H29        -1.6680    2.4170    6.1180 ha        1 RDR      0.149000
@<TRIPOS>BOND
     1    1    2 1   
     2    1   34 1   
     3    2    3 1   
     4    2   35 1   
     5    2   36 1   
     6    3    4 1   
     7    3   37 1   
     8    3   38 1   
     9    4    5 1   
    10    4   12 1   
    11    5    6 ar  
    12    5   10 ar  
    13    6    7 ar  
    14    6   11 1   
    15    7    8 ar  
    16    7   39 1   
    17    8    9 ar  
    18    9   10 ar  
    19    9   40 1   
    20   10   41 1   
    21   11   12 2   
    22   11   42 1   
    23   12   13 1   
    24   13   14 1   
    25   13   43 1   
    26   13   44 1   
    27   14   15 1   
    28   14   20 1   
    29   15   16 2   
    30   15   17 1   
    31   17   18 1   
    32   17   45 1   
    33   17   46 1   
    34   18   19 1   
    35   18   21 1   
    36   19   20 1   
    37   19   47 1   
    38   19   48 1   
    39   20   49 1   
    40   20   50 1   
    41   21   22 2   
    42   21   23 2   
    43   21   24 1   
    44   24   25 2   
    45   24   28 1   
    46   25   26 1   
    47   25   51 1   
    48   26   27 ar  
    49   26   33 ar  
    50   27   28 1   
    51   27   29 ar  
    52   29   30 ar  
    53   29   52 1   
    54   30   31 1   
    55   30   32 ar  
    56   32   33 ar  
    57   32   53 1   
    58   33   54 1   
@<TRIPOS>SUBSTRUCTURE
     1 RDR         1 TEMP              0 ****  ****    0 ROOT
