@<TRIPOS>MOLECULE
RDT
   37    36     1     0     0
SMALL
bcc


@<TRIPOS>ATOM
      1 CAA        -1.1290    1.8600   -4.3730 c3        1 RDT     -0.072500
      2 CAB         0.8320   -2.3680   -3.8070 c3        1 RDT     -0.072500
      3 CAC         2.1180    0.0950    1.7070 c3        1 RDT     -0.226000
      4 NAD         0.5580   -0.0950    5.0750 n3        1 RDT     -0.953000
      5 OAE         0.6500   -2.3290    3.8440 o         1 RDT     -0.930000
      6 OAF        -1.3420   -1.5140    4.3370 o         1 RDT     -0.930000
      7 CAG        -1.4270    0.9370   -1.4940 c1        1 RDT     -0.132000
      8 CAH         0.8610   -0.7150   -1.2230 c1        1 RDT     -0.136000
      9 CAI        -1.5540    1.2330    1.1340 c3        1 RDT     -0.135000
     10 CAJ        -0.8370    0.9890    2.3350 c3        1 RDT     -0.011000
     11 OAK        -1.3400    0.5730   -3.8560 os        1 RDT     -0.225000
     12 OAL         0.9590   -0.9640   -3.6750 os        1 RDT     -0.225000
     13 CAM        -0.9030    0.6640   -0.2070 c2        1 RDT     -0.050000
     14 CAN        -0.8030    0.3810   -2.6520 c1        1 RDT      0.038500
     15 CAO         0.3270   -0.4350   -2.5180 c1        1 RDT      0.038500
     16 CAP         0.2530   -0.1710   -0.0750 c2        1 RDT     -0.075000
     17 CAQ         0.6990   -0.5850    1.4080 c3        1 RDT      0.076000
     18 NAR        -0.1620   -0.2420    2.4290 n3        1 RDT     -0.834000
     19 SAS        -0.0900   -1.0650    3.9490 s6        1 RDT      2.815000
     20 HAA        -0.1750    1.9260   -4.7420 h1        1 RDT      0.083500
     21 HAAA       -1.8040    2.0420   -5.1310 h1        1 RDT      0.083500
     22 HAAB       -1.2520    2.5240   -3.6600 h1        1 RDT      0.083500
     23 HAB         1.5500   -2.8310   -3.2300 h1        1 RDT      0.083500
     24 HABA        0.9510   -2.6170   -4.7310 h1        1 RDT      0.083500
     25 HABB       -0.1000   -2.6590   -3.4930 h1        1 RDT      0.083500
     26 HAC         2.1120    1.0490    1.3750 hc        1 RDT      0.082333
     27 HACA        2.2920    0.0880    2.7060 hc        1 RDT      0.082333
     28 HACB        2.8020   -0.3870    1.2660 hc        1 RDT      0.082333
     29 HNAD        1.4260   -0.1800    5.2950 hn        1 RDT      0.241000
     30 HNAA        0.0660    0.4430    5.5000 hn        1 RDT      0.241000
     31 HAG        -2.2200    1.5070   -1.5890 ha        1 RDT      0.150000
     32 HAH         1.6210   -1.3280   -1.1300 ha        1 RDT      0.144000
     33 HAI        -1.6520    2.1720    1.0390 hc        1 RDT      0.103500
     34 HAIA       -2.4610    0.8350    1.2300 hc        1 RDT      0.103500
     35 HAJ        -1.5050    1.0300    3.1020 h1        1 RDT      0.092500
     36 HAJA       -0.1430    1.7220    2.4280 h1        1 RDT      0.092500
     37 HAQ         0.8200   -1.5860    1.4260 h1        1 RDT      0.122000
@<TRIPOS>BOND
     1    1   11 1   
     2    1   20 1   
     3    1   21 1   
     4    1   22 1   
     5    2   12 1   
     6    2   23 1   
     7    2   24 1   
     8    2   25 1   
     9    3   17 1   
    10    3   26 1   
    11    3   27 1   
    12    3   28 1   
    13    4   19 1   
    14    4   29 1   
    15    4   30 1   
    16    5   19 1   
    17    6   19 1   
    18    7   13 1   
    19    7   31 1   
    20    8   16 1   
    21    8   32 1   
    22    9   10 1   
    23    9   13 1   
    24    9   33 1   
    25    9   34 1   
    26   10   18 1   
    27   10   35 1   
    28   10   36 1   
    29   11   14 1   
    30   12   15 1   
    31   13   16 1   
    32   14   15 1   
    33   16   17 1   
    34   17   18 1   
    35   17   37 1   
    36   18   19 1   
@<TRIPOS>SUBSTRUCTURE
     1 RDT         1 TEMP              0 ****  ****    0 ROOT
