@<TRIPOS>MOLECULE
RDT
   38    39     1     0     0
SMALL
bcc


@<TRIPOS>ATOM
      1 CAA         0.1670   -0.3100    0.0240 c3        1 RDT      0.103700
      2 CAB         5.5840   -0.3260    0.3650 c3        1 RDT      0.104700
      3 CAC         4.5360    1.7970    5.3180 c3        1 RDT     -0.097100
      4 NAD         2.8150   -2.6930    5.9430 n4        1 RDT     -0.790500
      5 OAE         2.5370   -1.5280    8.2360 o         1 RDT     -0.554800
      6 OAF         4.7610   -1.6920    7.3050 o         1 RDT     -0.554800
      7 CAG         1.3190   -0.0550    2.5840 ca        1 RDT     -0.189000
      8 CAH         4.1210   -0.0760    2.7630 ca        1 RDT     -0.179000
      9 CAI         1.0840    0.3500    5.0230 c3        1 RDT     -0.062100
     10 CAJ         1.8700    0.6380    6.3030 c3        1 RDT      0.191800
     11 OAK         1.5790   -0.4560    0.1780 os        1 RDT     -0.286900
     12 OAL         4.1660   -0.4810    0.3430 os        1 RDT     -0.286900
     13 CAM         1.9440    0.1360    3.8270 ca        1 RDT     -0.094300
     14 CAN         2.0820   -0.2490    1.4360 ca        1 RDT      0.140100
     15 CAO         3.5090   -0.2610    1.5270 ca        1 RDT      0.128100
     16 CAP         3.3370    0.1230    3.9100 ca        1 RDT     -0.156300
     17 CAQ         4.0410    0.3540    5.2250 c3        1 RDT      0.274800
     18 NAR         3.1620   -0.0310    6.3430 n3        1 RDT     -0.813500
     19 SAS         3.4360   -1.2970    7.2070 s6        1 RDT      1.499800
     20 HAA         0.0190   -0.4540   -1.0780 h1        1 RDT      0.057367
     21 HAAA       -0.1620    0.7100    0.3390 h1        1 RDT      0.057367
     22 HAAB       -0.3720   -1.0990    0.6020 h1        1 RDT      0.057367
     23 HAB         6.0530   -1.1110    1.0070 h1        1 RDT      0.056033
     24 HABA        5.8690   -0.4710   -0.7090 h1        1 RDT      0.056033
     25 HABB        5.8670    0.6950    0.7160 h1        1 RDT      0.056033
     26 HAC         5.2750    1.9580    4.4940 hc        1 RDT      0.067700
     27 HACA        3.7010    2.5250    5.1880 hc        1 RDT      0.067700
     28 HACB        5.0380    1.9870    6.2970 hc        1 RDT      0.067700
     29 HNAD        3.5750   -3.3410    5.7540 hn        1 RDT      0.450467
     30 HNAA        2.0510   -3.2170    6.3570 hn        1 RDT      0.450467
     31 HAG         0.2200   -0.0300    2.5260 ha        1 RDT      0.156000
     32 HAH         5.2180   -0.0650    2.8450 ha        1 RDT      0.153000
     33 HAI         0.3970    1.2220    4.8400 hc        1 RDT      0.074700
     34 HAIA        0.4300   -0.5520    5.1730 hc        1 RDT      0.074700
     35 HAJ         1.2630    0.3320    7.2050 h1        1 RDT      0.097200
     36 HAJA        2.0630    1.7490    6.3830 h1        1 RDT      0.097200
     37 HAQ         4.9550   -0.3200    5.2780 h1        1 RDT      0.074700
     38 HAD3        2.4970   -2.3150    5.0540 hn        1 RDT      0.450467
@<TRIPOS>BOND
     1    1   11 1   
     2    1   20 1   
     3    1   21 1   
     4    1   22 1   
     5    2   12 1   
     6    2   23 1   
     7    2   24 1   
     8    2   25 1   
     9    3   17 1   
    10    3   26 1   
    11    3   27 1   
    12    3   28 1   
    13    4   19 1   
    14    4   29 1   
    15    4   30 1   
    16    4   38 1   
    17    5   19 2   
    18    6   19 2   
    19    7   13 ar  
    20    7   14 ar  
    21    7   31 1   
    22    8   15 ar  
    23    8   16 ar  
    24    8   32 1   
    25    9   10 1   
    26    9   13 1   
    27    9   33 1   
    28    9   34 1   
    29   10   18 1   
    30   10   35 1   
    31   10   36 1   
    32   11   14 1   
    33   12   15 1   
    34   13   16 ar  
    35   14   15 ar  
    36   16   17 1   
    37   17   18 1   
    38   17   37 1   
    39   18   19 1   
@<TRIPOS>SUBSTRUCTURE
     1 RDT         1 TEMP              0 ****  ****    0 ROOT
