@<TRIPOS>MOLECULE
RDT
   37    38     1     0     0
SMALL
bcc


@<TRIPOS>ATOM
      1 CAA         4.5250    2.4050   -0.3110 c3        1 RDT      0.109700
      2 CAB         3.5350   -2.9500   -0.4480 c3        1 RDT      0.109700
      3 CAC        -1.0400   -1.5910    1.9450 c3        1 RDT     -0.100100
      4 NAD        -3.0080    0.3090   -1.9460 n3        1 RDT     -1.027700
      5 OAE        -4.4370    0.7660   -0.0020 o         1 RDT     -0.650800
      6 OAF        -3.7220   -1.5060   -0.4540 o         1 RDT     -0.650800
      7 CAG         1.8940    1.5340    0.1260 ca        1 RDT     -0.181000
      8 CAH         1.3860   -1.2200    0.0600 ca        1 RDT     -0.175000
      9 CAI        -0.4970    2.0380    0.5910 c3        1 RDT     -0.052100
     10 CAJ        -1.7820    1.3790    1.0990 c3        1 RDT      0.221800
     11 OAK         4.2450    1.0100   -0.3680 os        1 RDT     -0.302900
     12 OAL         3.7710   -1.5470   -0.4410 os        1 RDT     -0.302900
     13 CAM         0.5950    1.0550    0.3530 ca        1 RDT     -0.063300
     14 CAN         2.9350    0.6470   -0.1310 ca        1 RDT      0.109100
     15 CAO         2.6760   -0.7520   -0.1680 ca        1 RDT      0.105100
     16 CAP         0.3450   -0.3180    0.3260 ca        1 RDT     -0.094300
     17 CAQ        -1.0360   -0.8780    0.5860 c3        1 RDT      0.292800
     18 NAR        -2.0800    0.1220    0.4680 n3        1 RDT     -0.808500
     19 SAS        -3.4180   -0.1180   -0.4480 s6        1 RDT      1.579800
     20 HAA         3.9520    2.9550   -1.0970 h1        1 RDT      0.044367
     21 HAAA        4.2930    2.8150    0.7020 h1        1 RDT      0.044367
     22 HAAB        5.6240    2.4550   -0.5160 h1        1 RDT      0.044367
     23 HAB         2.8060   -3.2240   -1.2500 h1        1 RDT      0.044700
     24 HABA        4.5450   -3.3790   -0.6700 h1        1 RDT      0.044700
     25 HABB        3.1690   -3.2960    0.5490 h1        1 RDT      0.044700
     26 HAC        -0.8510   -0.8720    2.7760 hc        1 RDT      0.047367
     27 HACA       -2.0220   -2.0930    2.1160 hc        1 RDT      0.047367
     28 HACB       -0.2330   -2.3620    1.9490 hc        1 RDT      0.047367
     29 HNAD       -2.6170   -0.3130   -2.6070 hn        1 RDT      0.445800
     30 HNAA       -3.1480    1.2160   -2.3130 hn        1 RDT      0.445800
     31 HAG         2.0760    2.6180    0.1550 ha        1 RDT      0.141000
     32 HAH         1.1700   -2.2980    0.0360 ha        1 RDT      0.143000
     33 HAI        -0.7020    2.5840   -0.3690 hc        1 RDT      0.055200
     34 HAIA       -0.1710    2.8010    1.3460 hc        1 RDT      0.055200
     35 HAJ        -1.6800    1.2100    2.2110 h1        1 RDT      0.061700
     36 HAJA       -2.6500    2.0840    0.9410 h1        1 RDT      0.061700
     37 HAQ        -1.2460   -1.6680   -0.2050 h1        1 RDT      0.062700
@<TRIPOS>BOND
     1    1   11 1   
     2    1   20 1   
     3    1   21 1   
     4    1   22 1   
     5    2   12 1   
     6    2   23 1   
     7    2   24 1   
     8    2   25 1   
     9    3   17 1   
    10    3   26 1   
    11    3   27 1   
    12    3   28 1   
    13    4   19 1   
    14    4   29 1   
    15    4   30 1   
    16    5   19 2   
    17    6   19 2   
    18    7   13 ar  
    19    7   14 ar  
    20    7   31 1   
    21    8   15 ar  
    22    8   16 ar  
    23    8   32 1   
    24    9   10 1   
    25    9   13 1   
    26    9   33 1   
    27    9   34 1   
    28   10   18 1   
    29   10   35 1   
    30   10   36 1   
    31   11   14 1   
    32   12   15 1   
    33   13   16 ar  
    34   14   15 ar  
    35   16   17 1   
    36   17   18 1   
    37   17   37 1   
    38   18   19 1   
@<TRIPOS>SUBSTRUCTURE
     1 RDT         1 TEMP              0 ****  ****    0 ROOT
