@<TRIPOS>MOLECULE
RDT
   38    39     1     0     0
SMALL
bcc


@<TRIPOS>ATOM
      1 CAA         0.1480   -0.3550    0.0390 c3        1 RDT      0.103700
      2 CAB         5.5670   -0.2930    0.3500 c3        1 RDT      0.104700
      3 CAC         4.5160    1.8220    5.3060 c3        1 RDT     -0.097100
      4 NAD         2.8640   -2.6900    5.9470 nz        1 RDT     -0.790500
      5 OAE         2.5820   -1.5260    8.2390 o         1 RDT     -0.554800
      6 OAF         4.8020   -1.6590    7.2960 o         1 RDT     -0.554800
      7 CAG         1.3100   -0.0800    2.5920 ca        1 RDT     -0.189000
      8 CAH         4.1130   -0.0600    2.7550 ca        1 RDT     -0.179000
      9 CAI         1.0830    0.3260    5.0320 c3        1 RDT     -0.062100
     10 CAJ         1.8730    0.6280    6.3080 c3        1 RDT      0.191800
     11 OAK         1.5620   -0.4810    0.1850 os        1 RDT     -0.286900
     12 OAL         4.1510   -0.4690    0.3360 os        1 RDT     -0.286900
     13 CAM         1.9400    0.1220    3.8320 ca        1 RDT     -0.094300
     14 CAN         2.0700   -0.2650    1.4410 ca        1 RDT      0.140100
     15 CAO         3.4970   -0.2560    1.5240 ca        1 RDT      0.128100
     16 CAP         3.3340    0.1290    3.9070 ca        1 RDT     -0.156300
     17 CAQ         4.0410    0.3720    5.2170 c3        1 RDT      0.274800
     18 NAR         3.1740   -0.0230    6.3410 n3        1 RDT     -0.813500
     19 SAS         3.4710   -1.2840    7.2050 s6        1 RDT      1.499800
     20 HAA        -0.0040   -0.5030   -1.0610 h1        1 RDT      0.057367
     21 HAAA       -0.1940    0.6600    0.3540 h1        1 RDT      0.057367
     22 HAAB       -0.3770   -1.1500    0.6220 h1        1 RDT      0.057367
     23 HAB         6.0500   -1.0700    0.9910 h1        1 RDT      0.056033
     24 HABA        5.8370    0.7330    0.6970 h1        1 RDT      0.056033
     25 HABB        5.8480   -0.4360   -0.7260 h1        1 RDT      0.056033
     26 HAC         5.2480    1.9920    4.4770 hc        1 RDT      0.067700
     27 HACA        3.6700    2.5390    5.1800 hc        1 RDT      0.067700
     28 HACB        5.0210    2.0220    6.2810 hc        1 RDT      0.067700
     29 HNAD        2.5350   -2.3190    5.0590 hn        1 RDT      0.450467
     30 HNAA        2.1090   -3.2250    6.3660 hn        1 RDT      0.450467
     31 HAG         0.2110   -0.0700    2.5400 ha        1 RDT      0.156000
     32 HAH         5.2110   -0.0340    2.8320 ha        1 RDT      0.153000
     33 HAI         0.4430   -0.5850    5.1870 hc        1 RDT      0.074700
     34 HAIA        0.3830    1.1880    4.8510 hc        1 RDT      0.074700
     35 HAJ         1.2760    0.3140    7.2130 h1        1 RDT      0.097200
     36 HAJA        2.0500    1.7410    6.3850 h1        1 RDT      0.097200
     37 HAQ         4.9650   -0.2880    5.2670 h1        1 RDT      0.074700
     38 HAD3        3.6310   -3.3280    5.7550 hn        1 RDT      0.450467
@<TRIPOS>BOND
     1    1   11 1   
     2    1   20 1   
     3    1   21 1   
     4    1   22 1   
     5    2   12 1   
     6    2   23 1   
     7    2   24 1   
     8    2   25 1   
     9    3   17 1   
    10    3   26 1   
    11    3   27 1   
    12    3   28 1   
    13    4   19 1   
    14    4   29 1   
    15    4   30 1   
    16    4   38 1   
    17    5   19 2   
    18    6   19 2   
    19    7   13 ar  
    20    7   14 ar  
    21    7   31 1   
    22    8   15 ar  
    23    8   16 ar  
    24    8   32 1   
    25    9   10 1   
    26    9   13 1   
    27    9   33 1   
    28    9   34 1   
    29   10   18 1   
    30   10   35 1   
    31   10   36 1   
    32   11   14 1   
    33   12   15 1   
    34   13   16 ar  
    35   14   15 ar  
    36   16   17 1   
    37   17   18 1   
    38   17   37 1   
    39   18   19 1   
@<TRIPOS>SUBSTRUCTURE
     1 RDT         1 TEMP              0 ****  ****    0 ROOT
