@<TRIPOS>MOLECULE
RDT
   38    39     1     0     0
SMALL
bcc


@<TRIPOS>ATOM
      1 CAA         0.1450   -0.3420    0.0400 c3        1 RDT      0.103700
      2 CAB         5.5640   -0.2980    0.3470 c3        1 RDT      0.104700
      3 CAC         4.5250    1.8140    5.3060 c3        1 RDT     -0.097100
      4 NAD         2.8570   -2.6930    5.9490 n4        1 RDT     -0.790500
      5 OAE         2.5810   -1.5260    8.2410 o         1 RDT     -0.554800
      6 OAF         4.8000   -1.6670    7.2950 o         1 RDT     -0.554800
      7 CAG         1.3100   -0.0730    2.5930 ca        1 RDT     -0.189000
      8 CAH         4.1130   -0.0630    2.7540 ca        1 RDT     -0.179000
      9 CAI         1.0860    0.3300    5.0330 c3        1 RDT     -0.062100
     10 CAJ         1.8770    0.6290    6.3080 c3        1 RDT      0.191800
     11 OAK         1.5590   -0.4720    0.1850 os        1 RDT     -0.286900
     12 OAL         4.1480   -0.4690    0.3350 os        1 RDT     -0.286900
     13 CAM         1.9410    0.1250    3.8320 ca        1 RDT     -0.094300
     14 CAN         2.0680   -0.2590    1.4400 ca        1 RDT      0.140100
     15 CAO         3.4960   -0.2550    1.5220 ca        1 RDT      0.128100
     16 CAP         3.3340    0.1270    3.9060 ca        1 RDT     -0.156300
     17 CAQ         4.0440    0.3660    5.2160 c3        1 RDT      0.274800
     18 NAR         3.1760   -0.0270    6.3400 n3        1 RDT     -0.813500
     19 SAS         3.4700   -1.2880    7.2050 s6        1 RDT      1.499800
     20 HAA        -0.1940    0.6740    0.3570 h1        1 RDT      0.057367
     21 HAAA       -0.3810   -1.1360    0.6220 h1        1 RDT      0.057367
     22 HAAB       -0.0080   -0.4880   -1.0600 h1        1 RDT      0.057367
     23 HAB         5.8380    0.7270    0.6960 h1        1 RDT      0.056033
     24 HABA        5.8440   -0.4400   -0.7290 h1        1 RDT      0.056033
     25 HABB        6.0450   -1.0770    0.9870 h1        1 RDT      0.056033
     26 HAC         5.0320    2.0100    6.2810 hc        1 RDT      0.067700
     27 HACA        3.6820    2.5340    5.1810 hc        1 RDT      0.067700
     28 HACB        5.2570    1.9820    4.4770 hc        1 RDT      0.067700
     29 HNAD        3.6220   -3.3330    5.7560 hn        1 RDT      0.450467
     30 HNAA        2.5270   -2.3210    5.0620 hn        1 RDT      0.450467
     31 HAG         0.2100   -0.0610    2.5420 ha        1 RDT      0.156000
     32 HAH         5.2110   -0.0400    2.8300 ha        1 RDT      0.153000
     33 HAI         0.4440   -0.5800    5.1880 hc        1 RDT      0.074700
     34 HAIA        0.3870    1.1940    4.8540 hc        1 RDT      0.074700
     35 HAJ         1.2790    0.3170    7.2140 h1        1 RDT      0.097200
     36 HAJA        2.0580    1.7410    6.3860 h1        1 RDT      0.097200
     37 HAQ         4.9650   -0.2980    5.2650 h1        1 RDT      0.074700
     38 HAD3        2.1010   -3.2250    6.3700 hn        1 RDT      0.450467
@<TRIPOS>BOND
     1    1   11 1   
     2    1   20 1   
     3    1   21 1   
     4    1   22 1   
     5    2   12 1   
     6    2   23 1   
     7    2   24 1   
     8    2   25 1   
     9    3   17 1   
    10    3   26 1   
    11    3   27 1   
    12    3   28 1   
    13    4   19 1   
    14    4   29 1   
    15    4   30 1   
    16    4   38 1   
    17    5   19 2   
    18    6   19 2   
    19    7   13 ar  
    20    7   14 ar  
    21    7   31 1   
    22    8   15 ar  
    23    8   16 ar  
    24    8   32 1   
    25    9   10 1   
    26    9   13 1   
    27    9   33 1   
    28    9   34 1   
    29   10   18 1   
    30   10   35 1   
    31   10   36 1   
    32   11   14 1   
    33   12   15 1   
    34   13   16 ar  
    35   14   15 ar  
    36   16   17 1   
    37   17   18 1   
    38   17   37 1   
    39   18   19 1   
@<TRIPOS>SUBSTRUCTURE
     1 RDT         1 TEMP              0 ****  ****    0 ROOT
