@<TRIPOS>MOLECULE
RE0
   28    29     1     0     0
SMALL
bcc


@<TRIPOS>ATOM
      1 N           2.7950    0.2650   -1.5490 n3        1 RE0     -0.900800
      2 CA          2.2490    0.1200   -0.2160 c3        1 RE0      0.028500
      3 CB          0.8580   -0.5160   -0.1230 c3        1 RE0     -0.075400
      4 CG         -0.2990    0.2880   -0.7110 c3        1 RE0      0.160100
      5 OG         -0.1470    0.3570   -2.1120 oh        1 RE0     -0.557800
      6 CD1        -0.4180    1.7210   -0.0880 c         1 RE0      0.668500
      7 OD1         0.3510    2.6760   -0.1820 o         1 RE0     -0.557500
      8 NE1        -1.6600    1.8220    0.5920 n         1 RE0     -0.490100
      9 CE2        -2.3560    0.6090    0.5060 ca        1 RE0      0.068600
     10 CZ2        -3.5940    0.2670    1.0480 ca        1 RE0     -0.186000
     11 CH2        -4.1070   -1.0060    0.7650 ca        1 RE0     -0.098000
     12 CZ3        -3.4110   -1.9090   -0.0290 ca        1 RE0     -0.178000
     13 CE3        -2.1580   -1.5730   -0.5680 ca        1 RE0     -0.056000
     14 CD2        -1.6340   -0.3260   -0.3060 ca        1 RE0     -0.180300
     15 C           3.1480   -0.7460    0.7440 c         1 RE0      0.910600
     16 O           3.9370   -1.5870    0.2330 o         1 RE0     -0.837300
     17 HN          3.5030   -0.4360   -1.6900 hn        1 RE0      0.339800
     18 H9          2.1910    1.1590    0.2220 h1        1 RE0      0.061700
     19 H10         0.8640   -1.5130   -0.6380 hc        1 RE0      0.068200
     20 H10A        0.6400   -0.6830    0.9660 hc        1 RE0      0.068200
     21 HOG        -0.8460    0.9320   -2.4490 ho        1 RE0      0.396000
     22 HNE1       -1.8560    2.5040    1.2780 hn        1 RE0      0.324500
     23 H17        -4.1540    0.9660    1.6820 ha        1 RE0      0.129000
     24 H18        -5.0830   -1.2890    1.1880 ha        1 RE0      0.120000
     25 H19        -3.8350   -2.9020   -0.2330 ha        1 RE0      0.125000
     26 H20        -1.5980   -2.2940   -1.1810 ha        1 RE0      0.146000
     27 H2          2.0800    0.1320   -2.2390 hn        1 RE0      0.339800
     28 OXT         2.9860   -0.5610    1.9810 o         1 RE0     -0.837300
@<TRIPOS>BOND
     1    1    2 1   
     2    1   17 1   
     3    1   27 1   
     4    2    3 1   
     5    2   15 1   
     6    2   18 1   
     7    3    4 1   
     8    3   19 1   
     9    3   20 1   
    10    4    5 1   
    11    4    6 1   
    12    4   14 1   
    13    5   21 1   
    14    6    7 2   
    15    6    8 1   
    16    8    9 1   
    17    8   22 1   
    18    9   10 ar  
    19    9   14 ar  
    20   10   11 ar  
    21   10   23 1   
    22   11   12 ar  
    23   11   24 1   
    24   12   13 ar  
    25   12   25 1   
    26   13   14 ar  
    27   13   26 1   
    28   15   16 1   
    29   15   28 1   
@<TRIPOS>SUBSTRUCTURE
     1 RE0         1 TEMP              0 ****  ****    0 ROOT
