@<TRIPOS>MOLECULE
RE2
   31    28     1     0     0
SMALL
bcc


@<TRIPOS>ATOM
      1 C2          1.1000    1.7100   -3.6340 c1        1 RE2      0.114000
      2 C3          2.2630    0.9810   -3.8190 c1        1 RE2     -0.248000
      3 C4          2.7340    0.1520   -2.8090 c1        1 RE2      0.119000
      4 C8         -0.4340   -0.7180    0.1580 c3        1 RE2     -0.114000
      5 C7          0.1320    0.7220   -0.0660 c3        1 RE2     -0.125000
      6 C5          2.0410    0.0510   -1.6130 c2        1 RE2     -0.249000
      7 C6          0.8690    0.7820   -1.4230 c2        1 RE2      0.000000
      8 C1          0.3990    1.6080   -2.4280 c2        1 RE2     -0.189000
      9 O17         3.8310   -0.6250   -3.2570 o         1 RE2     -0.251000
     10 O16         0.5950    2.5070   -4.6800 oh        1 RE2     -0.250000
     11 C9         -1.0900   -0.8000    1.5110 c2        1 RE2     -0.110000
     12 C14        -0.3210   -0.7400    2.6600 c2        1 RE2     -0.095000
     13 C13        -0.9350   -0.8530    3.9280 c1        1 RE2     -0.154000
     14 C12        -2.2840   -1.0200    4.0210 c1        1 RE2      0.077000
     15 O15        -2.9180   -1.0730    5.3230 oh        1 RE2     -0.252000
     16 C11        -3.0750   -1.0820    2.8430 c1        1 RE2     -0.211000
     17 C10        -2.4800   -0.9730    1.6040 c1        1 RE2     -0.086000
     18 H3          2.7190    1.0460   -4.5980 ha        1 RE2      0.152000
     19 H8         -1.0780   -0.9120   -0.5200 hc        1 RE2      0.091500
     20 H8A         0.2940   -1.3660    0.1070 hc        1 RE2      0.091500
     21 H7          0.7430    0.9340    0.6350 hc        1 RE2      0.095500
     22 H7A        -0.5700    1.3360   -0.0620 hc        1 RE2      0.095500
     23 H5          2.3830   -0.5440   -0.8840 ha        1 RE2      0.135000
     24 H1         -0.4490    2.1410   -2.2870 ha        1 RE2      0.153000
     25 HO17        4.2550   -0.9540   -2.5700 ho        1 RE2      0.220000
     26 HO16        1.0910    3.2930   -4.7370 ho        1 RE2      0.221000
     27 H14         0.6660   -0.6150    2.5920 ha        1 RE2      0.133000
     28 H13        -0.3740   -0.8090    4.7650 ha        1 RE2      0.150000
     29 HO15       -3.0110   -1.9600    5.5890 ho        1 RE2      0.218000
     30 H11        -4.0350   -1.2020    2.9100 ha        1 RE2      0.134000
     31 H10        -3.0620   -1.0140    0.7430 ha        1 RE2      0.134000
@<TRIPOS>BOND
     1    1    8 1   
     2    1   10 1   
     3    2    3 1   
     4    2   18 1   
     5    3    6 1   
     6    4    5 1   
     7    4   11 1   
     8    4   19 1   
     9    4   20 1   
    10    5    7 1   
    11    5   21 1   
    12    5   22 1   
    13    6    7 1   
    14    6   23 1   
    15    7    8 1   
    16    8   24 1   
    17    9   25 1   
    18   10   26 1   
    19   11   12 1   
    20   11   17 1   
    21   12   13 1   
    22   12   27 1   
    23   13   28 1   
    24   14   15 1   
    25   14   16 1   
    26   15   29 1   
    27   16   30 1   
    28   17   31 1   
@<TRIPOS>SUBSTRUCTURE
     1 RE2         1 TEMP              0 ****  ****    0 ROOT
