@<TRIPOS>MOLECULE
RE2
   31    32     1     0     0
SMALL
bcc


@<TRIPOS>ATOM
      1 C2          3.5830   -1.1790   -0.1760 ca        1 RE2      0.164100
      2 C3          4.3610   -0.0150   -0.2240 ca        1 RE2     -0.303000
      3 C4          3.7210    1.2140   -0.0140 ca        1 RE2      0.164100
      4 C8         -0.6860   -0.1130   -0.7010 c3        1 RE2     -0.029100
      5 C5          2.3430    1.2890    0.2370 ca        1 RE2     -0.191500
      6 C6          1.5900    0.1120    0.2780 ca        1 RE2     -0.012300
      7 C1          2.2040   -1.1270    0.0740 ca        1 RE2     -0.191500
      8 O17         4.4020    2.4090   -0.0420 oh        1 RE2     -0.495100
      9 O16         4.1220   -2.4300   -0.3700 oh        1 RE2     -0.495100
     10 C9         -2.1470   -0.0580   -0.4260 ca        1 RE2     -0.116300
     11 C14        -2.7850    1.1790   -0.2610 ca        1 RE2     -0.090500
     12 C13        -4.1510    1.2500   -0.0120 ca        1 RE2     -0.183000
     13 C12        -4.8910    0.0590    0.0730 ca        1 RE2      0.122100
     14 O15        -6.2390    0.1900    0.3210 oh        1 RE2     -0.498100
     15 C11        -4.2690   -1.1850   -0.0920 ca        1 RE2     -0.183000
     16 C10        -2.8990   -1.2340   -0.3400 ca        1 RE2     -0.090500
     17 H3          5.4390   -0.0640   -0.4190 ha        1 RE2      0.135000
     18 H8         -0.4260    0.6420   -1.4910 hc        1 RE2      0.053200
     19 H8A        -0.4030   -1.1230   -1.1010 hc        1 RE2      0.053200
     20 H7         -0.1510    1.1850    0.9510 hc        1 RE2      0.056200
     21 H7A        -0.1320   -0.5810    1.3450 hc        1 RE2      0.056200
     22 H5          1.8760    2.2700    0.3980 ha        1 RE2      0.152500
     23 H1          1.6220   -2.0590    0.1070 ha        1 RE2      0.152500
     24 HO17        5.3350    2.2190   -0.2200 ho        1 RE2      0.419000
     25 HO16        5.0720   -2.3260   -0.5270 ho        1 RE2      0.419000
     26 H14        -2.1960    2.1060   -0.3300 ha        1 RE2      0.134500
     27 H13        -4.6590    2.2160    0.1190 ha        1 RE2      0.141500
     28 HO15       -6.6230   -0.6980    0.3510 ho        1 RE2      0.418000
     29 H11        -4.8550   -2.1120   -0.0260 ha        1 RE2      0.141500
     30 H10        -2.4070   -2.2100   -0.4710 ha        1 RE2      0.134500
     31 C7          0.1270    0.1730    0.5530 c3        1 RE2     -0.039100
@<TRIPOS>BOND
     1    1    2 ar  
     2    1    7 ar  
     3    1    9 1   
     4    2    3 ar  
     5    2   17 1   
     6    3    5 ar  
     7    3    8 1   
     8    4   10 1   
     9    4   18 1   
    10    4   19 1   
    11    4   31 1   
    12    5    6 ar  
    13    5   22 1   
    14    6    7 ar  
    15    6   31 1   
    16    7   23 1   
    17    8   24 1   
    18    9   25 1   
    19   10   11 ar  
    20   10   16 ar  
    21   11   12 ar  
    22   11   26 1   
    23   12   13 ar  
    24   12   27 1   
    25   13   14 1   
    26   13   15 ar  
    27   14   28 1   
    28   15   16 ar  
    29   15   29 1   
    30   16   30 1   
    31   20   31 1   
    32   21   31 1   
@<TRIPOS>SUBSTRUCTURE
     1 RE2         1 TEMP              0 ****  ****    0 ROOT
