@<TRIPOS>MOLECULE
RE2
   31    30     1     0     0
SMALL
bcc


@<TRIPOS>ATOM
      1 C2         -0.5500   -1.6120   -2.1960 c1        1 RE2     -0.014000
      2 C3          0.5980    0.5480    0.1560 c1        1 RE2     -0.049000
      3 C4          1.3620    0.0080    1.2230 c2        1 RE2     -0.052000
      4 C8         -0.8040    2.4890    4.9450 c3        1 RE2     -0.103000
      5 C5          1.1880    0.2730    2.5550 c2        1 RE2     -0.093000
      6 C6          0.3110    1.2860    3.0740 c2        1 RE2     -0.186000
      7 C1         -1.4000   -2.4540   -2.1900 c1        1 RE2     -0.346000
      8 O17         2.2810   -0.9350    0.7940 oh        1 RE2     -0.227000
      9 O16         0.3910   -0.6990   -2.2830 oh        1 RE2     -0.233000
     10 C9         -1.5840    2.0200    6.1250 ca        1 RE2     -0.119000
     11 C14        -0.9490    1.8300    7.3570 ca        1 RE2     -0.087000
     12 C13        -1.6710    1.4040    8.4680 ca        1 RE2     -0.182000
     13 C12        -3.0470    1.1660    8.3410 ca        1 RE2      0.085000
     14 O15        -3.8290    0.7440    9.3910 oh        1 RE2     -0.248000
     15 C11        -3.6980    1.3530    7.1110 ca        1 RE2     -0.182000
     16 C10        -2.9590    1.7790    6.0130 ca        1 RE2     -0.087000
     17 H3          0.0940    1.5090    0.3180 ha        1 RE2      0.079000
     18 H8         -0.1560    1.9740    2.3470 ha        1 RE2      0.136000
     19 H8A        -0.1440    3.3490    5.2550 hc        1 RE2      0.106000
     20 H7         -1.5020    2.8810    4.1540 hc        1 RE2      0.106000
     21 H7A         0.5090    0.7360    5.1320 ha        1 RE2      0.133000
     22 H5          1.7170   -0.3480    3.3030 ha        1 RE2      0.133000
     23 H1         -2.1460   -3.2010   -2.2010 ha        1 RE2      0.226000
     24 HO17        2.6260   -1.4030    1.5680 ho        1 RE2      0.208000
     25 HO16        0.5150   -0.2990   -1.3510 ho        1 RE2      0.295000
     26 H14         0.1300    2.0210    7.4500 ha        1 RE2      0.135000
     27 H13        -1.1680    1.2570    9.4350 ha        1 RE2      0.146000
     28 HO15       -3.2620    0.6600   10.1720 ho        1 RE2      0.220000
     29 H11        -4.7780    1.1620    7.0340 ha        1 RE2      0.146000
     30 H10        -3.4650    1.9280    5.0460 ha        1 RE2      0.135000
     31 C7          0.0640    1.4210    4.3900 c2        1 RE2     -0.081000
@<TRIPOS>BOND
     1    1    7 1   
     2    1    9 1   
     3    2    3 1   
     4    2   17 1   
     5    3    5 1   
     6    3    8 1   
     7    4   10 1   
     8    4   19 1   
     9    4   20 1   
    10    4   31 1   
    11    5    6 1   
    12    5   22 1   
    13    6   18 1   
    14    6   31 1   
    15    7   23 1   
    16    8   24 1   
    17    9   25 1   
    18   10   11 1   
    19   10   16 1   
    20   11   12 1   
    21   11   26 1   
    22   12   13 1   
    23   12   27 1   
    24   13   14 1   
    25   13   15 1   
    26   14   28 1   
    27   15   16 1   
    28   15   29 1   
    29   16   30 1   
    30   21   31 1   
@<TRIPOS>SUBSTRUCTURE
     1 RE2         1 TEMP              0 ****  ****    0 ROOT
