@<TRIPOS>MOLECULE
RE2
   31    30     1     0     0
SMALL
bcc


@<TRIPOS>ATOM
      1 C2         -0.7970    1.6630   -0.6570 c2        1 RE2     -0.336000
      2 C3          1.6490   -0.0390    0.0630 c1        1 RE2      0.144000
      3 C4          2.2870   -0.4430    1.1740 c2        1 RE2     -0.185000
      4 C8         -1.2940    1.1270    4.0530 c3        1 RE2     -0.116000
      5 C5          1.6620   -0.3220    2.4880 c2        1 RE2     -0.178000
      6 C6          0.3510   -0.1050    2.6670 c2        1 RE2     -0.123000
      7 C1         -1.5980    2.7220   -0.7040 c1        1 RE2      0.169000
      8 O17         3.5800   -0.9340    1.0970 oh        1 RE2     -0.237000
      9 O16        -1.2100    0.3720   -0.3940 oh        1 RE2     -0.249000
     10 C9         -1.9220    1.2300    5.3980 ca        1 RE2     -0.111000
     11 C14        -1.2380    1.8520    6.4490 ca        1 RE2     -0.090000
     12 C13        -1.8180    1.9600    7.7090 ca        1 RE2     -0.183000
     13 C12        -3.1020    1.4380    7.9190 ca        1 RE2      0.078000
     14 O15        -3.7420    1.5050    9.1360 oh        1 RE2     -0.251000
     15 C11        -3.8040    0.8130    6.8750 ca        1 RE2     -0.183000
     16 C10        -3.2060    0.7150    5.6240 ca        1 RE2     -0.090000
     17 H3          0.2970    1.8090   -0.8030 h4        1 RE2      0.184000
     18 H8         -2.0820    0.9500    3.2720 hc        1 RE2      0.094500
     19 H8A        -0.7880    2.0970    3.8000 hc        1 RE2      0.094500
     20 H7         -0.7860   -0.9750    4.2370 hc        1 RE2      0.097000
     21 H7A         0.5000    0.1650    4.8010 hc        1 RE2      0.097000
     22 H5          2.3550   -0.4180    3.3410 ha        1 RE2      0.139000
     23 H1         -0.3400   -0.0010    1.8070 ha        1 RE2      0.148000
     24 HO17        3.7450   -1.4440    1.9040 ho        1 RE2      0.223000
     25 HO16       -0.5200   -0.2140   -0.7510 ho        1 RE2      0.229000
     26 H14        -0.2320    2.2620    6.2760 ha        1 RE2      0.134500
     27 H13        -1.2780    2.4510    8.5300 ha        1 RE2      0.142500
     28 HO15       -3.1590    1.9680    9.7550 ho        1 RE2      0.218000
     29 H11        -4.8100    0.4130    7.0610 ha        1 RE2      0.142500
     30 H10        -3.7510    0.2290    4.8000 ha        1 RE2      0.134500
     31 C7         -0.2740    0.0000    4.0050 c3        1 RE2     -0.136000
@<TRIPOS>BOND
     1    1    7 1   
     2    1    9 1   
     3    1   17 1   
     4    2    3 1   
     5    3    5 1   
     6    3    8 1   
     7    4   10 1   
     8    4   18 1   
     9    4   19 1   
    10    4   31 1   
    11    5    6 1   
    12    5   22 1   
    13    6   23 1   
    14    6   31 1   
    15    8   24 1   
    16    9   25 1   
    17   10   11 1   
    18   10   16 1   
    19   11   12 1   
    20   11   26 1   
    21   12   13 1   
    22   12   27 1   
    23   13   14 1   
    24   13   15 1   
    25   14   28 1   
    26   15   16 1   
    27   15   29 1   
    28   16   30 1   
    29   20   31 1   
    30   21   31 1   
@<TRIPOS>SUBSTRUCTURE
     1 RE2         1 TEMP              0 ****  ****    0 ROOT
