@<TRIPOS>MOLECULE
RE3
   28    29     1     0     0
SMALL
bcc


@<TRIPOS>ATOM
      1 N          -2.5890    0.9410   -1.6430 n3        1 RE3     -0.904800
      2 CA         -1.9760    0.0100   -0.7010 c3        1 RE3      0.009500
      3 CB         -0.9010    0.6680    0.1670 c3        1 RE3     -0.090400
      4 CG          0.4710    0.7210   -0.5000 c3        1 RE3      0.171100
      5 OG          0.4650    0.9540   -1.8900 oh        1 RE3     -0.589800
      6 CD1         1.3270    1.8650    0.1670 c         1 RE3      0.676500
      7 OD1         1.0850    3.0760    0.2020 o         1 RE3     -0.620500
      8 NE1         2.4730    1.2940    0.7500 n         1 RE3     -0.490100
      9 CE2         2.4910   -0.0930    0.5270 ca        1 RE3      0.065600
     10 CZ2         3.4430   -1.0270    0.9260 ca        1 RE3     -0.191000
     11 CH2         3.2270   -2.3700    0.5890 ca        1 RE3     -0.104000
     12 CZ3         2.1000   -2.7660   -0.1200 ca        1 RE3     -0.170000
     13 CE3         1.1360   -1.8260   -0.5260 ca        1 RE3     -0.040000
     14 CD2         1.3290   -0.4990   -0.2100 ca        1 RE3     -0.119300
     15 C          -3.0050   -0.7290    0.2250 c         1 RE3      0.891600
     16 O          -4.2320   -0.5870   -0.0380 o         1 RE3     -0.834300
     17 HN         -3.3230    0.4420   -2.1190 hn        1 RE3      0.339800
     18 H9         -1.4830   -0.7970   -1.3200 h1        1 RE3      0.046700
     19 H10        -1.2020    1.7120    0.4470 hc        1 RE3      0.077700
     20 H10A       -0.8180    0.0640    1.1130 hc        1 RE3      0.077700
     21 HOG        -0.3600    1.4130   -2.1080 ho        1 RE3      0.446000
     22 HNE1        3.1910    1.7860    1.2090 hn        1 RE3      0.322500
     23 H17         4.3350   -0.7310    1.4920 ha        1 RE3      0.123000
     24 H18         3.9690   -3.1200    0.9010 ha        1 RE3      0.116000
     25 H19         1.9470   -3.8270   -0.3610 ha        1 RE3      0.126000
     26 H20         0.2350   -2.1480   -1.0700 ha        1 RE3      0.159000
     27 H2         -3.0400    1.6710   -1.1190 hn        1 RE3      0.339800
     28 OXT        -2.5440   -1.4430    1.1560 o         1 RE3     -0.834300
@<TRIPOS>BOND
     1    1    2 1   
     2    1   17 1   
     3    1   27 1   
     4    2    3 1   
     5    2   15 1   
     6    2   18 1   
     7    3    4 1   
     8    3   19 1   
     9    3   20 1   
    10    4    5 1   
    11    4    6 1   
    12    4   14 1   
    13    5   21 1   
    14    6    7 2   
    15    6    8 1   
    16    8    9 1   
    17    8   22 1   
    18    9   10 ar  
    19    9   14 ar  
    20   10   11 ar  
    21   10   23 1   
    22   11   12 ar  
    23   11   24 1   
    24   12   13 ar  
    25   12   25 1   
    26   13   14 ar  
    27   13   26 1   
    28   15   16 1   
    29   15   28 1   
@<TRIPOS>SUBSTRUCTURE
     1 RE3         1 TEMP              0 ****  ****    0 ROOT
