@<TRIPOS>MOLECULE
RE8
   40    43     1     0     0
SMALL
bcc


@<TRIPOS>ATOM
      1 OB4         0.1090    0.1370    0.4480 o         1 RE8     -0.736533
      2 SB          1.4300   -0.0900    0.0120 s6        1 RE8      1.453100
      3 OB2         2.3290   -0.3590    1.0630 o         1 RE8     -0.736533
      4 OB3         1.5370   -0.9690   -1.0870 o         1 RE8     -0.736533
      5 C14         1.9710    1.5050   -0.6530 ca        1 RE8     -0.181500
      6 C13         2.3480    1.5570   -1.9740 ca        1 RE8     -0.093000
      7 C12         2.7820    2.7530   -2.5730 ca        1 RE8     -0.097000
      8 C15         2.0220    2.6940    0.1220 ca        1 RE8      0.022000
      9 C20         2.4550    3.9220   -0.4520 ca        1 RE8     -0.010000
     10 C19         2.4880    5.0850    0.3670 ca        1 RE8     -0.132000
     11 C18         2.1110    5.0340    1.6870 ca        1 RE8     -0.133000
     12 C17         1.6810    3.8160    2.2590 ca        1 RE8     -0.157000
     13 C16         1.6370    2.6770    1.4960 ca        1 RE8     -0.079000
     14 C11         2.8440    3.9360   -1.8400 ca        1 RE8      0.085400
     15 N2          3.2730    5.1900   -2.3770 ne        1 RE8     -0.246400
     16 N1          3.6190    5.2830   -3.5570 nf        1 RE8     -0.213400
     17 C1          4.0480    6.5390   -4.0890 ca        1 RE8      0.021400
     18 C10         4.4250    6.5120   -5.4860 ca        1 RE8      0.033000
     19 C9          4.3700    5.3210   -6.2660 ca        1 RE8     -0.103000
     20 C8          4.7340    5.3250   -7.5910 ca        1 RE8     -0.133000
     21 C7          5.1730    6.5140   -8.2140 ca        1 RE8     -0.141000
     22 C6          5.2370    7.6780   -7.4890 ca        1 RE8     -0.117000
     23 C5          4.8670    7.7010   -6.1180 ca        1 RE8     -0.076000
     24 C4          4.9380    8.9140   -5.3780 ca        1 RE8     -0.089000
     25 C3          4.5850    8.9470   -4.0610 ca        1 RE8     -0.155000
     26 C2          4.1370    7.7580   -3.4060 ca        1 RE8      0.162100
     27 OA1         3.8270    7.9800   -2.0920 oh        1 RE8     -0.509100
     28 H1          2.3110    0.6350   -2.5840 ha        1 RE8      0.166000
     29 H2          3.0700    2.7270   -3.6360 ha        1 RE8      0.132000
     30 H3          2.8190    6.0450   -0.0540 ha        1 RE8      0.117000
     31 H4          2.1410    5.9390    2.3100 ha        1 RE8      0.113000
     32 H5          1.3830    3.7920    3.3170 ha        1 RE8      0.122000
     33 H6          1.3030    1.7150    1.9290 ha        1 RE8      0.175000
     34 H9          4.0300    4.3800   -5.8030 ha        1 RE8      0.158000
     35 H10         4.6860    4.3980   -8.1810 ha        1 RE8      0.130000
     36 H11         5.4590    6.4940   -9.2750 ha        1 RE8      0.125000
     37 H12         5.5770    8.6150   -7.9560 ha        1 RE8      0.123000
     38 H13         5.2840    9.8250   -5.8900 ha        1 RE8      0.129000
     39 H14         4.6310    9.8720   -3.4670 ha        1 RE8      0.148000
     40 H15         3.5260    7.1620   -1.6640 ho        1 RE8      0.460000
@<TRIPOS>BOND
     1    1    2 1   
     2    2    3 1   
     3    2    4 1   
     4    2    5 1   
     5    5    6 ar  
     6    5    8 ar  
     7    6    7 ar  
     8    6   28 1   
     9    7   14 ar  
    10    7   29 1   
    11    8    9 ar  
    12    8   13 ar  
    13    9   10 ar  
    14    9   14 ar  
    15   10   11 ar  
    16   10   30 1   
    17   11   12 ar  
    18   11   31 1   
    19   12   13 ar  
    20   12   32 1   
    21   13   33 1   
    22   14   15 1   
    23   15   16 2   
    24   16   17 1   
    25   17   18 ar  
    26   17   26 ar  
    27   18   19 ar  
    28   18   23 ar  
    29   19   20 ar  
    30   19   34 1   
    31   20   21 ar  
    32   20   35 1   
    33   21   22 ar  
    34   21   36 1   
    35   22   23 ar  
    36   22   37 1   
    37   23   24 ar  
    38   24   25 ar  
    39   24   38 1   
    40   25   26 ar  
    41   25   39 1   
    42   26   27 1   
    43   27   40 1   
@<TRIPOS>SUBSTRUCTURE
     1 RE8         1 TEMP              0 ****  ****    0 ROOT
