@<TRIPOS>MOLECULE
RE8
   40    43     1     0     0
SMALL
bcc


@<TRIPOS>ATOM
      1 OB4         0.1020    0.1440    0.4510 o         1 RE8     -0.736533
      2 SB          1.4200   -0.0870    0.0100 s6        1 RE8      1.453100
      3 OB2         2.3220   -0.3610    1.0580 o         1 RE8     -0.736533
      4 OB3         1.5210   -0.9650   -1.0910 o         1 RE8     -0.736533
      5 C14         1.9640    1.5060   -0.6540 ca        1 RE8     -0.181500
      6 C13         2.3370    1.5590   -1.9760 ca        1 RE8     -0.093000
      7 C12         2.7730    2.7560   -2.5750 ca        1 RE8     -0.097000
      8 C15         2.0230    2.6940    0.1220 ca        1 RE8      0.022000
      9 C20         2.4590    3.9210   -0.4510 ca        1 RE8     -0.010000
     10 C19         2.4990    5.0830    0.3700 ca        1 RE8     -0.132000
     11 C18         2.1270    5.0310    1.6910 ca        1 RE8     -0.133000
     12 C17         1.6940    3.8130    2.2630 ca        1 RE8     -0.157000
     13 C16         1.6430    2.6760    1.4980 ca        1 RE8     -0.079000
     14 C11         2.8420    3.9370   -1.8410 ca        1 RE8      0.085400
     15 N2          3.2730    5.1900   -2.3770 ne        1 RE8     -0.246400
     16 N1          3.6170    5.2830   -3.5580 nf        1 RE8     -0.213400
     17 C1          4.0480    6.5390   -4.0890 ca        1 RE8      0.022400
     18 C10         4.4240    6.5110   -5.4870 ca        1 RE8      0.033000
     19 C9          4.3670    5.3210   -6.2660 ca        1 RE8     -0.103000
     20 C8          4.7300    5.3250   -7.5930 ca        1 RE8     -0.133000
     21 C7          5.1700    6.5140   -8.2150 ca        1 RE8     -0.141000
     22 C6          5.2370    7.6780   -7.4900 ca        1 RE8     -0.117000
     23 C5          4.8670    7.7000   -6.1180 ca        1 RE8     -0.076000
     24 C4          4.9400    8.9130   -5.3780 ca        1 RE8     -0.089000
     25 C3          4.5880    8.9470   -4.0610 ca        1 RE8     -0.155000
     26 C2          4.1380    7.7570   -3.4060 ca        1 RE8      0.162100
     27 OA1         3.8290    7.9790   -2.0920 oh        1 RE8     -0.509100
     28 H1          2.2950    0.6390   -2.5880 ha        1 RE8      0.166000
     29 H2          3.0580    2.7300   -3.6390 ha        1 RE8      0.132000
     30 H3          2.8330    6.0420   -0.0510 ha        1 RE8      0.117000
     31 H4          2.1620    5.9350    2.3160 ha        1 RE8      0.113000
     32 H5          1.3990    3.7900    3.3210 ha        1 RE8      0.122000
     33 H6          1.3060    1.7150    1.9300 ha        1 RE8      0.175000
     34 H9          4.0260    4.3800   -5.8040 ha        1 RE8      0.158000
     35 H10         4.6810    4.3980   -8.1830 ha        1 RE8      0.130000
     36 H11         5.4560    6.4940   -9.2760 ha        1 RE8      0.125000
     37 H12         5.5770    8.6140   -7.9570 ha        1 RE8      0.123000
     38 H13         5.2870    9.8240   -5.8900 ha        1 RE8      0.129000
     39 H14         4.6350    9.8710   -3.4660 ha        1 RE8      0.148000
     40 H15         3.5270    7.1620   -1.6650 ho        1 RE8      0.460000
@<TRIPOS>BOND
     1    1    2 1   
     2    2    3 1   
     3    2    4 1   
     4    2    5 1   
     5    5    6 ar  
     6    5    8 ar  
     7    6    7 ar  
     8    6   28 1   
     9    7   14 ar  
    10    7   29 1   
    11    8    9 ar  
    12    8   13 ar  
    13    9   10 ar  
    14    9   14 ar  
    15   10   11 ar  
    16   10   30 1   
    17   11   12 ar  
    18   11   31 1   
    19   12   13 ar  
    20   12   32 1   
    21   13   33 1   
    22   14   15 1   
    23   15   16 2   
    24   16   17 1   
    25   17   18 ar  
    26   17   26 ar  
    27   18   19 ar  
    28   18   23 ar  
    29   19   20 ar  
    30   19   34 1   
    31   20   21 ar  
    32   20   35 1   
    33   21   22 ar  
    34   21   36 1   
    35   22   23 ar  
    36   22   37 1   
    37   23   24 ar  
    38   24   25 ar  
    39   24   38 1   
    40   25   26 ar  
    41   25   39 1   
    42   26   27 1   
    43   27   40 1   
@<TRIPOS>SUBSTRUCTURE
     1 RE8         1 TEMP              0 ****  ****    0 ROOT
