@<TRIPOS>MOLECULE
RE8
   40    43     1     0     0
SMALL
bcc


@<TRIPOS>ATOM
      1 OB4         0.8280   -0.3500    0.1710 o         1 RE8     -0.738200
      2 SB          2.1710   -0.1020    0.5230 s6        1 RE8      1.453100
      3 OB2         2.3490    0.1590    1.8970 o         1 RE8     -0.738200
      4 OB3         3.0920   -1.0260   -0.0160 o         1 RE8     -0.738200
      5 C14         2.5800    1.4540   -0.2990 ca        1 RE8     -0.187500
      6 C13         3.6050    1.4490   -1.2150 ca        1 RE8     -0.091000
      7 C12         3.9830    2.6130   -1.9100 ca        1 RE8     -0.102000
      8 C15         1.8940    2.6720   -0.0440 ca        1 RE8      0.023000
      9 C20         2.2570    3.8690   -0.7220 ca        1 RE8     -0.011000
     10 C19         1.5440    5.0660   -0.4340 ca        1 RE8     -0.127000
     11 C18         0.5190    5.0740    0.4810 ca        1 RE8     -0.140000
     12 C17         0.1540    3.8860    1.1540 ca        1 RE8     -0.156000
     13 C16         0.8240    2.7170    0.8990 ca        1 RE8     -0.083000
     14 C11         3.3310    3.8200   -1.6810 ca        1 RE8      0.076400
     15 N2          3.6910    5.0560   -2.3130 ne        1 RE8     -0.168400
     16 N1          4.3240    5.0480   -3.3680 nf        1 RE8     -0.220400
     17 C1          4.6950    6.3010   -3.9670 ca        1 RE8      0.108400
     18 C10         4.2940    6.5510   -5.3240 ca        1 RE8      0.009000
     19 C9          3.4350    5.6630   -6.0360 ca        1 RE8     -0.100000
     20 C8          3.0640    5.9310   -7.3310 ca        1 RE8     -0.134000
     21 C7          3.5260    7.0960   -7.9860 ca        1 RE8     -0.136000
     22 C6          4.3540    7.9690   -7.3270 ca        1 RE8     -0.120000
     23 C5          4.7560    7.7180   -5.9860 ca        1 RE8     -0.062000
     24 C4          5.6090    8.6270   -5.3070 ca        1 RE8     -0.098000
     25 C3          5.9910    8.3900   -4.0130 ca        1 RE8     -0.188000
     26 C2          5.5290    7.2300   -3.3360 ca        1 RE8      0.110100
     27 OA1         5.9230    6.9760   -2.0410 oh        1 RE8     -0.477100
     28 H1          4.1470    0.5060   -1.4160 ha        1 RE8      0.164000
     29 H2          4.8140    2.5440   -2.6300 ha        1 RE8      0.133000
     30 H3          1.8170    6.0010   -0.9440 ha        1 RE8      0.132000
     31 H4         -0.0260    6.0030    0.6990 ha        1 RE8      0.111000
     32 H5         -0.6690    3.9110    1.8820 ha        1 RE8      0.120000
     33 H6          0.5510    1.7800    1.4190 ha        1 RE8      0.173000
     34 H9          3.0680    4.7490   -5.5430 ha        1 RE8      0.157000
     35 H10         2.4010    5.2410   -7.8730 ha        1 RE8      0.131000
     36 H11         3.2150    7.2890   -9.0230 ha        1 RE8      0.125000
     37 H12         4.7240    8.8800   -7.8220 ha        1 RE8      0.123000
     38 H13         5.9560    9.5260   -5.8380 ha        1 RE8      0.128000
     39 H14         6.6500    9.0910   -3.4800 ha        1 RE8      0.128000
     40 H15         6.4700    7.7180   -1.7470 ho        1 RE8      0.413000
@<TRIPOS>BOND
     1    1    2 1   
     2    2    3 1   
     3    2    4 1   
     4    2    5 1   
     5    5    6 ar  
     6    5    8 ar  
     7    6    7 ar  
     8    6   28 1   
     9    7   14 ar  
    10    7   29 1   
    11    8    9 ar  
    12    8   13 ar  
    13    9   10 ar  
    14    9   14 ar  
    15   10   11 ar  
    16   10   30 1   
    17   11   12 ar  
    18   11   31 1   
    19   12   13 ar  
    20   12   32 1   
    21   13   33 1   
    22   14   15 1   
    23   15   16 2   
    24   16   17 1   
    25   17   18 ar  
    26   17   26 ar  
    27   18   19 ar  
    28   18   23 ar  
    29   19   20 ar  
    30   19   34 1   
    31   20   21 ar  
    32   20   35 1   
    33   21   22 ar  
    34   21   36 1   
    35   22   23 ar  
    36   22   37 1   
    37   23   24 ar  
    38   24   25 ar  
    39   24   38 1   
    40   25   26 ar  
    41   25   39 1   
    42   26   27 1   
    43   27   40 1   
@<TRIPOS>SUBSTRUCTURE
     1 RE8         1 TEMP              0 ****  ****    0 ROOT
