@<TRIPOS>MOLECULE
RE9
   49    50     1     0     0
SMALL
bcc


@<TRIPOS>ATOM
      1 C1          0.4240   -0.5670    0.6430 c3        1 RE9     -0.001800
      2 C2          1.8970   -0.1550    0.7820 c3        1 RE9     -0.068400
      3 C3          2.1400    0.8120    1.9230 c3        1 RE9     -0.073400
      4 C4          1.3500    2.0990    1.7580 c3        1 RE9     -0.023200
      5 C5         -0.0320    1.8160    1.3250 ce        1 RE9     -0.102200
      6 C6         -1.1370    2.7820    1.3750 ce        1 RE9     -0.059200
      7 C7         -2.3800    2.0930    0.8210 c3        1 RE9     -0.014800
      8 C8         -1.9050    0.6560    0.4700 c3        1 RE9     -0.041200
      9 C9         -0.4480    0.6270    0.8180 c2        1 RE9     -0.102400
     10 C10        -3.4800    2.0670    1.8840 c3        1 RE9     -0.017200
     11 C11        -4.7120    1.3820    1.4320 c2        1 RE9     -0.251200
     12 C12        -5.9540    1.5470    1.9060 ce        1 RE9     -0.067000
     13 C13        -6.4260    2.4110    2.9750 ce        1 RE9     -0.153200
     14 C14        -7.7020    2.8410    3.0080 cf        1 RE9     -0.154200
     15 C15        -8.7870    2.5670    1.9910 c         1 RE9      0.893800
     16 C16         0.0760   -1.6160    1.6960 c3        1 RE9     -0.082600
     17 C17         0.2170   -1.1750   -0.7410 c3        1 RE9     -0.082600
     18 C18        -1.0750    4.0360    1.8190 c2        1 RE9     -0.229000
     19 C19        -2.8630    2.8150   -0.4230 c3        1 RE9     -0.078100
     20 C20        -5.4860    2.7900    4.0630 c3        1 RE9     -0.041900
     21 O1         -9.5380    3.5380    1.6890 o         1 RE9     -0.835800
     22 O2         -8.9220    1.4010    1.5170 o         1 RE9     -0.835800
     23 H21         2.5190   -1.0750    0.9340 hc        1 RE9      0.036200
     24 H22         2.2290    0.3250   -0.1770 hc        1 RE9      0.036200
     25 H31         3.2330    1.0520    1.9790 hc        1 RE9      0.036200
     26 H32         1.8530    0.3240    2.8920 hc        1 RE9      0.036200
     27 H41         1.8470    2.7560    0.9930 hc        1 RE9      0.045200
     28 H42         1.3430    2.6660    2.7270 hc        1 RE9      0.045200
     29 H81        -2.0600    0.4350   -0.6160 hc        1 RE9      0.058700
     30 H82        -2.4680   -0.1080    1.0630 hc        1 RE9      0.058700
     31 H101       -3.0770    1.5520    2.7990 hc        1 RE9      0.042700
     32 H102       -3.7100    3.1290    2.1720 hc        1 RE9      0.042700
     33 H11        -4.5610    0.6630    0.6080 ha        1 RE9      0.101000
     34 H12        -6.7830    0.9750    1.4290 ha        1 RE9      0.177000
     35 H14        -8.0370    3.4930    3.8330 ha        1 RE9      0.099000
     36 H161        0.6960   -2.5310    1.5430 hc        1 RE9      0.035367
     37 H162        0.2680   -1.2180    2.7200 hc        1 RE9      0.035367
     38 H163       -1.0020   -1.8940    1.6180 hc        1 RE9      0.035367
     39 H171       -0.8250   -1.5650   -0.8370 hc        1 RE9      0.035367
     40 H172        0.9330   -2.0160   -0.8980 hc        1 RE9      0.035367
     41 H173        0.3840   -0.4060   -1.5330 hc        1 RE9      0.035367
     42 H181       -0.1470    4.4750    2.2070 ha        1 RE9      0.112000
     43 H182       -1.9530    4.6950    1.8250 ha        1 RE9      0.112000
     44 H191       -3.7720    2.3080   -0.8300 hc        1 RE9      0.037367
     45 H192       -3.1280    3.8700   -0.1740 hc        1 RE9      0.037367
     46 H193       -2.0690    2.8210   -1.2080 hc        1 RE9      0.037367
     47 H201       -4.9420    3.7330    3.8050 hc        1 RE9      0.019367
     48 H202       -6.0360    2.9640    5.0210 hc        1 RE9      0.019367
     49 H203       -4.7300    1.9860    4.2360 hc        1 RE9      0.019367
@<TRIPOS>BOND
     1    1    2 1   
     2    1    9 1   
     3    1   16 1   
     4    1   17 1   
     5    2    3 1   
     6    2   23 1   
     7    2   24 1   
     8    3    4 1   
     9    3   25 1   
    10    3   26 1   
    11    4    5 1   
    12    4   27 1   
    13    4   28 1   
    14    5    6 1   
    15    5    9 2   
    16    6    7 1   
    17    6   18 2   
    18    7    8 1   
    19    7   10 1   
    20    7   19 1   
    21    8    9 1   
    22    8   29 1   
    23    8   30 1   
    24   10   11 1   
    25   10   31 1   
    26   10   32 1   
    27   11   12 2   
    28   11   33 1   
    29   12   13 1   
    30   12   34 1   
    31   13   14 2   
    32   13   20 1   
    33   14   15 1   
    34   14   35 1   
    35   15   21 1   
    36   15   22 1   
    37   16   36 1   
    38   16   37 1   
    39   16   38 1   
    40   17   39 1   
    41   17   40 1   
    42   17   41 1   
    43   18   42 1   
    44   18   43 1   
    45   19   44 1   
    46   19   45 1   
    47   19   46 1   
    48   20   47 1   
    49   20   48 1   
    50   20   49 1   
@<TRIPOS>SUBSTRUCTURE
     1 RE9         1 TEMP              0 ****  ****    0 ROOT
