@<TRIPOS>MOLECULE
RE9
   49    50     1     0     0
SMALL
bcc


@<TRIPOS>ATOM
      1 C1         -1.8770   -0.3550    2.7960 c3        1 RE9     -0.003800
      2 C2         -1.9970   -0.0940    4.3060 c3        1 RE9     -0.068400
      3 C3         -1.1290    1.0530    4.7820 c3        1 RE9     -0.074400
      4 C4          0.3450    0.8050    4.5090 c3        1 RE9     -0.021200
      5 C5          0.5420    0.2590    3.1530 ce        1 RE9     -0.114200
      6 C6          1.8310    0.2080    2.4540 ce        1 RE9     -0.053200
      7 C7          1.5890   -0.4180    1.0840 c3        1 RE9     -0.015800
      8 C8          0.0710   -0.7470    1.0660 c3        1 RE9     -0.043200
      9 C9         -0.4470   -0.2690    2.3880 c2        1 RE9     -0.088400
     10 C10         1.9370    0.5940   -0.0110 c3        1 RE9     -0.019200
     11 C11         1.6310    0.1030   -1.3760 c2        1 RE9     -0.243200
     12 C12         0.6620    0.6220   -2.1440 ce        1 RE9     -0.075000
     13 C13         0.3280    0.1820   -3.4910 ce        1 RE9     -0.152200
     14 C14        -0.6560    0.7980   -4.1740 cf        1 RE9     -0.144200
     15 C15        -1.1030    0.5070   -5.5890 c         1 RE9      0.893800
     16 C16        -2.6940    0.6750    2.0220 c3        1 RE9     -0.084600
     17 C17        -2.4290   -1.7450    2.4950 c3        1 RE9     -0.084600
     18 C18         3.0070    0.6300    2.9180 c2        1 RE9     -0.238000
     19 C19         2.4110   -1.6830    0.9300 c3        1 RE9     -0.077100
     20 C20         1.1050   -0.9490   -4.0540 c3        1 RE9     -0.047900
     21 O1         -1.2800   -0.6890   -5.9580 o         1 RE9     -0.832800
     22 O2         -1.3060    1.5100   -6.3320 o         1 RE9     -0.832800
     23 H21        -1.7040   -1.0260    4.8570 hc        1 RE9      0.037200
     24 H22        -3.0690    0.1220    4.5510 hc        1 RE9      0.037200
     25 H31        -1.2830    1.2000    5.8830 hc        1 RE9      0.036700
     26 H32        -1.4470    1.9980    4.2690 hc        1 RE9      0.036700
     27 H41         0.7540    0.0770    5.2620 hc        1 RE9      0.043200
     28 H42         0.9180    1.7630    4.6290 hc        1 RE9      0.043200
     29 H81        -0.4380   -0.2260    0.2150 hc        1 RE9      0.068200
     30 H82        -0.1010   -1.8470    0.9480 hc        1 RE9      0.068200
     31 H101        3.0350    0.8250    0.0610 hc        1 RE9      0.037200
     32 H102        1.3810    1.5470    0.1980 hc        1 RE9      0.037200
     33 H11         2.2650   -0.7220   -1.7350 ha        1 RE9      0.119000
     34 H12         0.0450    1.4540   -1.7560 ha        1 RE9      0.101000
     35 H14        -1.2050    1.6380   -3.7130 ha        1 RE9      0.096000
     36 H161       -3.7730    0.5880    2.2940 hc        1 RE9      0.037867
     37 H162       -2.3460    1.7080    2.2600 hc        1 RE9      0.037867
     38 H163       -2.5850    0.5050    0.9240 hc        1 RE9      0.037867
     39 H171       -3.4750   -1.8290    2.8770 hc        1 RE9      0.037867
     40 H172       -2.4320   -1.9270    1.3940 hc        1 RE9      0.037867
     41 H173       -1.8030   -2.5290    2.9850 hc        1 RE9      0.037867
     42 H181        3.1160    1.0750    3.9150 ha        1 RE9      0.108500
     43 H182        3.9270    0.5580    2.3260 ha        1 RE9      0.108500
     44 H191        3.5010   -1.4400    0.9500 hc        1 RE9      0.034700
     45 H192        2.1890   -2.3960    1.7600 hc        1 RE9      0.034700
     46 H193        2.1720   -2.1800   -0.0410 hc        1 RE9      0.034700
     47 H201        0.7000   -1.2390   -5.0580 hc        1 RE9      0.036367
     48 H202        2.1820   -0.6680   -4.1600 hc        1 RE9      0.036367
     49 H203        1.0420   -1.8380   -3.3780 hc        1 RE9      0.036367
@<TRIPOS>BOND
     1    1    2 1   
     2    1    9 1   
     3    1   16 1   
     4    1   17 1   
     5    2    3 1   
     6    2   23 1   
     7    2   24 1   
     8    3    4 1   
     9    3   25 1   
    10    3   26 1   
    11    4    5 1   
    12    4   27 1   
    13    4   28 1   
    14    5    6 1   
    15    5    9 2   
    16    6    7 1   
    17    6   18 2   
    18    7    8 1   
    19    7   10 1   
    20    7   19 1   
    21    8    9 1   
    22    8   29 1   
    23    8   30 1   
    24   10   11 1   
    25   10   31 1   
    26   10   32 1   
    27   11   12 2   
    28   11   33 1   
    29   12   13 1   
    30   12   34 1   
    31   13   14 2   
    32   13   20 1   
    33   14   15 1   
    34   14   35 1   
    35   15   21 1   
    36   15   22 1   
    37   16   36 1   
    38   16   37 1   
    39   16   38 1   
    40   17   39 1   
    41   17   40 1   
    42   17   41 1   
    43   18   42 1   
    44   18   43 1   
    45   19   44 1   
    46   19   45 1   
    47   19   46 1   
    48   20   47 1   
    49   20   48 1   
    50   20   49 1   
@<TRIPOS>SUBSTRUCTURE
     1 RE9         1 TEMP              0 ****  ****    0 ROOT
