@<TRIPOS>MOLECULE
RE9
   49    50     1     0     0
SMALL
bcc


@<TRIPOS>ATOM
      1 C1          0.4440   -0.5400    0.6480 c3        1 RE9     -0.001800
      2 C2          1.9130   -0.1100    0.7810 c3        1 RE9     -0.068400
      3 C3          2.1470    0.8670    1.9150 c3        1 RE9     -0.073400
      4 C4          1.3420    2.1440    1.7420 c3        1 RE9     -0.023200
      5 C5         -0.0370    1.8420    1.3150 ce        1 RE9     -0.102200
      6 C6         -1.1530    2.7960    1.3600 ce        1 RE9     -0.059200
      7 C7         -2.3890    2.0900    0.8140 c3        1 RE9     -0.014800
      8 C8         -1.8990    0.6550    0.4720 c3        1 RE9     -0.041200
      9 C9         -0.4410    0.6460    0.8170 c2        1 RE9     -0.102400
     10 C10        -3.4860    2.0580    1.8790 c3        1 RE9     -0.017200
     11 C11        -4.7110    1.3560    1.4360 c2        1 RE9     -0.251200
     12 C12        -5.9530    1.5080    1.9130 ce        1 RE9     -0.067000
     13 C13        -6.4330    2.3720    2.9790 ce        1 RE9     -0.153200
     14 C14        -7.7150    2.7850    3.0140 cf        1 RE9     -0.154200
     15 C15        -8.8000    2.4900    2.0040 c         1 RE9      0.893800
     16 C16         0.1110   -1.5850    1.7090 c3        1 RE9     -0.082600
     17 C17         0.2410   -1.1590   -0.7310 c3        1 RE9     -0.082600
     18 C18        -1.1050    4.0540    1.7960 c2        1 RE9     -0.229000
     19 C19        -2.8840    2.7970   -0.4340 c3        1 RE9     -0.078100
     20 C20        -5.4940    2.7700    4.0600 c3        1 RE9     -0.041900
     21 O1         -9.5650    3.4500    1.6990 o         1 RE9     -0.835800
     22 O2         -8.9210    1.3200    1.5370 o         1 RE9     -0.835800
     23 H21         2.2370    0.3660   -0.1820 hc        1 RE9      0.036200
     24 H22         2.5460   -1.0220    0.9380 hc        1 RE9      0.036200
     25 H31         3.2380    1.1200    1.9670 hc        1 RE9      0.036200
     26 H32         1.8680    0.3830    2.8880 hc        1 RE9      0.036200
     27 H41         1.3310    2.7180    2.7070 hc        1 RE9      0.045200
     28 H42         1.8310    2.8010    0.9710 hc        1 RE9      0.045200
     29 H81        -2.4520   -0.1110    1.0720 hc        1 RE9      0.058700
     30 H82        -2.0540    0.4260   -0.6120 hc        1 RE9      0.058700
     31 H101       -3.0760    1.5540    2.7970 hc        1 RE9      0.042200
     32 H102       -3.7280    3.1190    2.1610 hc        1 RE9      0.042200
     33 H11        -4.5540    0.6340    0.6150 ha        1 RE9      0.101000
     34 H12        -6.7780    0.9230    1.4420 ha        1 RE9      0.177000
     35 H14        -8.0550    3.4370    3.8360 ha        1 RE9      0.099000
     36 H161        0.7410   -2.4950    1.5610 hc        1 RE9      0.035367
     37 H162       -0.9650   -1.8760    1.6350 hc        1 RE9      0.035367
     38 H163        0.3000   -1.1780    2.7310 hc        1 RE9      0.035367
     39 H171        0.3970   -0.3950   -1.5280 hc        1 RE9      0.035367
     40 H172        0.9660   -1.9940   -0.8840 hc        1 RE9      0.035367
     41 H173       -0.7960   -1.5620   -0.8220 hc        1 RE9      0.035367
     42 H181       -1.9900    4.7030    1.7990 ha        1 RE9      0.112000
     43 H182       -0.1810    4.5060    2.1780 ha        1 RE9      0.112000
     44 H191       -3.1600    3.8510   -0.1910 hc        1 RE9      0.037367
     45 H192       -3.7870    2.2770   -0.8350 hc        1 RE9      0.037367
     46 H193       -2.0920    2.8070   -1.2210 hc        1 RE9      0.037367
     47 H201       -6.0430    2.9450    5.0190 hc        1 RE9      0.019367
     48 H202       -4.7280    1.9760    4.2370 hc        1 RE9      0.019367
     49 H203       -4.9620    3.7180    3.7940 hc        1 RE9      0.019367
@<TRIPOS>BOND
     1    1    2 1   
     2    1    9 1   
     3    1   16 1   
     4    1   17 1   
     5    2    3 1   
     6    2   23 1   
     7    2   24 1   
     8    3    4 1   
     9    3   25 1   
    10    3   26 1   
    11    4    5 1   
    12    4   27 1   
    13    4   28 1   
    14    5    6 1   
    15    5    9 2   
    16    6    7 1   
    17    6   18 2   
    18    7    8 1   
    19    7   10 1   
    20    7   19 1   
    21    8    9 1   
    22    8   29 1   
    23    8   30 1   
    24   10   11 1   
    25   10   31 1   
    26   10   32 1   
    27   11   12 2   
    28   11   33 1   
    29   12   13 1   
    30   12   34 1   
    31   13   14 2   
    32   13   20 1   
    33   14   15 1   
    34   14   35 1   
    35   15   21 1   
    36   15   22 1   
    37   16   36 1   
    38   16   37 1   
    39   16   38 1   
    40   17   39 1   
    41   17   40 1   
    42   17   41 1   
    43   18   42 1   
    44   18   43 1   
    45   19   44 1   
    46   19   45 1   
    47   19   46 1   
    48   20   47 1   
    49   20   48 1   
    50   20   49 1   
@<TRIPOS>SUBSTRUCTURE
     1 RE9         1 TEMP              0 ****  ****    0 ROOT
