@<TRIPOS>MOLECULE
REA
   49    49     1     0     0
SMALL
bcc


@<TRIPOS>ATOM
      1 C1         21.8180   29.8630   16.8990 c3        1 REA     -0.008800
      2 C2         20.6640   30.5610   16.1740 c3        1 REA     -0.069400
      3 C3         20.1910   29.7760   14.9730 c3        1 REA     -0.074400
      4 C4         19.7050   28.4050   15.3870 c3        1 REA     -0.036200
      5 C5         20.5920   27.7360   16.3800 c2        1 REA     -0.122400
      6 C6         21.5340   28.3920   17.0930 ce        1 REA     -0.060200
      7 C7         22.3870   27.7390   18.0790 ce        1 REA     -0.169000
      8 C8         21.9450   26.9110   19.0410 cf        1 REA     -0.088000
      9 C9         22.7850   26.2690   20.0400 cf        1 REA     -0.149200
     10 C10        22.1970   25.6010   21.0620 ce        1 REA     -0.057000
     11 C11        22.8620   24.9280   22.1450 ce        1 REA     -0.230000
     12 C12        22.1820   24.2560   23.0990 cf        1 REA     -0.032000
     13 C13        22.7790   23.5560   24.2200 cf        1 REA     -0.163200
     14 C14        21.9880   22.9500   25.1300 ce        1 REA     -0.124200
     15 C15        22.4360   22.2330   26.3850 c         1 REA      0.892800
     16 C16        21.9960   30.5450   18.2530 c3        1 REA     -0.082100
     17 C17        23.1030   30.0300   16.0930 c3        1 REA     -0.082100
     18 C18        20.3240   26.2840   16.5350 c3        1 REA     -0.058900
     19 C19        24.2520   26.3950   19.8720 c3        1 REA     -0.042900
     20 C20        24.2600   23.5410   24.3160 c3        1 REA     -0.048900
     21 O1         23.3650   21.3800   26.3200 o         1 REA     -0.827300
     22 O2         21.8120   22.5240   27.4460 o         1 REA     -0.827300
     23 H21        19.8090   30.6910   16.8890 hc        1 REA      0.038200
     24 H22        20.9950   31.5830   15.8540 hc        1 REA      0.038200
     25 H31        19.3610   30.3300   14.4610 hc        1 REA      0.035200
     26 H32        21.0280   29.6740   14.2330 hc        1 REA      0.035200
     27 H41        18.6800   28.4920   15.8410 hc        1 REA      0.041200
     28 H42        19.6060   27.7590   14.4730 hc        1 REA      0.041200
     29 H7         23.4580   27.9950   18.0040 ha        1 REA      0.124000
     30 H8         20.8630   26.6930   19.1200 ha        1 REA      0.117000
     31 H10        21.0910   25.5580   21.0930 ha        1 REA      0.107000
     32 H11        23.9620   24.9790   22.1850 ha        1 REA      0.129000
     33 H12        21.0770   24.2170   23.0520 ha        1 REA      0.103000
     34 H14        20.8910   22.9830   25.0180 ha        1 REA      0.098000
     35 H161       22.8920   30.1400   18.7820 hc        1 REA      0.034367
     36 H162       22.1310   31.6440   18.1100 hc        1 REA      0.034367
     37 H163       21.0990   30.3740   18.8950 hc        1 REA      0.034367
     38 H171       23.9690   29.5930   16.6460 hc        1 REA      0.034367
     39 H172       23.0170   29.5170   15.1070 hc        1 REA      0.034367
     40 H173       23.3060   31.1140   15.9180 hc        1 REA      0.034367
     41 H181       21.2200   25.7420   16.9270 hc        1 REA      0.041700
     42 H182       19.4780   26.1260   17.2510 hc        1 REA      0.041700
     43 H183       20.0390   25.8270   15.5550 hc        1 REA      0.041700
     44 H191       24.8110   25.7050   20.5470 hc        1 REA      0.034700
     45 H192       24.5440   26.1570   18.8180 hc        1 REA      0.034700
     46 H193       24.5760   27.4430   20.0960 hc        1 REA      0.034700
     47 H201       24.5870   22.8980   25.1740 hc        1 REA      0.038700
     48 H202       24.7060   23.1300   23.3770 hc        1 REA      0.038700
     49 H203       24.6520   24.5780   24.4650 hc        1 REA      0.038700
@<TRIPOS>BOND
     1    1    2 1   
     2    1    6 1   
     3    1   16 1   
     4    1   17 1   
     5    2    3 1   
     6    2   23 1   
     7    2   24 1   
     8    3    4 1   
     9    3   25 1   
    10    3   26 1   
    11    4    5 1   
    12    4   27 1   
    13    4   28 1   
    14    5    6 2   
    15    5   18 1   
    16    6    7 1   
    17    7    8 2   
    18    7   29 1   
    19    8    9 1   
    20    8   30 1   
    21    9   10 2   
    22    9   19 1   
    23   10   11 1   
    24   10   31 1   
    25   11   12 2   
    26   11   32 1   
    27   12   13 1   
    28   12   33 1   
    29   13   14 2   
    30   13   20 1   
    31   14   15 1   
    32   14   34 1   
    33   15   21 1   
    34   15   22 1   
    35   16   35 1   
    36   16   36 1   
    37   16   37 1   
    38   17   38 1   
    39   17   39 1   
    40   17   40 1   
    41   18   41 1   
    42   18   42 1   
    43   18   43 1   
    44   19   44 1   
    45   19   45 1   
    46   19   46 1   
    47   20   47 1   
    48   20   48 1   
    49   20   49 1   
@<TRIPOS>SUBSTRUCTURE
     1 REA         1 TEMP              0 ****  ****    0 ROOT
