@<TRIPOS>MOLECULE
REA
   49    56     1     0     0
SMALL
bcc


@<TRIPOS>ATOM
      1 C1          0.0000    0.0000    0.0000 c3        1 REA     -0.010000
      2 C2          1.5460    0.0000    0.0000 c3        1 REA     -0.100000
      3 C3          2.1840    0.0000    1.3520 c3        1 REA     -0.105000
      4 C4          1.7630   -1.1620    2.1850 c3        1 REA     -0.024000
      5 C5          0.2590   -1.4460    2.1090 c2        1 REA     -0.273000
      6 C6         -0.5270   -1.0000    1.0810 c3        1 REA      0.090000
      7 C7         -1.9760   -1.2670    0.9550 c2        1 REA     -0.332000
      8 C8         -2.6610   -2.3490    1.3470 c2        1 REA     -0.176000
      9 C9         -4.0800   -2.5690    1.1870 c3        1 REA     -0.399000
     10 C10        -4.6020   -3.7120    1.6760 c3        1 REA     -0.232000
     11 C11        -6.0040   -4.0710    1.5720 c3        1 REA     -0.085000
     12 C12        -6.4120   -5.2200    2.1180 c2        1 REA     -0.106000
     13 C13        -7.7820   -5.6770    2.0480 c3        1 REA      0.016000
     14 C14        -8.1090   -6.8550    2.6370 c2        1 REA     -0.638000
     15 C15        -9.4280   -7.5030    2.6790 c3        1 REA      0.536000
     16 C16        -0.4770   -0.4330   -1.3920 c3        1 REA     -0.111500
     17 C17        -0.5320    1.4260    0.3110 c3        1 REA     -0.111500
     18 C18        -0.1540   -2.3970    3.2350 c3        1 REA     -0.041000
     19 C19        -4.9590   -1.5010    0.5230 c3        1 REA     -0.046000
     20 C20        -8.8110   -4.8150    1.2990 c3        1 REA     -0.104000
     21 O1        -10.4230   -6.8440    3.0550 o         1 REA     -0.576000
     22 O2         -9.5290   -8.7020    2.3360 o         1 REA     -0.576000
     23 H21         1.8850   -0.8800   -0.5340 hc        1 REA      0.049500
     24 H22         1.8850    0.8800   -0.5340 hc        1 REA      0.049500
     25 H31         3.2600   -0.0310    1.2290 hc        1 REA      0.048000
     26 H32         1.9120    0.9140    1.8650 hc        1 REA      0.048000
     27 H41         2.2990   -2.0410    1.8490 hc        1 REA      0.048000
     28 H42         2.0260   -0.9610    3.2170 hc        1 REA      0.048000
     29 H7         -1.1900   -1.9930    0.7820 DU        1 REA      0.183000
     30 H8         -3.1960   -2.2830    0.4080 DU        1 REA      0.299000
     31 H10        -5.4030   -3.1830    2.1790 DU        1 REA      0.227500
     32 H11        -5.5660   -3.5930    2.4400 DU        1 REA      0.227500
     33 H12        -7.2290   -4.7640    2.6630 DU        1 REA      0.120000
     34 H14        -9.0230   -6.3620    2.9470 DU        1 REA      0.331000
     35 H161       -0.2610   -1.4850   -1.5370 hc        1 REA      0.046167
     36 H162        0.0380    0.1490   -2.1470 hc        1 REA      0.046167
     37 H163       -1.5440   -0.2690   -1.4750 hc        1 REA      0.046167
     38 H171       -0.4580    1.6150    1.3750 hc        1 REA      0.046167
     39 H172       -1.5680    1.5000    0.0020 hc        1 REA      0.046167
     40 H173        0.0580    2.1570   -0.2280 hc        1 REA      0.046167
     41 H181       -1.0060   -1.9840    3.7630 hc        1 REA      0.046667
     42 H182       -0.4210   -3.3590    2.8150 hc        1 REA      0.046667
     43 H183        0.6720   -2.5210    3.9250 hc        1 REA      0.046667
     44 H191       -5.8720   -1.3790    1.0920 hc        1 REA      0.047333
     45 H192       -5.2010   -1.8090   -0.4870 hc        1 REA      0.047333
     46 H193       -4.4230   -0.5600    0.4940 hc        1 REA      0.047333
     47 H201       -8.3260   -4.3070    0.4750 hc        1 REA      0.055333
     48 H202       -9.6030   -5.4480    0.9180 hc        1 REA      0.055333
     49 H203       -9.2310   -4.0820    1.9780 hc        1 REA      0.055333
@<TRIPOS>BOND
     1    1    2 1   
     2    1    6 1   
     3    1   16 1   
     4    1   17 1   
     5    2    3 1   
     6    2   23 1   
     7    2   24 1   
     8    3    4 1   
     9    3   25 1   
    10    3   26 1   
    11    4    5 1   
    12    4   27 1   
    13    4   28 1   
    14    5    6 1   
    15    5   18 1   
    16    6    7 1   
    17    6   29 1   
    18    7    8 1   
    19    7   29 1   
    20    8    9 1   
    21    8   30 1   
    22    9   10 1   
    23    9   19 1   
    24    9   30 1   
    25   10   11 1   
    26   10   31 1   
    27   10   32 1   
    28   11   12 1   
    29   11   31 1   
    30   11   32 1   
    31   12   13 1   
    32   12   33 1   
    33   13   14 1   
    34   13   20 1   
    35   13   33 1   
    36   14   15 1   
    37   14   34 1   
    38   15   21 1   
    39   15   22 1   
    40   15   34 1   
    41   16   35 1   
    42   16   36 1   
    43   16   37 1   
    44   17   38 1   
    45   17   39 1   
    46   17   40 1   
    47   18   41 1   
    48   18   42 1   
    49   18   43 1   
    50   19   44 1   
    51   19   45 1   
    52   19   46 1   
    53   20   47 1   
    54   20   48 1   
    55   20   49 1   
    56   31   32 1   
@<TRIPOS>SUBSTRUCTURE
     1 REA         1 TEMP              0 ****  ****    0 ROOT
