@<TRIPOS>MOLECULE
REA
   49    48     1     0     0
SMALL
bcc


@<TRIPOS>ATOM
      1 C1         -0.5730   -0.8600   -0.3210 c3        1 REA     -0.007800
      2 C2          0.2440    0.4260   -0.1620 c3        1 REA     -0.069400
      3 C3          0.1420    1.0010    1.2320 c3        1 REA     -0.074400
      4 C4          0.6610    0.0130    2.2540 c3        1 REA     -0.034200
      5 C5          0.1510   -1.3690    2.0310 c2        1 REA     -0.131400
      6 C6         -0.4180   -1.7690    0.8770 ce        1 REA     -0.042200
      7 C7         -0.8390   -3.1510    0.6520 ce        1 REA     -0.184000
      8 C8         -1.9960   -3.7610    0.9420 cf        1 REA     -0.064000
      9 C9         -3.1800   -3.2510    1.6070 cf        1 REA     -0.164300
     10 C10        -4.3440   -3.8600    1.4330 c1        1 REA     -0.017900
     11 C11        -5.4510   -4.4290    1.2660 c1        1 REA     -0.131900
     12 C12        -6.5940   -5.0530    1.0640 ce        1 REA     -0.013100
     13 C13        -7.8590   -4.6740    1.6600 ce        1 REA     -0.157200
     14 C14        -8.9920   -5.3710    1.4380 cf        1 REA     -0.129200
     15 C15        -9.1680   -6.6330    0.6210 c         1 REA      0.888800
     16 C16        -0.0750   -1.5800   -1.5740 c3        1 REA     -0.084600
     17 C17        -2.0450   -0.5110   -0.5170 c3        1 REA     -0.084600
     18 C18         0.3530   -2.2760    3.1880 c3        1 REA     -0.052900
     19 C19        -3.0760   -2.0760    2.5060 c3        1 REA     -0.038900
     20 C20        -7.8550   -3.4720    2.5350 c3        1 REA     -0.049900
     21 O1        -10.1840   -7.3330    0.8950 o         1 REA     -0.824800
     22 O2         -8.3330   -6.9290   -0.2820 o         1 REA     -0.824800
     23 H21         1.3210    0.2080   -0.3910 hc        1 REA      0.035200
     24 H22        -0.1150    1.1790   -0.9110 hc        1 REA      0.035200
     25 H31        -0.9260    1.2540    1.4620 hc        1 REA      0.036700
     26 H32         0.7320    1.9520    1.2930 hc        1 REA      0.036700
     27 H41         1.7850   -0.0130    2.2160 hc        1 REA      0.038200
     28 H42         0.3740    0.3570    3.2840 hc        1 REA      0.038200
     29 H7         -0.0560   -3.7410    0.1360 ha        1 REA      0.113000
     30 H8         -2.0980   -4.8190    0.6220 ha        1 REA      0.118000
     31 H10        -6.3270   -1.4990    3.6920 ha        1 REA      0.000000
     32 H11        -6.0140   -0.9970    4.0240 ha        1 REA      0.000000
     33 H12        -6.6340   -5.9380    0.3820 ha        1 REA      0.211000
     34 H14        -9.9310   -5.0380    1.9150 ha        1 REA      0.108000
     35 H161        0.9600   -1.9660   -1.4170 hc        1 REA      0.037200
     36 H162       -0.0690   -0.8750   -2.4390 hc        1 REA      0.037200
     37 H163       -0.7460   -2.4390   -1.8170 hc        1 REA      0.037200
     38 H171       -2.3890    0.2020    0.2690 hc        1 REA      0.037200
     39 H172       -2.1950   -0.0370   -1.5170 hc        1 REA      0.037200
     40 H173       -2.6680   -1.4370   -0.4570 hc        1 REA      0.037200
     41 H181       -0.0270   -3.3060    2.9760 hc        1 REA      0.038700
     42 H182        1.4430   -2.3410    3.4350 hc        1 REA      0.038700
     43 H183       -0.1840   -1.8820    4.0870 hc        1 REA      0.038700
     44 H191       -2.3230   -2.2750    3.3100 hc        1 REA      0.034033
     45 H192       -4.0590   -1.8440    2.9850 hc        1 REA      0.034033
     46 H193       -2.7360   -1.1770    1.9320 hc        1 REA      0.034033
     47 H201       -8.8780   -3.2440    2.9230 hc        1 REA      0.026700
     48 H202       -7.4850   -2.5800    1.9700 hc        1 REA      0.026700
     49 H203       -7.1740   -3.6310    3.4090 hc        1 REA      0.026700
@<TRIPOS>BOND
     1    1    2 1   
     2    1    6 1   
     3    1   16 1   
     4    1   17 1   
     5    2    3 1   
     6    2   23 1   
     7    2   24 1   
     8    3    4 1   
     9    3   25 1   
    10    3   26 1   
    11    4    5 1   
    12    4   27 1   
    13    4   28 1   
    14    5    6 2   
    15    5   18 1   
    16    6    7 1   
    17    7    8 2   
    18    7   29 1   
    19    8    9 1   
    20    8   30 1   
    21    9   10 2   
    22    9   19 1   
    23   10   11 2   
    24   11   12 2   
    25   12   13 1   
    26   12   33 1   
    27   13   14 2   
    28   13   20 1   
    29   14   15 1   
    30   14   34 1   
    31   15   21 1   
    32   15   22 1   
    33   16   35 1   
    34   16   36 1   
    35   16   37 1   
    36   17   38 1   
    37   17   39 1   
    38   17   40 1   
    39   18   41 1   
    40   18   42 1   
    41   18   43 1   
    42   19   44 1   
    43   19   45 1   
    44   19   46 1   
    45   20   47 1   
    46   20   48 1   
    47   20   49 1   
    48   31   32 1   
@<TRIPOS>SUBSTRUCTURE
     1 REA         1 TEMP              0 ****  ****    0 ROOT
