@<TRIPOS>MOLECULE
REB
   42    45     1     0     0
SMALL
bcc


@<TRIPOS>ATOM
      1 C10        -0.1180   -0.6340    0.2780 cc        1 REB     -0.246300
      2 N12         0.4920    0.7490    1.9410 na        1 REB     -0.007600
      3 C15        -2.4280    0.6800    3.0740 cx        1 REB     -0.127400
      4 C20        -3.5730    1.9650   -6.6910 ca        1 REB     -0.103500
      5 C21        -3.2430    1.3380   -7.8960 ca        1 REB     -0.106300
      6 C22        -2.3090    0.2980   -7.8900 ca        1 REB     -0.103500
      7 C24        -3.8960    1.7600   -9.1690 c3        1 REB      0.029000
      8 C02         2.5510   -0.1660   -3.4330 ca        1 REB     -0.454600
      9 C03         2.0730   -0.0970   -4.7440 ca        1 REB      0.479200
     10 N04         0.7740    0.0050   -5.0690 nb        1 REB     -0.755000
     11 C05        -0.1130    0.0400   -4.0040 ca        1 REB      0.890900
     12 N06         0.2430    0.0030   -2.6640 nb        1 REB     -0.788000
     13 C07         1.5740   -0.1240   -2.3870 ca        1 REB      0.702200
     14 N08         2.0200   -0.2840   -1.0620 nh        1 REB     -0.788600
     15 C09         1.1740   -0.0150    0.0280 cc        1 REB      0.504200
     16 C11        -0.5280   -0.1170    1.5180 cd        1 REB     -0.073600
     17 N13         1.4970    0.8290    1.0790 nd        1 REB     -0.549800
     18 C14        -1.7510   -0.3950    2.2590 cx        1 REB     -0.061400
     19 C16        -1.7490   -0.4610    3.7670 cx        1 REB     -0.127400
     20 C18        -2.0310    0.5160   -5.4880 ca        1 REB      0.141600
     21 C19        -2.9760    1.5680   -5.5000 ca        1 REB     -0.136500
     22 C23        -1.7110   -0.1200   -6.7060 ca        1 REB     -0.136500
     23 C25        -3.2410    2.9050   -9.7680 c1        1 REB      0.212700
     24 N26        -2.7210    3.8230  -10.2570 n1        1 REB     -0.371800
     25 H10        -0.6440   -1.3270   -0.3690 ha        1 REB      0.181000
     26 H15        -3.5310    0.7270    3.0660 hc        1 REB      0.075200
     27 H15A       -1.9780    1.6870    3.1220 hc        1 REB      0.075200
     28 H20        -4.3060    2.7850   -6.6820 ha        1 REB      0.136500
     29 H22        -2.0420   -0.2040   -8.8330 ha        1 REB      0.136500
     30 H24        -3.8840    0.9110   -9.9100 hc        1 REB      0.078200
     31 H24A       -4.9740    2.0260   -8.9750 hc        1 REB      0.078200
     32 H02         3.6220   -0.2540   -3.2230 ha        1 REB      0.155000
     33 H03         2.7710   -0.1200   -5.6030 h4        1 REB      0.028100
     34 HN08        2.9720    0.0000   -0.9310 hn        1 REB      0.433800
     35 H14        -2.3960   -1.1130    1.7100 hc        1 REB      0.101700
     36 H16        -0.8080   -0.2780    4.3160 hc        1 REB      0.075200
     37 H16A       -2.3630   -1.2370    4.2590 hc        1 REB      0.075200
     38 HN17       -2.0590    0.3220   -3.4610 hn        1 REB      0.436800
     39 H19        -3.2500    2.0820   -4.5660 ha        1 REB      0.147500
     40 H23        -0.9860   -0.9490   -6.7330 ha        1 REB      0.147500
     41 HN12        0.5240    1.2570    2.7930 hn        1 REB      0.321700
     42 N17        -1.5050    0.0640   -4.2560 nh        1 REB     -0.706300
@<TRIPOS>BOND
     1    1   15 1   
     2    1   16 2   
     3    1   25 1   
     4    2   16 1   
     5    2   17 1   
     6    2   41 1   
     7    3   18 1   
     8    3   19 1   
     9    3   26 1   
    10    3   27 1   
    11    4    5 ar  
    12    4   21 ar  
    13    4   28 1   
    14    5    6 ar  
    15    5    7 1   
    16    6   22 ar  
    17    6   29 1   
    18    7   23 1   
    19    7   30 1   
    20    7   31 1   
    21    8    9 ar  
    22    8   13 ar  
    23    8   32 1   
    24    9   10 ar  
    25    9   33 1   
    26   10   11 ar  
    27   11   12 ar  
    28   11   42 1   
    29   12   13 ar  
    30   13   14 1   
    31   14   15 1   
    32   14   34 1   
    33   15   17 2   
    34   16   18 1   
    35   18   19 1   
    36   18   35 1   
    37   19   36 1   
    38   19   37 1   
    39   20   21 ar  
    40   20   22 ar  
    41   20   42 1   
    42   21   39 1   
    43   22   40 1   
    44   23   24 3   
    45   38   42 1   
@<TRIPOS>SUBSTRUCTURE
     1 REB         1 TEMP              0 ****  ****    0 ROOT
