@<TRIPOS>MOLECULE
REB
   42    45     1     0     0
SMALL
bcc


@<TRIPOS>ATOM
      1 C10        -0.1310   -0.6130    0.2570 cc        1 REB     -0.246300
      2 N12         0.5440    0.7590    1.9030 na        1 REB     -0.007600
      3 C15        -2.3620    0.7890    3.0730 cx        1 REB     -0.127400
      4 C20        -3.5950    2.0530   -6.6800 ca        1 REB     -0.103500
      5 C21        -3.3000    1.4110   -7.8870 ca        1 REB     -0.106300
      6 C22        -2.3990    0.3430   -7.8880 ca        1 REB     -0.103500
      7 C24        -3.9570    1.8480   -9.1530 c3        1 REB      0.029000
      8 C02         2.5020   -0.2510   -3.4910 ca        1 REB     -0.454600
      9 C03         2.0090   -0.1750   -4.7970 ca        1 REB      0.479200
     10 N04         0.7100   -0.0340   -5.1060 nb        1 REB     -0.755000
     11 C05        -0.1610    0.0340   -4.0290 ca        1 REB      0.890900
     12 N06         0.2110   -0.0060   -2.6940 nb        1 REB     -0.788000
     13 C07         1.5410   -0.1720   -2.4330 ca        1 REB      0.702200
     14 N08         1.9990   -0.3390   -1.1130 nu        1 REB     -0.788600
     15 C09         1.1760   -0.0370   -0.0130 cc        1 REB      0.504200
     16 C11        -0.5090   -0.0770    1.4990 cd        1 REB     -0.073600
     17 N13         1.5390    0.8030    1.0270 nd        1 REB     -0.549800
     18 C14        -1.7300   -0.3120    2.2570 cx        1 REB     -0.061400
     19 C16        -1.7100   -0.3670    3.7660 cx        1 REB     -0.127400
     20 C18        -2.0830    0.5630   -5.4910 ca        1 REB      0.141600
     21 C19        -2.9950    1.6440   -5.4960 ca        1 REB     -0.136500
     22 C23        -1.7990   -0.0880   -6.7090 ca        1 REB     -0.136500
     23 C25        -3.2770    2.9720   -9.7630 c1        1 REB      0.212700
     24 N26        -2.7380    3.8740  -10.2610 n1        1 REB     -0.371800
     25 H10        -0.6870   -1.2930   -0.3780 ha        1 REB      0.181000
     26 H15        -1.8810    1.7830    3.1080 hc        1 REB      0.075200
     27 H15A       -3.4640    0.8710    3.0790 hc        1 REB      0.075200
     28 H20        -4.3030    2.8970   -6.6660 ha        1 REB      0.136500
     29 H22        -2.1600   -0.1720   -8.8310 ha        1 REB      0.136500
     30 H24        -3.9760    0.9970   -9.8920 hc        1 REB      0.078200
     31 H24A       -5.0250    2.1430   -8.9470 hc        1 REB      0.078200
     32 H02         3.5720   -0.3720   -3.2950 ha        1 REB      0.155000
     33 H03         2.6950   -0.2250   -5.6640 h4        1 REB      0.028100
     34 HN08        2.9610   -0.0840   -0.9960 hn        1 REB      0.433800
     35 H14        -2.4040   -1.0130    1.7210 hc        1 REB      0.101700
     36 H16        -0.7570   -0.2100    4.3010 hc        1 REB      0.075200
     37 H16A       -2.3410   -1.1200    4.2710 hc        1 REB      0.075200
     38 HN17       -2.0900    0.3800   -3.4620 hn        1 REB      0.436800
     39 H19        -3.2410    2.1710   -4.5610 ha        1 REB      0.147500
     40 H23        -1.1010   -0.9390   -6.7410 ha        1 REB      0.147500
     41 HN12        0.6030    1.2720    2.7510 hn        1 REB      0.321700
     42 N17        -1.5550    0.1010   -4.2630 nu        1 REB     -0.706300
@<TRIPOS>BOND
     1    1   15 1   
     2    1   16 2   
     3    1   25 1   
     4    2   16 1   
     5    2   17 1   
     6    2   41 1   
     7    3   18 1   
     8    3   19 1   
     9    3   26 1   
    10    3   27 1   
    11    4    5 ar  
    12    4   21 ar  
    13    4   28 1   
    14    5    6 ar  
    15    5    7 1   
    16    6   22 ar  
    17    6   29 1   
    18    7   23 1   
    19    7   30 1   
    20    7   31 1   
    21    8    9 ar  
    22    8   13 ar  
    23    8   32 1   
    24    9   10 ar  
    25    9   33 1   
    26   10   11 ar  
    27   11   12 ar  
    28   11   42 1   
    29   12   13 ar  
    30   13   14 1   
    31   14   15 1   
    32   14   34 1   
    33   15   17 2   
    34   16   18 1   
    35   18   19 1   
    36   18   35 1   
    37   19   36 1   
    38   19   37 1   
    39   20   21 ar  
    40   20   22 ar  
    41   20   42 1   
    42   21   39 1   
    43   22   40 1   
    44   23   24 3   
    45   38   42 1   
@<TRIPOS>SUBSTRUCTURE
     1 REB         1 TEMP              0 ****  ****    0 ROOT
