@<TRIPOS>MOLECULE
REB
   42    45     1     0     0
SMALL
bcc


@<TRIPOS>ATOM
      1 C10         3.6990    0.2010    0.6520 cc        1 REB     -0.246300
      2 N12         5.2230    0.2700   -0.9980 na        1 REB     -0.007600
      3 C15         5.5210    3.3630   -0.5970 cx        1 REB     -0.127400
      4 C20        -4.2620    1.7740   -0.5200 ca        1 REB     -0.103500
      5 C21        -5.2200    1.0350    0.1820 ca        1 REB     -0.106300
      6 C22        -4.7980    0.0250    1.0500 ca        1 REB     -0.103500
      7 C24        -6.6710    1.3380    0.0220 c3        1 REB      0.029000
      8 C02         0.8210   -3.3540    0.2050 ca        1 REB     -0.454600
      9 C03        -0.5640   -3.2720    0.3690 ca        1 REB      0.479200
     10 N04        -1.2400   -2.1200    0.5150 nb        1 REB     -0.755000
     11 C05        -0.4730   -0.9650    0.4980 ca        1 REB      0.890900
     12 N06         0.9010   -0.9190    0.3190 nb        1 REB     -0.788000
     13 C07         1.5450   -2.1180    0.1970 ca        1 REB      0.702200
     14 N08         2.9490   -2.1760    0.1260 nh        1 REB     -0.788600
     15 C09         3.7130   -1.0240   -0.1310 cc        1 REB      0.504200
     16 C11         4.6840    1.0120    0.0640 cd        1 REB     -0.073600
     17 N13         4.6630   -0.9250   -1.1350 nd        1 REB     -0.549800
     18 C14         5.1010    2.3540    0.4450 cx        1 REB     -0.061400
     19 C16         6.5450    2.7820    0.3290 cx        1 REB     -0.127400
     20 C18        -2.4760    0.4830    0.5120 ca        1 REB      0.141600
     21 C19        -2.9080    1.5050   -0.3660 ca        1 REB     -0.136500
     22 C23        -3.4450   -0.2500    1.2260 ca        1 REB     -0.136500
     23 C25        -7.2410    0.6880   -1.1400 c1        1 REB      0.212700
     24 N26        -7.7080    0.1700   -2.0710 n1        1 REB     -0.371800
     25 H10         3.0540    0.4290    1.4920 ha        1 REB      0.181000
     26 H15         5.5260    3.0700   -1.6620 hc        1 REB      0.075200
     27 H15A        5.2070    4.4140   -0.4650 hc        1 REB      0.075200
     28 H20        -4.5810    2.5720   -1.2070 ha        1 REB      0.136500
     29 H22        -5.5420   -0.5630    1.6100 ha        1 REB      0.136500
     30 H24        -7.2390    1.0020    0.9350 hc        1 REB      0.078200
     31 H24A       -6.8200    2.4510   -0.0810 hc        1 REB      0.078200
     32 H02         1.3240   -4.3200    0.0950 ha        1 REB      0.155000
     33 H03        -1.1870   -4.1860    0.3810 h4        1 REB      0.028100
     34 HN08        3.2840   -3.0080   -0.3210 hn        1 REB      0.433800
     35 H14         4.5200    2.7210    1.3170 hc        1 REB      0.101700
     36 H16         7.2900    2.0710   -0.0670 hc        1 REB      0.075200
     37 H16A        6.9690    3.4150    1.1290 hc        1 REB      0.075200
     38 HN17       -0.5270    1.0740    0.4690 hn        1 REB      0.436800
     39 H19        -2.1750    2.0980   -0.9350 ha        1 REB      0.147500
     40 H23        -3.1450   -1.0460    1.9250 ha        1 REB      0.147500
     41 HN12        5.9600    0.5470   -1.6020 hn        1 REB      0.321700
     42 N17        -1.0920    0.2870    0.7270 nh        1 REB     -0.706300
@<TRIPOS>BOND
     1    1   15 1   
     2    1   16 2   
     3    1   25 1   
     4    2   16 1   
     5    2   17 1   
     6    2   41 1   
     7    3   18 1   
     8    3   19 1   
     9    3   26 1   
    10    3   27 1   
    11    4    5 ar  
    12    4   21 ar  
    13    4   28 1   
    14    5    6 ar  
    15    5    7 1   
    16    6   22 ar  
    17    6   29 1   
    18    7   23 1   
    19    7   30 1   
    20    7   31 1   
    21    8    9 ar  
    22    8   13 ar  
    23    8   32 1   
    24    9   10 ar  
    25    9   33 1   
    26   10   11 ar  
    27   11   12 ar  
    28   11   42 1   
    29   12   13 ar  
    30   13   14 1   
    31   14   15 1   
    32   14   34 1   
    33   15   17 2   
    34   16   18 1   
    35   18   19 1   
    36   18   35 1   
    37   19   36 1   
    38   19   37 1   
    39   20   21 ar  
    40   20   22 ar  
    41   20   42 1   
    42   21   39 1   
    43   22   40 1   
    44   23   24 3   
    45   38   42 1   
@<TRIPOS>SUBSTRUCTURE
     1 REB         1 TEMP              0 ****  ****    0 ROOT
