@<TRIPOS>MOLECULE
REB
   44    47     1     0     0
SMALL
bcc


@<TRIPOS>ATOM
      1 C10         0.1390   -1.1920   -0.3970 c2        1 REB     -0.095200
      2 N12         0.2020    0.5150    1.1110 nh        1 REB      0.189500
      3 C15        -2.4560   -0.6700    2.3340 cx        1 REB     -0.084400
      4 C20        -2.3900    1.8730   -7.0470 ca        1 REB     -0.102000
      5 C21        -3.3370    0.8720   -6.7930 ca        1 REB     -0.002300
      6 C22        -3.5060    0.4000   -5.4830 ca        1 REB     -0.102000
      7 C24        -4.1740    0.3210   -7.8990 c3        1 REB      0.010000
      8 C02         2.8430    0.7670   -3.5290 ca        1 REB     -0.337600
      9 C03         2.4280    1.6110   -4.5650 ca        1 REB      0.500200
     10 N04         1.2000    2.1740   -4.6020 nb        1 REB     -0.662000
     11 C05         0.3800    1.8660   -3.5540 ca        1 REB      0.758900
     12 N06         0.6610    1.0770   -2.4650 nb        1 REB     -0.768000
     13 C07         1.9120    0.5110   -2.4690 ca        1 REB      0.691200
     14 N08         2.3020   -0.3800   -1.4600 nh        1 REB     -0.817900
     15 C09         1.5700   -0.6350   -0.2730 c3        1 REB      0.355900
     16 C11        -0.6500   -0.5210    0.4910 c2        1 REB     -0.064300
     17 N13         1.3780    0.5390    0.7120 n2        1 REB     -0.230300
     18 C14        -2.0470   -0.6390    0.8760 cx        1 REB     -0.168500
     19 C16        -2.5520   -1.9160    1.5180 cx        1 REB     -0.084400
     20 C18        -1.7900    1.9090   -4.7130 ca        1 REB     -0.075400
     21 C19        -1.6110    2.3970   -6.0200 ca        1 REB     -0.084500
     22 C23        -2.7370    0.9060   -4.4400 ca        1 REB     -0.084500
     23 C25        -3.3890    0.0430   -9.0820 c1        1 REB      0.175700
     24 N26        -2.7710   -0.1950  -10.0370 n1        1 REB     -0.298800
     25 H10        -0.1150   -2.0210   -1.0630 ha        1 REB      0.239000
     26 H15        -1.6830   -0.6040    3.1220 hc        1 REB      0.103700
     27 H15A       -3.3830   -0.1380    2.6260 hc        1 REB      0.103700
     28 H20        -2.2530    2.2500   -8.0770 ha        1 REB      0.181000
     29 H22        -4.2540   -0.3840   -5.2720 ha        1 REB      0.181000
     30 H24        -4.9800    1.0710   -8.1580 hc        1 REB      0.109200
     31 H24A       -4.6920   -0.6260   -7.5740 hc        1 REB      0.109200
     32 H02         3.8490    0.3180   -3.5440 ha        1 REB      0.204000
     33 H03         3.0950    1.8630   -5.4200 h4        1 REB      0.093100
     34 HN08        2.1750   -1.3950    0.3450 h2        1 REB      0.184700
     35 H14        -2.7200   -0.1200    0.1590 hc        1 REB      0.119700
     36 H16        -3.5470   -2.2900    1.2070 hc        1 REB      0.103700
     37 H16A       -1.8450   -2.7440    1.7080 hc        1 REB      0.103700
     38 HN17       -0.8870    3.4880   -3.7690 hn        1 REB      0.476300
     39 H19        -0.8670    3.1790   -6.2500 ha        1 REB      0.160000
     40 H23        -2.8870    0.5160   -3.4210 ha        1 REB      0.160000
     41 HN12       -0.1480    1.1430    1.8370 hn        1 REB      0.390700
     42 H082        3.2930   -0.5260   -1.3920 hn        1 REB      0.484800
     43 H172       -1.4820    2.3140   -2.7230 hn        1 REB      0.476300
     44 N17        -0.9940    2.4730   -3.6130 n4        1 REB     -0.604100
@<TRIPOS>BOND
     1    1   15 1   
     2    1   16 2   
     3    1   25 1   
     4    2   16 1   
     5    2   17 2   
     6    2   41 1   
     7    3   18 1   
     8    3   19 1   
     9    3   26 1   
    10    3   27 1   
    11    4    5 ar  
    12    4   21 ar  
    13    4   28 1   
    14    5    6 ar  
    15    5    7 1   
    16    6   22 ar  
    17    6   29 1   
    18    7   23 1   
    19    7   30 1   
    20    7   31 1   
    21    8    9 ar  
    22    8   13 ar  
    23    8   32 1   
    24    9   10 ar  
    25    9   33 1   
    26   10   11 ar  
    27   11   12 ar  
    28   11   44 1   
    29   12   13 ar  
    30   13   14 1   
    31   14   15 1   
    32   14   42 1   
    33   15   17 1   
    34   15   34 1   
    35   16   18 1   
    36   18   19 1   
    37   18   35 1   
    38   19   36 1   
    39   19   37 1   
    40   20   21 ar  
    41   20   22 ar  
    42   20   44 1   
    43   21   39 1   
    44   22   40 1   
    45   23   24 3   
    46   38   44 1   
    47   43   44 1   
@<TRIPOS>SUBSTRUCTURE
     1 REB         1 TEMP              0 ****  ****    0 ROOT
