@<TRIPOS>MOLECULE
REC
   46    46     1     0     0
SMALL
bcc


@<TRIPOS>ATOM
      1 O14         4.8100    0.4710    2.5480 o         1 REC     -0.827800
      2 C13         4.6020   -0.5390    1.8190 c         1 REC      0.837300
      3 O15         4.7790   -1.7240    2.2210 o         1 REC     -0.827800
      4 C4          4.0900   -0.3180    0.3910 ce        1 REC      0.470600
      5 N5          4.9230    0.0100   -0.5360 n2        1 REC     -0.611900
      6 C3          2.6260   -0.5000    0.2380 ce        1 REC     -0.234800
      7 C16         1.9580   -1.4060    0.9600 c2        1 REC     -0.156000
      8 C2          1.9730    0.3780   -0.7570 c3        1 REC      0.050900
      9 S1          2.7790    0.2520   -2.3320 ss        1 REC     -0.413200
     10 C6          4.5440    0.2860   -1.8820 c3        1 REC      0.196600
     11 C7          5.1960   -0.6620   -2.9330 c3        1 REC      0.133500
     12 C8          6.5960   -0.1550   -3.2490 c         1 REC      0.675100
     13 O9          7.0620    0.0090   -4.3710 o         1 REC     -0.476000
     14 N10         5.1790   -2.0730   -2.6470 n3        1 REC     -0.901800
     15 C11         7.8430   -0.3770   -1.1720 c         1 REC      0.693100
     16 O12         7.7290   -1.5970   -1.2370 o         1 REC     -0.530000
     17 CA1         8.4760    0.4970   -0.1340 c3        1 REC     -0.123400
     18 CB1         8.9720   -0.2930    1.0630 c3        1 REC     -0.075400
     19 CG1         8.1630    0.0270    2.3020 c3        1 REC     -0.104400
     20 CD1         8.5410   -0.8690    3.4610 c3        1 REC     -0.081400
     21 CE1         7.6660   -0.6140    4.6800 c3        1 REC     -0.035500
     22 NZ1         6.2510   -1.0250    4.4680 n4        1 REC     -0.843600
     23 CZ1         8.2710   -1.3270    5.9590 c         1 REC      0.921600
     24 OH1         9.4990   -1.1830    6.1430 o         1 REC     -0.797300
     25 O           7.4500   -1.9420    6.6940 o         1 REC     -0.797300
     26 OXT         7.4060    0.3670   -2.2500 os        1 REC     -0.502200
     27 H6          4.8920    1.3380   -2.0970 h2        1 REC      0.096700
     28 H161        2.4700   -2.0460    1.6970 ha        1 REC      0.130500
     29 H162        0.8760   -1.5570    0.8530 ha        1 REC      0.130500
     30 H2C1        0.9070    0.0910   -0.9350 h1        1 REC      0.074700
     31 H2C2        1.9960    1.4390   -0.4030 h1        1 REC      0.074700
     32 H7          4.6010   -0.5200   -3.8940 h1        1 REC      0.096700
     33 H10         5.8230   -2.3170   -1.9170 hn        1 REC      0.380800
     34 HA11        7.7090    1.2590    0.1760 hc        1 REC      0.085200
     35 HA12        9.3210    1.0480   -0.6250 hc        1 REC      0.085200
     36 HB11       10.0510   -0.0470    1.2470 hc        1 REC      0.054700
     37 HB12        8.9140   -1.3950    0.8530 hc        1 REC      0.054700
     38 HG11        7.0680   -0.0860    2.0640 hc        1 REC      0.057700
     39 HG12        8.3250    1.1000    2.5900 hc        1 REC      0.057700
     40 HD11        9.6010   -0.6780    3.7810 hc        1 REC      0.071200
     41 HD12        8.4770   -1.9460    3.1540 hc        1 REC      0.071200
     42 HE1         7.6610    0.4900    4.9090 hx        1 REC      0.074700
     43 HZ11        6.1740   -1.7280    3.7180 hn        1 REC      0.461800
     44 HZ12        5.9090   -1.4350    5.3490 hn        1 REC      0.461800
     45 H102        4.2520   -2.3520   -2.3870 hn        1 REC      0.380800
     46 HZ13        5.6640   -0.2270    4.1800 hn        1 REC      0.461800
@<TRIPOS>BOND
     1    1    2 1   
     2    2    3 1   
     3    2    4 1   
     4    4    5 2   
     5    4    6 1   
     6    5   10 1   
     7    6    7 2   
     8    6    8 1   
     9    7   28 1   
    10    7   29 1   
    11    8    9 1   
    12    8   30 1   
    13    8   31 1   
    14    9   10 1   
    15   10   11 1   
    16   10   27 1   
    17   11   12 1   
    18   11   14 1   
    19   11   32 1   
    20   12   13 2   
    21   12   26 1   
    22   14   33 1   
    23   14   45 1   
    24   15   16 2   
    25   15   17 1   
    26   15   26 1   
    27   17   18 1   
    28   17   34 1   
    29   17   35 1   
    30   18   19 1   
    31   18   36 1   
    32   18   37 1   
    33   19   20 1   
    34   19   38 1   
    35   19   39 1   
    36   20   21 1   
    37   20   40 1   
    38   20   41 1   
    39   21   22 1   
    40   21   23 1   
    41   21   42 1   
    42   22   43 1   
    43   22   44 1   
    44   22   46 1   
    45   23   24 1   
    46   23   25 1   
@<TRIPOS>SUBSTRUCTURE
     1 REC         1 TEMP              0 ****  ****    0 ROOT
