@<TRIPOS>MOLECULE
REC
   46    46     1     0     0
SMALL
bcc


@<TRIPOS>ATOM
      1 O14         4.8150    0.5400    2.3270 o         1 REC     -0.827300
      2 C13         4.6780   -0.5010    1.6240 c         1 REC      0.835300
      3 O15         4.9620   -1.6580    2.0460 o         1 REC     -0.827300
      4 C4          4.1380   -0.3490    0.1970 ce        1 REC      0.473600
      5 N5          4.9530    0.0070   -0.7350 n2        1 REC     -0.620900
      6 C3          2.6900   -0.6270    0.0490 ce        1 REC     -0.233800
      7 C16         2.0730   -1.5260    0.8230 c2        1 REC     -0.153000
      8 C2          1.9910    0.1440   -1.0040 c3        1 REC      0.050900
      9 S1          2.8300    0.0140   -2.5610 ss        1 REC     -0.412200
     10 C6          4.5710    0.2550   -2.0840 c3        1 REC      0.197600
     11 C7          5.3540   -0.5970   -3.1280 c3        1 REC      0.132500
     12 C8          6.7690   -0.0440   -3.2560 c         1 REC      0.677100
     13 O9          7.3020    0.2800   -4.3130 o         1 REC     -0.483000
     14 N10         5.3260   -2.0250   -2.9560 n8        1 REC     -0.904800
     15 C11         7.7640   -0.4950   -1.0780 c         1 REC      0.697100
     16 O12         7.7060   -1.7060   -1.2760 o         1 REC     -0.532000
     17 CA1         8.1710    0.2700    0.1400 c3        1 REC     -0.120400
     18 CB1         8.2330   -0.6360    1.3530 c3        1 REC     -0.091400
     19 CG1         8.7040    0.1360    2.5680 c3        1 REC     -0.087400
     20 CD1         8.7430   -0.7210    3.8180 c3        1 REC     -0.086400
     21 CE1         7.6290   -0.4050    4.8050 c3        1 REC     -0.040500
     22 NZ1         6.2840   -0.8180    4.3250 nz        1 REC     -0.842600
     23 CZ1         7.9510   -1.0630    6.2130 c         1 REC      0.921600
     24 OH1         9.1080   -0.8840    6.6500 o         1 REC     -0.794800
     25 O           7.0020   -1.6740    6.7740 o         1 REC     -0.794800
     26 OXT         7.5110    0.3370   -2.1520 os        1 REC     -0.493200
     27 H6          4.8010    1.3420   -2.2840 h2        1 REC      0.094700
     28 H161        1.0040   -1.7520    0.7200 ha        1 REC      0.130000
     29 H162        2.6180   -2.0840    1.6020 ha        1 REC      0.130000
     30 H2C1        0.9560   -0.2380   -1.1840 h1        1 REC      0.074700
     31 H2C2        1.9200    1.2200   -0.7030 h1        1 REC      0.074700
     32 H7          4.8580   -0.3830   -4.1300 h1        1 REC      0.094700
     33 H10         4.3800   -2.3270   -2.8200 hn        1 REC      0.381300
     34 HA11        7.4220    1.0920    0.3090 hc        1 REC      0.085200
     35 HA12        9.1680    0.7430   -0.0610 hc        1 REC      0.085200
     36 HB11        7.2100   -1.0670    1.5390 hc        1 REC      0.068700
     37 HB12        8.9240   -1.4950    1.1480 hc        1 REC      0.068700
     38 HG11        8.0330    1.0220    2.7240 hc        1 REC      0.040200
     39 HG12        9.7330    0.5390    2.3660 hc        1 REC      0.040200
     40 HD11        8.7270   -1.8100    3.5500 hc        1 REC      0.074700
     41 HD12        9.7040   -0.5380    4.3770 hc        1 REC      0.074700
     42 HE1         7.5930    0.7080    4.9850 hx        1 REC      0.074700
     43 HZ11        5.7470   -0.0200    3.9500 hn        1 REC      0.462133
     44 HZ12        6.3430   -1.5140    3.5690 hn        1 REC      0.462133
     45 H102        5.8930   -2.3270   -2.1860 hn        1 REC      0.381300
     46 HZ13        5.7820   -1.2400    5.1210 hn        1 REC      0.462133
@<TRIPOS>BOND
     1    1    2 1   
     2    2    3 1   
     3    2    4 1   
     4    4    5 2   
     5    4    6 1   
     6    5   10 1   
     7    6    7 2   
     8    6    8 1   
     9    7   28 1   
    10    7   29 1   
    11    8    9 1   
    12    8   30 1   
    13    8   31 1   
    14    9   10 1   
    15   10   11 1   
    16   10   27 1   
    17   11   12 1   
    18   11   14 1   
    19   11   32 1   
    20   12   13 2   
    21   12   26 1   
    22   14   33 1   
    23   14   45 1   
    24   15   16 2   
    25   15   17 1   
    26   15   26 1   
    27   17   18 1   
    28   17   34 1   
    29   17   35 1   
    30   18   19 1   
    31   18   36 1   
    32   18   37 1   
    33   19   20 1   
    34   19   38 1   
    35   19   39 1   
    36   20   21 1   
    37   20   40 1   
    38   20   41 1   
    39   21   22 1   
    40   21   23 1   
    41   21   42 1   
    42   22   43 1   
    43   22   44 1   
    44   22   46 1   
    45   23   24 1   
    46   23   25 1   
@<TRIPOS>SUBSTRUCTURE
     1 REC         1 TEMP              0 ****  ****    0 ROOT
