@<TRIPOS>MOLECULE
REC
   46    46     1     0     0
SMALL
bcc


@<TRIPOS>ATOM
      1 O14         4.6650    0.6440    2.5220 o         1 REC     -0.827300
      2 C13         4.4730   -0.3660    1.7890 c         1 REC      0.838300
      3 O15         4.6330   -1.5530    2.1950 o         1 REC     -0.827300
      4 C4          4.0120   -0.1430    0.3440 ce        1 REC      0.470600
      5 N5          4.8840    0.2170   -0.5330 n2        1 REC     -0.612900
      6 C3          2.5660   -0.3630    0.1070 ce        1 REC     -0.235800
      7 C16         1.8730   -1.2620    0.8150 c2        1 REC     -0.153000
      8 C2          1.9540    0.4680   -0.9540 c3        1 REC      0.051900
      9 S1          2.8670    0.3580   -2.4730 ss        1 REC     -0.408200
     10 C6          4.5830    0.5110   -1.8940 c3        1 REC      0.192600
     11 C7          5.4260   -0.3510   -2.8940 c3        1 REC      0.155500
     12 C8          6.8780   -0.0210   -2.5760 c         1 REC      0.678100
     13 O9          7.4080    1.0840   -2.6950 o         1 REC     -0.542000
     14 N10         5.1100   -1.7550   -2.9450 n3        1 REC     -0.902800
     15 C11         8.8120   -0.8220   -1.3880 c         1 REC      0.674100
     16 O12         9.7840   -1.4280   -1.8190 o         1 REC     -0.475000
     17 CA1         8.6630   -0.0100   -0.1430 c3        1 REC     -0.155400
     18 CB1         8.7610   -0.9020    1.0820 c3        1 REC     -0.067400
     19 CG1         8.1480   -0.2250    2.2900 c3        1 REC     -0.098400
     20 CD1         8.3330   -1.0680    3.5340 c3        1 REC     -0.082400
     21 CE1         7.4910   -0.5650    4.6980 c3        1 REC     -0.036500
     22 NZ1         6.0350   -0.8070    4.5000 n4        1 REC     -0.846600
     23 CZ1         7.9850   -1.2130    6.0570 c         1 REC      0.921600
     24 OH1         9.2170   -1.1880    6.2650 o         1 REC     -0.796300
     25 O           7.0870   -1.6630    6.8200 o         1 REC     -0.796300
     26 OXT         7.6590   -1.0610   -2.1510 os        1 REC     -0.484200
     27 H6          4.8740    1.5900   -2.0590 h2        1 REC      0.106700
     28 H161        2.3520   -1.8660    1.6030 ha        1 REC      0.131000
     29 H162        0.8040   -1.4430    0.6450 ha        1 REC      0.131000
     30 H2C1        0.9160    0.1330   -1.2010 h1        1 REC      0.075700
     31 H2C2        1.9080    1.5360   -0.6220 h1        1 REC      0.075700
     32 H7          5.2230    0.0720   -3.9260 h1        1 REC      0.094700
     33 H10         4.1160   -1.8800   -2.8780 hn        1 REC      0.376300
     34 HA11        7.6730    0.5240   -0.1560 hc        1 REC      0.089700
     35 HA12        9.4730    0.7660   -0.1270 hc        1 REC      0.089700
     36 HB11        9.8360   -1.1520    1.2810 hc        1 REC      0.051700
     37 HB12        8.2220   -1.8680    0.8910 hc        1 REC      0.051700
     38 HG11        8.6220    0.7800    2.4430 hc        1 REC      0.056200
     39 HG12        7.0530   -0.0490    2.0940 hc        1 REC      0.056200
     40 HD11        8.0910   -2.1410    3.3120 hc        1 REC      0.071200
     41 HD12        9.4050   -1.0340    3.8750 hc        1 REC      0.071200
     42 HE1         7.6350    0.5470    4.8080 hx        1 REC      0.075700
     43 HZ11        5.6450   -1.1210    5.4010 hn        1 REC      0.462133
     44 HZ12        5.5520    0.0410    4.1690 hn        1 REC      0.462133
     45 H102        5.5680   -2.2600   -2.2090 hn        1 REC      0.376300
     46 HZ13        5.8710   -1.5350    3.7880 hn        1 REC      0.462133
@<TRIPOS>BOND
     1    1    2 1   
     2    2    3 1   
     3    2    4 1   
     4    4    5 2   
     5    4    6 1   
     6    5   10 1   
     7    6    7 2   
     8    6    8 1   
     9    7   28 1   
    10    7   29 1   
    11    8    9 1   
    12    8   30 1   
    13    8   31 1   
    14    9   10 1   
    15   10   11 1   
    16   10   27 1   
    17   11   12 1   
    18   11   14 1   
    19   11   32 1   
    20   12   13 2   
    21   12   26 1   
    22   14   33 1   
    23   14   45 1   
    24   15   16 2   
    25   15   17 1   
    26   15   26 1   
    27   17   18 1   
    28   17   34 1   
    29   17   35 1   
    30   18   19 1   
    31   18   36 1   
    32   18   37 1   
    33   19   20 1   
    34   19   38 1   
    35   19   39 1   
    36   20   21 1   
    37   20   40 1   
    38   20   41 1   
    39   21   22 1   
    40   21   23 1   
    41   21   42 1   
    42   22   43 1   
    43   22   44 1   
    44   22   46 1   
    45   23   24 1   
    46   23   25 1   
@<TRIPOS>SUBSTRUCTURE
     1 REC         1 TEMP              0 ****  ****    0 ROOT
