@<TRIPOS>MOLECULE
REC
   44    44     1     0     0
SMALL
bcc


@<TRIPOS>ATOM
      1 O14        -5.5900   -2.4220    2.0150 o         1 REC     -0.831300
      2 C13        -4.3690   -2.3450    1.7120 c         1 REC      0.848300
      3 O15        -3.4990   -3.2110    1.9970 o         1 REC     -0.831300
      4 C4         -3.9340   -1.1340    0.8470 ce        1 REC      0.420600
      5 N5         -3.7110    0.0220    1.3630 n2        1 REC     -0.572900
      6 C3         -3.8780   -1.4610   -0.6030 ce        1 REC     -0.189800
      7 C16        -3.3380   -2.6030   -1.0400 c2        1 REC     -0.212000
      8 C2         -4.4560   -0.4420   -1.5080 c3        1 REC      0.058900
      9 S1         -3.7430    1.1510   -1.2190 ss        1 REC     -0.507200
     10 C6         -3.4530    1.2070    0.6230 c3        1 REC      0.299600
     11 C7         -2.0760    1.8970    0.7870 c3        1 REC     -0.028300
     12 C8         -2.1940    2.9360    1.9680 c         1 REC      0.912600
     13 O9         -1.4110    2.8440    2.9520 o         1 REC     -0.842300
     14 N10        -0.9730    0.9780    0.9360 n         1 REC     -0.494900
     15 C11         0.2000    1.1120    0.2200 c         1 REC      0.651100
     16 O12         0.2880    1.8060   -0.8190 o         1 REC     -0.654100
     17 CA1         1.3920    0.2950    0.7100 c3        1 REC     -0.154400
     18 CB1         2.6150    0.5040   -0.1590 c3        1 REC     -0.070400
     19 CG1         3.7920   -0.3150    0.3320 c3        1 REC     -0.077400
     20 CD1         5.0080   -0.1420   -0.5560 c3        1 REC     -0.067400
     21 CE1         6.2290   -0.9230   -0.0590 c3        1 REC      0.029500
     22 NZ1         6.0310   -2.3670   -0.0100 n3        1 REC     -0.896800
     23 CZ1         7.4750   -0.4820   -0.8920 c         1 REC      0.888600
     24 OH1         8.0830   -1.3530   -1.5850 o         1 REC     -0.858800
     25 O           7.8460    0.7230   -0.8130 o         1 REC     -0.858800
     26 OXT        -3.0650    3.8410    1.8320 o         1 REC     -0.842300
     27 H6         -4.2230    1.9670    0.9570 h2        1 REC      0.113700
     28 H161       -2.9260   -3.3390   -0.3330 ha        1 REC      0.112000
     29 H162       -3.2790   -2.8550   -2.1050 ha        1 REC      0.112000
     30 H2C1       -4.2680   -0.6850   -2.5820 h1        1 REC      0.044700
     31 H2C2       -5.5630   -0.3910   -1.3520 h1        1 REC      0.044700
     32 H7         -1.9090    2.5090   -0.1510 h1        1 REC      0.088700
     33 H10        -0.8920    0.6090    1.8610 hn        1 REC      0.313500
     34 HA11        1.6240    0.5930    1.7660 hc        1 REC      0.056700
     35 HA12        1.1100   -0.7900    0.7150 hc        1 REC      0.056700
     36 HB11        2.3680    0.2240   -1.2170 hc        1 REC      0.046700
     37 HB12        2.8820    1.5930   -0.1690 hc        1 REC      0.046700
     38 HG11        4.0510   -0.0080    1.3790 hc        1 REC      0.031700
     39 HG12        3.4980   -1.3970    0.3710 hc        1 REC      0.031700
     40 HD11        4.7550   -0.4570   -1.6020 hc        1 REC      0.042700
     41 HD12        5.3010    0.9410   -0.5950 hc        1 REC      0.042700
     42 HE1         6.4330   -0.6040    1.0060 h1        1 REC      0.041700
     43 HZ11        5.3780   -2.6350   -0.7250 hn        1 REC      0.327800
     44 HZ12        6.9070   -2.8060   -0.2430 hn        1 REC      0.327800
@<TRIPOS>BOND
     1    1    2 1   
     2    2    3 1   
     3    2    4 1   
     4    4    5 2   
     5    4    6 1   
     6    5   10 1   
     7    6    7 2   
     8    6    8 1   
     9    7   28 1   
    10    7   29 1   
    11    8    9 1   
    12    8   30 1   
    13    8   31 1   
    14    9   10 1   
    15   10   11 1   
    16   10   27 1   
    17   11   12 1   
    18   11   14 1   
    19   11   32 1   
    20   12   13 1   
    21   12   26 1   
    22   14   15 1   
    23   14   33 1   
    24   15   16 2   
    25   15   17 1   
    26   17   18 1   
    27   17   34 1   
    28   17   35 1   
    29   18   19 1   
    30   18   36 1   
    31   18   37 1   
    32   19   20 1   
    33   19   38 1   
    34   19   39 1   
    35   20   21 1   
    36   20   40 1   
    37   20   41 1   
    38   21   22 1   
    39   21   23 1   
    40   21   42 1   
    41   22   43 1   
    42   22   44 1   
    43   23   24 1   
    44   23   25 1   
@<TRIPOS>SUBSTRUCTURE
     1 REC         1 TEMP              0 ****  ****    0 ROOT
