@<TRIPOS>MOLECULE
RED
   27    26     1     0     0
SMALL
bcc


@<TRIPOS>ATOM
      1 C1          0.0310   -0.2680   -0.0340 c         1 RED      0.908600
      2 O1          1.1490   -0.8590   -0.0270 o         1 RED     -0.850300
      3 OXT        -0.4910    0.2690    0.9860 o         1 RED     -0.850300
      4 C2         -0.7610   -0.2120   -1.3530 c3        1 RED     -0.196400
      5 C3          0.1390    0.1290   -2.5160 c3        1 RED     -0.065400
      6 C4         -0.5770   -0.0220   -3.8430 c3        1 RED     -0.084400
      7 C5          0.3320    0.3430   -4.9990 c3        1 RED     -0.090400
      8 C6         -0.3550    0.2070   -6.3410 c3        1 RED      0.056400
      9 C7          0.6510    0.0530   -7.4650 c3        1 RED     -0.063400
     10 C8         -0.0320   -0.1830   -8.7890 c3        1 RED      0.012700
     11 S8          1.2370   -0.4060  -10.0100 sh        1 RED     -0.392900
     12 S6         -1.3650    1.6360   -6.7530 sh        1 RED     -0.452900
     13 H22        -1.5830    0.5410   -1.2610 hc        1 RED      0.019700
     14 H21        -1.2290   -1.2160   -1.5120 hc        1 RED      0.019700
     15 H32         0.5080    1.1820   -2.4060 hc        1 RED      0.047700
     16 H31         1.0380   -0.5430   -2.4820 hc        1 RED      0.047700
     17 H42        -1.4900    0.6290   -3.8500 hc        1 RED      0.028200
     18 H41        -0.9260   -1.0810   -3.9600 hc        1 RED      0.028200
     19 H52         0.7120    1.3910   -4.8700 hc        1 RED      0.055700
     20 H51         1.2290   -0.3340   -4.9740 hc        1 RED      0.055700
     21 H6         -1.0360   -0.6830   -6.3230 h1        1 RED      0.069700
     22 H72         1.3270   -0.8140   -7.2290 hc        1 RED      0.067700
     23 H71         1.2930    0.9730   -7.5230 hc        1 RED      0.067700
     24 H82        -0.6800    0.6890   -9.0530 h1        1 RED      0.068700
     25 H81        -0.6780   -1.0930   -8.7400 h1        1 RED      0.068700
     26 H8S         0.4730   -0.4810  -11.0840 hs        1 RED      0.193800
     27 H6S        -1.7910    1.9630   -5.5420 hs        1 RED      0.230800
@<TRIPOS>BOND
     1    1    2 1   
     2    1    3 1   
     3    1    4 1   
     4    4    5 1   
     5    4   13 1   
     6    4   14 1   
     7    5    6 1   
     8    5   15 1   
     9    5   16 1   
    10    6    7 1   
    11    6   17 1   
    12    6   18 1   
    13    7    8 1   
    14    7   19 1   
    15    7   20 1   
    16    8    9 1   
    17    8   12 1   
    18    8   21 1   
    19    9   10 1   
    20    9   22 1   
    21    9   23 1   
    22   10   11 1   
    23   10   24 1   
    24   10   25 1   
    25   11   26 1   
    26   12   27 1   
@<TRIPOS>SUBSTRUCTURE
     1 RED         1 TEMP              0 ****  ****    0 ROOT
