@<TRIPOS>MOLECULE
RED
   27    26     1     0     0
SMALL
bcc


@<TRIPOS>ATOM
      1 C1          0.0070   -0.3010   -0.0350 c         1 RED      0.908600
      2 O1          1.1140   -0.9120   -0.0290 o         1 RED     -0.850300
      3 OXT        -0.5090    0.2380    0.9850 o         1 RED     -0.850300
      4 C2         -0.7790   -0.2230   -1.3580 c3        1 RED     -0.196400
      5 C3          0.1310    0.1090   -2.5140 c3        1 RED     -0.065400
      6 C4         -0.5820   -0.0210   -3.8450 c3        1 RED     -0.084400
      7 C5          0.3370    0.3350   -4.9960 c3        1 RED     -0.090400
      8 C6         -0.3470    0.2210   -6.3410 c3        1 RED      0.056400
      9 C7          0.6600    0.0560   -7.4620 c3        1 RED     -0.063400
     10 C8         -0.0220   -0.1590   -8.7900 c3        1 RED      0.012700
     11 S8          1.2460   -0.3980  -10.0080 sh        1 RED     -0.392900
     12 S6         -1.3280    1.6710   -6.7470 sh        1 RED     -0.452900
     13 H22        -1.5880    0.5430   -1.2640 hc        1 RED      0.019700
     14 H21        -1.2640   -1.2180   -1.5250 hc        1 RED      0.019700
     15 H32         1.0180   -0.5790   -2.4820 hc        1 RED      0.047700
     16 H31         0.5190    1.1540   -2.3970 hc        1 RED      0.047700
     17 H42        -0.9500   -1.0730   -3.9700 hc        1 RED      0.028200
     18 H41        -1.4830    0.6470   -3.8520 hc        1 RED      0.028200
     19 H52         0.7360    1.3750   -4.8590 hc        1 RED      0.055700
     20 H51         1.2220   -0.3580   -4.9720 hc        1 RED      0.055700
     21 H6         -1.0450   -0.6560   -6.3320 h1        1 RED      0.069700
     22 H72         1.3190   -0.8260   -7.2300 hc        1 RED      0.067700
     23 H71         1.3190    0.9640   -7.5120 hc        1 RED      0.067700
     24 H82        -0.6860   -1.0560   -8.7500 h1        1 RED      0.068700
     25 H81        -0.6530    0.7280   -9.0510 h1        1 RED      0.068700
     26 H8S         0.4850   -0.4500  -11.0850 hs        1 RED      0.193800
     27 H6S        -1.7530    1.9980   -5.5350 hs        1 RED      0.230800
@<TRIPOS>BOND
     1    1    2 1   
     2    1    3 1   
     3    1    4 1   
     4    4    5 1   
     5    4   13 1   
     6    4   14 1   
     7    5    6 1   
     8    5   15 1   
     9    5   16 1   
    10    6    7 1   
    11    6   17 1   
    12    6   18 1   
    13    7    8 1   
    14    7   19 1   
    15    7   20 1   
    16    8    9 1   
    17    8   12 1   
    18    8   21 1   
    19    9   10 1   
    20    9   22 1   
    21    9   23 1   
    22   10   11 1   
    23   10   24 1   
    24   10   25 1   
    25   11   26 1   
    26   12   27 1   
@<TRIPOS>SUBSTRUCTURE
     1 RED         1 TEMP              0 ****  ****    0 ROOT
