@<TRIPOS>MOLECULE
RED
   27    26     1     0     0
SMALL
bcc


@<TRIPOS>ATOM
      1 C1          0.4940   -0.1620    4.8300 c         1 RED      0.908600
      2 O1          1.7460   -0.3380    4.7900 o         1 RED     -0.850300
      3 OXT        -0.1350    0.2120    5.8610 o         1 RED     -0.850300
      4 C2         -0.3250   -0.4390    3.5550 c3        1 RED     -0.196400
      5 C3          0.3530    0.1330    2.3350 c3        1 RED     -0.065400
      6 C4         -0.3240   -0.3130    1.0550 c3        1 RED     -0.084400
      7 C5          0.3550    0.2850   -0.1600 c3        1 RED     -0.090400
      8 C6         -0.3010   -0.1380   -1.4570 c3        1 RED      0.056400
      9 C7          0.6480    0.0070   -2.6310 c3        1 RED     -0.063400
     10 C8          0.0300   -0.5080   -3.9070 c3        1 RED      0.012700
     11 S8          1.2450   -0.3430   -5.1910 sh        1 RED     -0.392900
     12 S6         -1.7550    0.8420   -1.8530 sh        1 RED     -0.452900
     13 H22        -0.4290   -1.5490    3.4520 hc        1 RED      0.019700
     14 H21        -1.3500   -0.0070    3.6720 hc        1 RED      0.019700
     15 H32         0.3460    1.2530    2.3930 hc        1 RED      0.047700
     16 H31         1.4290   -0.1910    2.3380 hc        1 RED      0.047700
     17 H42        -0.2950   -1.4330    0.9880 hc        1 RED      0.028200
     18 H41        -1.4040   -0.0120    1.0800 hc        1 RED      0.028200
     19 H52         0.3590    1.4040   -0.0830 hc        1 RED      0.055700
     20 H51         1.4290   -0.0450   -0.1670 hc        1 RED      0.055700
     21 H6         -0.6360   -1.2050   -1.3760 h1        1 RED      0.069700
     22 H72         0.9330    1.0870   -2.7510 hc        1 RED      0.067700
     23 H71         1.5890   -0.5670   -2.4090 hc        1 RED      0.067700
     24 H82        -0.2630   -1.5790   -3.7960 h1        1 RED      0.068700
     25 H81        -0.8870    0.0790   -4.1590 h1        1 RED      0.068700
     26 H8S         0.5070   -0.7220   -6.2170 hs        1 RED      0.193800
     27 H6S        -2.2150    1.0610   -0.6290 hs        1 RED      0.230800
@<TRIPOS>BOND
     1    1    2 1   
     2    1    3 1   
     3    1    4 1   
     4    4    5 1   
     5    4   13 1   
     6    4   14 1   
     7    5    6 1   
     8    5   15 1   
     9    5   16 1   
    10    6    7 1   
    11    6   17 1   
    12    6   18 1   
    13    7    8 1   
    14    7   19 1   
    15    7   20 1   
    16    8    9 1   
    17    8   12 1   
    18    8   21 1   
    19    9   10 1   
    20    9   22 1   
    21    9   23 1   
    22   10   11 1   
    23   10   24 1   
    24   10   25 1   
    25   11   26 1   
    26   12   27 1   
@<TRIPOS>SUBSTRUCTURE
     1 RED         1 TEMP              0 ****  ****    0 ROOT
