@<TRIPOS>MOLECULE
REE
   24    23     1     0     0
SMALL
bcc


@<TRIPOS>ATOM
      1 C1          0.6100    0.4610    1.3940 c         1 REE      0.886600
      2 N1         -0.8390    0.1000    3.7460 n3        1 REE     -0.583000
      3 O1          1.8550    0.2470    1.4140 o         1 REE     -0.834800
      4 C2         -0.3440   -0.7370    1.3750 c3        1 REE     -0.240400
      5 N2          0.3830    0.2390    4.5080 n4        1 REE     -0.383600
      6 O2          0.1070    1.6170    1.5380 o         1 REE     -0.834800
      7 C3         -0.9440   -0.9790    2.7580 c3        1 REE      0.140800
      8 C4          1.0690    1.5760    4.3080 c3        1 REE      0.083433
      9 C5          0.0030    0.1570    5.9700 c3        1 REE      0.083433
     10 C6          1.4230   -0.8240    4.2650 c3        1 REE      0.083433
     11 HN1        -0.9710    0.9840    3.2340 hn        1 REE      0.440800
     12 H2          0.2070   -1.6500    1.0400 hc        1 REE      0.063700
     13 H2A        -1.1620   -0.5280    0.6410 hc        1 REE      0.063700
     14 H3         -0.5570   -1.9450    3.1830 h1        1 REE      0.066700
     15 H3A        -2.0670   -1.0830    2.6650 h1        1 REE      0.066700
     16 H4          1.8970    1.6630    5.0550 hx        1 REE      0.099589
     17 H4A         0.3280    2.4040    4.4560 hx        1 REE      0.099589
     18 H4B         1.4860    1.6370    3.2550 hx        1 REE      0.099589
     19 H5         -0.4940   -0.8250    6.1790 hx        1 REE      0.099589
     20 H5A        -0.6990    0.9920    6.2240 hx        1 REE      0.099589
     21 H5B         0.9390    0.2470    6.5800 hx        1 REE      0.099589
     22 H6          1.7180   -0.8280    3.1700 hx        1 REE      0.099589
     23 H6A         1.0220   -1.8240    4.5700 hx        1 REE      0.099589
     24 H6B         2.3250   -0.5800    4.8830 hx        1 REE      0.099589
@<TRIPOS>BOND
     1    1    3 1   
     2    1    4 1   
     3    1    6 1   
     4    2    5 1   
     5    2    7 1   
     6    2   11 1   
     7    4    7 1   
     8    4   12 1   
     9    4   13 1   
    10    5    8 1   
    11    5    9 1   
    12    5   10 1   
    13    7   14 1   
    14    7   15 1   
    15    8   16 1   
    16    8   17 1   
    17    8   18 1   
    18    9   19 1   
    19    9   20 1   
    20    9   21 1   
    21   10   22 1   
    22   10   23 1   
    23   10   24 1   
@<TRIPOS>SUBSTRUCTURE
     1 REE         1 TEMP              0 ****  ****    0 ROOT
