@<TRIPOS>MOLECULE
REE
   24    23     1     0     0
SMALL
bcc


@<TRIPOS>ATOM
      1 C1         -1.2730    0.3130    0.5010 c         1 REE      0.886600
      2 N1          1.0320   -1.1540   -0.0450 n3        1 REE     -0.583000
      3 O1         -1.2120    1.5740    0.4520 o         1 REE     -0.834800
      4 C2         -1.3170   -0.4750   -0.8120 c3        1 REE     -0.240400
      5 N2          1.8320    0.0130    0.2520 n4        1 REE     -0.383600
      6 O2         -1.1510   -0.3420    1.5810 o         1 REE     -0.834800
      7 C3          0.0460   -1.0840   -1.1290 c3        1 REE      0.140800
      8 C4          1.6490    0.5250    1.6670 c3        1 REE      0.083433
      9 C5          3.2820   -0.4000    0.1220 c3        1 REE      0.083433
     10 C6          1.6290    1.1910   -0.6660 c3        1 REE      0.083433
     11 HN1         0.5110   -1.3830    0.8130 hn        1 REE      0.440800
     12 H2         -2.0790   -1.2880   -0.7110 hc        1 REE      0.063700
     13 H2A        -1.6300    0.2020   -1.6450 hc        1 REE      0.063700
     14 H3          0.4880   -0.5890   -2.0370 h1        1 REE      0.066700
     15 H3A        -0.0840   -2.1800   -1.3790 h1        1 REE      0.066700
     16 H4          1.7690   -0.3220    2.3920 hx        1 REE      0.099589
     17 H4A         2.4230    1.3100    1.8620 hx        1 REE      0.099589
     18 H4B         0.6110    0.9650    1.7820 hx        1 REE      0.099589
     19 H5          3.4790   -0.7720   -0.9170 hx        1 REE      0.099589
     20 H5A         3.9220    0.4940    0.3340 hx        1 REE      0.099589
     21 H5B         3.5090   -1.2140    0.8580 hx        1 REE      0.099589
     22 H6          0.5440    1.5200   -0.6320 hx        1 REE      0.099589
     23 H6A         2.2750    2.0330   -0.3060 hx        1 REE      0.099589
     24 H6B         1.9250    0.9150   -1.7090 hx        1 REE      0.099589
@<TRIPOS>BOND
     1    1    3 1   
     2    1    4 1   
     3    1    6 1   
     4    2    5 1   
     5    2    7 1   
     6    2   11 1   
     7    4    7 1   
     8    4   12 1   
     9    4   13 1   
    10    5    8 1   
    11    5    9 1   
    12    5   10 1   
    13    7   14 1   
    14    7   15 1   
    15    8   16 1   
    16    8   17 1   
    17    8   18 1   
    18    9   19 1   
    19    9   20 1   
    20    9   21 1   
    21   10   22 1   
    22   10   23 1   
    23   10   24 1   
@<TRIPOS>SUBSTRUCTURE
     1 REE         1 TEMP              0 ****  ****    0 ROOT
