@<TRIPOS>MOLECULE
REE
   24    22     1     0     0
SMALL
bcc


@<TRIPOS>ATOM
      1 C1          1.5350    2.0590   -2.5090 c1        1 REE      0.306000
      2 N1         -0.2060    0.6080    0.5180 n3        1 REE     -0.220000
      3 O1          2.7980    2.0590   -2.5090 o         1 REE     -0.569500
      4 C2          0.7710    2.0590   -1.1840 c2        1 REE     -0.269000
      5 N2         -0.5790   -0.7280    0.8500 n4        1 REE      0.091000
      6 O2          0.9040    2.1300   -3.6010 o         1 REE     -0.569500
      7 C3          0.5410    0.6080   -0.7250 c3        1 REE     -0.096000
      8 C4         -1.2470   -0.7370    2.1380 c3        1 REE     -0.192667
      9 C5          0.6090   -1.5590    0.9160 c3        1 REE     -0.192667
     10 C6         -1.4760   -1.2460   -0.1650 c3        1 REE     -0.192667
     11 HN1         0.3120    0.9540    1.1840 hn        1 REE      0.236000
     12 H2         -0.0900    2.5020   -1.3050 ha        1 REE      0.103000
     13 H2A         1.2910    2.5350   -0.5090 ha        1 REE      0.103000
     14 H3          1.4020    0.1700   -0.5870 h1        1 REE      0.106000
     15 H3A         0.0360    0.1270   -1.4080 h1        1 REE      0.106000
     16 H4         -1.5450   -1.6430    2.3440 hx        1 REE      0.138889
     17 H4A        -2.0200   -0.1400    2.1070 hx        1 REE      0.138889
     18 H4B        -0.6280   -0.4330    2.8280 hx        1 REE      0.138889
     19 H5          0.9030   -1.7790    0.0120 hx        1 REE      0.138889
     20 H5A         0.4040   -2.3810    1.4020 hx        1 REE      0.138889
     21 H5B         1.3190   -1.0760    1.3800 hx        1 REE      0.138889
     22 H6         -0.9570   -1.5670   -0.9260 hx        1 REE      0.138889
     23 H6A        -1.9970   -1.9830    0.2080 hx        1 REE      0.138889
     24 H6B        -2.0800   -0.5370   -0.4580 hx        1 REE      0.138889
@<TRIPOS>BOND
     1    1    3 1   
     2    1    6 1   
     3    2    5 1   
     4    2    7 1   
     5    2   11 1   
     6    4    7 1   
     7    4   12 1   
     8    4   13 1   
     9    5    8 1   
    10    5    9 1   
    11    5   10 1   
    12    7   14 1   
    13    7   15 1   
    14    8   16 1   
    15    8   17 1   
    16    8   18 1   
    17    9   19 1   
    18    9   20 1   
    19    9   21 1   
    20   10   22 1   
    21   10   23 1   
    22   10   24 1   
@<TRIPOS>SUBSTRUCTURE
     1 REE         1 TEMP              0 ****  ****    0 ROOT
