@<TRIPOS>MOLECULE
REF
   28    31     1     0     0
SMALL
bcc


@<TRIPOS>ATOM
      1 C1         -0.0300   -0.0620    0.0820 ca        1 REF     -0.126600
      2 C2          1.3700    0.0390    0.0410 ca        1 REF     -0.051000
      3 C3          2.1220    0.0500    1.2640 ca        1 REF     -0.051000
      4 C4          1.4460   -0.0410    2.4850 ca        1 REF      0.085100
      5 O5          0.0690   -0.1420    2.5670 os        1 REF     -0.342200
      6 C6         -0.6850   -0.1540    1.3880 c         1 REF      0.750200
      7 C7          3.5230    0.1520    1.2230 ca        1 REF     -0.126600
      8 C8          4.2570    0.1630    2.4090 ca        1 REF     -0.080000
      9 C9          3.5800    0.0720    3.6380 ca        1 REF      0.124100
     10 C10         2.1710   -0.0310    3.6890 ca        1 REF      0.074100
     11 C11         2.0470    0.1300   -1.1800 ca        1 REF      0.085100
     12 O12         3.4240    0.2310   -1.2620 os        1 REF     -0.342200
     13 C13         4.1780    0.2440   -0.0830 c         1 REF      0.750200
     14 C14        -0.7640   -0.0730   -1.1040 ca        1 REF     -0.080000
     15 C15        -0.0870    0.0180   -2.3330 ca        1 REF      0.124100
     16 C16         1.3220    0.1200   -2.3840 ca        1 REF      0.074100
     17 O19         1.5950   -0.1150    4.9320 oh        1 REF     -0.500100
     18 O20         4.3530    0.0880    4.7700 oh        1 REF     -0.480100
     19 O21         5.3740    0.3390   -0.3470 o         1 REF     -0.545500
     20 O22         1.8980    0.2050   -3.6270 oh        1 REF     -0.500100
     21 O23        -0.8610    0.0020   -3.4650 oh        1 REF     -0.480100
     22 O24        -1.8810   -0.2490    1.6520 o         1 REF     -0.545500
     23 H8          5.3560    0.2420    2.3950 ha        1 REF      0.184000
     24 H14        -1.8630   -0.1520   -1.0900 ha        1 REF      0.184000
     25 HO19        0.6320   -0.1800    4.8150 ho        1 REF      0.460000
     26 HO20        3.7670    0.0190    5.5420 ho        1 REF      0.447000
     27 HO22        2.8610    0.2700   -3.5100 ho        1 REF      0.460000
     28 HO23       -0.2750    0.0710   -4.2370 ho        1 REF      0.447000
@<TRIPOS>BOND
     1    1    2 ar  
     2    1    6 1   
     3    1   14 ar  
     4    2    3 1   
     5    2   11 ar  
     6    3    4 ar  
     7    3    7 ar  
     8    4    5 1   
     9    4   10 ar  
    10    5    6 1   
    11    6   22 2   
    12    7    8 ar  
    13    7   13 1   
    14    8    9 ar  
    15    8   23 1   
    16    9   10 ar  
    17    9   18 1   
    18   10   17 1   
    19   11   12 1   
    20   11   16 ar  
    21   12   13 1   
    22   13   19 2   
    23   14   15 ar  
    24   14   24 1   
    25   15   16 ar  
    26   15   21 1   
    27   16   20 1   
    28   17   25 1   
    29   18   26 1   
    30   20   27 1   
    31   21   28 1   
@<TRIPOS>SUBSTRUCTURE
     1 REF         1 TEMP              0 ****  ****    0 ROOT
