@<TRIPOS>MOLECULE
REF
   28    31     1     0     0
SMALL
bcc


@<TRIPOS>ATOM
      1 C1         -0.0320   -0.0620    0.0850 ca        1 REF     -0.126600
      2 C2          1.3690    0.0390    0.0420 ca        1 REF     -0.051000
      3 C3          2.1230    0.0510    1.2630 ca        1 REF     -0.051000
      4 C4          1.4490   -0.0400    2.4860 ca        1 REF      0.085100
      5 O5          0.0730   -0.1410    2.5710 os        1 REF     -0.342200
      6 C6         -0.6840   -0.1540    1.3930 c         1 REF      0.750200
      7 C7          3.5240    0.1520    1.2200 ca        1 REF     -0.126600
      8 C8          4.2600    0.1630    2.4040 ca        1 REF     -0.080000
      9 C9          3.5860    0.0720    3.6340 ca        1 REF      0.124100
     10 C10         2.1760   -0.0300    3.6880 ca        1 REF      0.074100
     11 C11         2.0440    0.1300   -1.1810 ca        1 REF      0.085100
     12 O12         3.4200    0.2310   -1.2660 os        1 REF     -0.342200
     13 C13         4.1770    0.2440   -0.0880 c         1 REF      0.750200
     14 C14        -0.7670   -0.0730   -1.0990 ca        1 REF     -0.080000
     15 C15        -0.0930    0.0180   -2.3290 ca        1 REF      0.124100
     16 C16         1.3160    0.1200   -2.3840 ca        1 REF      0.074100
     17 O19         1.6030   -0.1140    4.9320 oh        1 REF     -0.500100
     18 O20         4.3610    0.0880    4.7650 oh        1 REF     -0.480100
     19 O21         5.3720    0.3380   -0.3540 o         1 REF     -0.545500
     20 O22         1.8890    0.2040   -3.6270 oh        1 REF     -0.500100
     21 O23        -0.8690    0.0020   -3.4600 oh        1 REF     -0.480100
     22 O24        -1.8790   -0.2480    1.6590 o         1 REF     -0.545500
     23 H8          5.3590    0.2410    2.3880 ha        1 REF      0.184000
     24 H14        -1.8670   -0.1520   -1.0830 ha        1 REF      0.184000
     25 HO19        0.6400   -0.1790    4.8180 ho        1 REF      0.460000
     26 HO20        3.7770    0.0190    5.5380 ho        1 REF      0.447000
     27 HO22        2.8530    0.2690   -3.5130 ho        1 REF      0.460000
     28 HO23       -0.2840    0.0710   -4.2330 ho        1 REF      0.447000
@<TRIPOS>BOND
     1    1    2 ar  
     2    1    6 1   
     3    1   14 ar  
     4    2    3 1   
     5    2   11 ar  
     6    3    4 ar  
     7    3    7 ar  
     8    4    5 1   
     9    4   10 ar  
    10    5    6 1   
    11    6   22 2   
    12    7    8 ar  
    13    7   13 1   
    14    8    9 ar  
    15    8   23 1   
    16    9   10 ar  
    17    9   18 1   
    18   10   17 1   
    19   11   12 1   
    20   11   16 ar  
    21   12   13 1   
    22   13   19 2   
    23   14   15 ar  
    24   14   24 1   
    25   15   16 ar  
    26   15   21 1   
    27   16   20 1   
    28   17   25 1   
    29   18   26 1   
    30   20   27 1   
    31   21   28 1   
@<TRIPOS>SUBSTRUCTURE
     1 REF         1 TEMP              0 ****  ****    0 ROOT
