@<TRIPOS>MOLECULE
REL
   22    21     1     0     0
SMALL
bcc


@<TRIPOS>ATOM
      1 O6A        -3.6500   -0.3110   -0.8150 o         1 REL     -0.823800
      2 C6         -2.8210    0.1640    0.0080 c         1 REL      0.894600
      3 O6B        -2.9670    1.2380    0.6570 o         1 REL     -0.823800
      4 C5         -1.5190   -0.6480    0.2350 c3        1 REL     -0.019900
      5 O5         -1.4970   -1.8330   -0.5400 oh        1 REL     -0.639800
      6 C4         -0.2840    0.1940   -0.1200 c3        1 REL      0.124100
      7 O4         -0.1590    1.3400    0.7100 oh        1 REL     -0.671800
      8 C3          1.0090   -0.6180    0.0850 c3        1 REL      0.112100
      9 O3          1.4320   -0.6440    1.4350 oh        1 REL     -0.618800
     10 C2          2.1470   -0.0760   -0.8060 c3        1 REL      0.005100
     11 O2          2.1860    1.3320   -0.8950 oh        1 REL     -0.586800
     12 C1          3.4670   -0.6430   -0.3360 c         1 REL      0.558900
     13 O1          4.4710    0.0290   -0.1020 o         1 REL     -0.537100
     14 H5         -1.4520   -0.9600    1.3120 h1        1 REL      0.053700
     15 HO5        -2.2660   -1.7990   -1.1340 ho        1 REL      0.432000
     16 H4         -0.3450    0.5280   -1.1920 h1        1 REL      0.054700
     17 HO4        -1.0550    1.6760    0.8940 ho        1 REL      0.473000
     18 H3          0.8160   -1.6960   -0.1850 h1        1 REL      0.094700
     19 HO3         1.1510    0.1800    1.8560 ho        1 REL      0.425000
     20 H2          1.9760   -0.4230   -1.8680 h1        1 REL      0.081700
     21 HO2         1.9080    1.6870   -0.0390 ho        1 REL      0.425000
     22 H1          3.4640   -1.7500   -0.2130 h4        1 REL     -0.012800
@<TRIPOS>BOND
     1    1    2 1   
     2    2    3 1   
     3    2    4 1   
     4    4    5 1   
     5    4    6 1   
     6    4   14 1   
     7    5   15 1   
     8    6    7 1   
     9    6    8 1   
    10    6   16 1   
    11    7   17 1   
    12    8    9 1   
    13    8   10 1   
    14    8   18 1   
    15    9   19 1   
    16   10   11 1   
    17   10   12 1   
    18   10   20 1   
    19   11   21 1   
    20   12   13 2   
    21   12   22 1   
@<TRIPOS>SUBSTRUCTURE
     1 REL         1 TEMP              0 ****  ****    0 ROOT
