@<TRIPOS>MOLECULE
REL
   22    20     1     0     0
SMALL
bcc


@<TRIPOS>ATOM
      1 O6A        -2.5460   -2.6170    0.8270 o         1 REL     -0.554000
      2 C6         -2.3930   -1.9270   -0.2150 c1        1 REL      0.313000
      3 O6B        -3.3900   -1.6250   -0.9230 os        1 REL     -0.565000
      4 C5         -1.0120   -1.4600   -0.6170 c3        1 REL     -0.080000
      5 O5         -0.9150   -1.4340   -2.0210 oh        1 REL     -0.367000
      6 C4         -0.7710   -0.0720   -0.0700 c3        1 REL      0.015000
      7 O4         -1.5710    0.1290    1.0710 oh        1 REL     -0.385000
      8 C3          0.6860    0.0760    0.3050 c3        1 REL      0.004000
      9 O3          0.8680   -0.3150    1.6450 oh        1 REL     -0.331000
     10 C2          1.1050    1.5190    0.1400 c3        1 REL     -0.070000
     11 O2          1.0490    2.1690    1.3870 oh        1 REL     -0.314000
     12 C1          2.5180    1.5760   -0.3960 c2        1 REL      0.163000
     13 O1          3.4540    1.6990    0.3710 o         1 REL     -0.301000
     14 H5         -0.3430   -2.0730   -0.2550 h1        1 REL      0.097000
     15 HO5        -0.3550   -2.0700   -2.2910 ho        1 REL      0.230000
     16 H4         -1.0010    0.5910   -0.7500 h1        1 REL      0.073000
     17 HO4        -2.0340    0.8830    0.9800 ho        1 REL      0.266000
     18 H3          1.2310   -0.4900   -0.2770 h1        1 REL      0.135000
     19 HO3         1.3240   -1.0780    1.6710 ho        1 REL      0.224000
     20 H2          0.5010    1.9640   -0.4870 h1        1 REL      0.143000
     21 HO2         0.9180    3.0400    1.2620 ho        1 REL      0.212000
     22 H1          2.6790    1.5140   -1.3580 h4        1 REL      0.093000
@<TRIPOS>BOND
     1    1    2 1   
     2    2    4 1   
     3    4    5 1   
     4    4    6 1   
     5    4   14 1   
     6    5   15 1   
     7    6    7 1   
     8    6    8 1   
     9    6   16 1   
    10    7   17 1   
    11    8    9 1   
    12    8   10 1   
    13    8   18 1   
    14    9   19 1   
    15   10   11 1   
    16   10   12 1   
    17   10   20 1   
    18   11   21 1   
    19   12   13 1   
    20   12   22 1   
@<TRIPOS>SUBSTRUCTURE
     1 REL         1 TEMP              0 ****  ****    0 ROOT
