@<TRIPOS>MOLECULE
REN
   47    49     1     0     0
SMALL
bcc


@<TRIPOS>ATOM
      1 C2          0.1360    0.3580   -0.0140 ca        1 REN     -0.132000
      2 C3          1.5340    0.3930    0.0350 ca        1 REN      0.108100
      3 C5          2.2010    0.1550    1.2580 ca        1 REN      0.045100
      4 C8          1.4630   -0.1140    2.4070 ca        1 REN     -0.162000
      5 C9          0.0630   -0.1470    2.3510 ca        1 REN     -0.075300
      6 C10        -0.6720   -0.4200    3.6170 c3        1 REN     -0.068100
      7 C11        -2.1670   -0.6460    3.3960 c3        1 REN      0.160800
      8 N12        -2.7780    0.1990    2.3810 n3        1 REN     -0.703600
      9 C14        -2.1190   -0.0120    1.0860 c3        1 REN      0.227800
     10 C16        -2.7030    0.8540   -0.0430 c3        1 REN     -0.029100
     11 C17        -4.1880    0.7980   -0.1410 ca        1 REN     -0.056300
     12 C25        -4.9390    1.9770   -0.1100 ca        1 REN     -0.137000
     13 C24        -6.3270    1.9470   -0.2430 ca        1 REN     -0.157000
     14 C21        -6.9750    0.7230   -0.4100 ca        1 REN      0.036100
     15 O22        -8.3430    0.5630   -0.5760 os        1 REN     -0.348900
     16 C23        -9.1380    1.7060   -0.2870 c3        1 REN      0.121700
     17 C19        -6.2250   -0.4750   -0.4430 ca        1 REN      0.115100
     18 O20        -6.8020   -1.7110   -0.6160 oh        1 REN     -0.497100
     19 C18        -4.8330   -0.4320   -0.3120 ca        1 REN     -0.125000
     20 C1         -0.6070    0.0920    1.1390 ca        1 REN     -0.098300
     21 C13        -2.8760    1.5840    2.7870 c3        1 REN      0.144100
     22 O6          3.5840    0.2220    1.1920 os        1 REN     -0.347900
     23 C7          4.2800   -0.1220    2.3840 c3        1 REN      0.121700
     24 O4          2.1960    0.6670   -1.1380 oh        1 REN     -0.497100
     25 H2         -0.3420    0.5450   -0.9870 ha        1 REN      0.154000
     26 H8          1.9660   -0.3020    3.3660 ha        1 REN      0.138000
     27 H10        -0.5220    0.4520    4.3100 hc        1 REN      0.052700
     28 H10A       -0.2390   -1.3250    4.1220 hc        1 REN      0.052700
     29 H11        -2.7110   -0.4830    4.3680 h1        1 REN      0.055200
     30 H11A       -2.3350   -1.7160    3.0850 h1        1 REN      0.055200
     31 H14        -2.3460   -1.0940    0.8180 h1        1 REN      0.069700
     32 H16        -2.3560    1.9140    0.0810 hc        1 REN      0.056200
     33 H16A       -2.2910    0.4710   -1.0170 hc        1 REN      0.056200
     34 H25        -4.4340    2.9460    0.0180 ha        1 REN      0.132000
     35 H24        -6.8980    2.8850   -0.2170 ha        1 REN      0.136000
     36 H23        -8.9570    2.5060   -1.0460 h1        1 REN      0.044367
     37 H23A      -10.1870    1.3220   -0.3620 h1        1 REN      0.044367
     38 H23B       -8.9280    2.0880    0.7410 h1        1 REN      0.044367
     39 HO20       -7.7640   -1.5910   -0.6430 ho        1 REN      0.435000
     40 H18        -4.2640   -1.3720   -0.3380 ha        1 REN      0.152000
     41 H13        -1.8830    2.1060    2.8420 h1        1 REN      0.035033
     42 H13A       -3.3620    1.6320    3.7970 h1        1 REN      0.035033
     43 H13B       -3.5300    2.1270    2.0540 h1        1 REN      0.035033
     44 H7          4.0450    0.6070    3.1980 h1        1 REN      0.045367
     45 H7A         5.3570   -0.0500    2.0870 h1        1 REN      0.045367
     46 H7B         4.0260   -1.1620    2.7040 h1        1 REN      0.045367
     47 HO4         3.1480    0.6360   -0.9600 ho        1 REN      0.436000
@<TRIPOS>BOND
     1    1    2 ar  
     2    1   20 ar  
     3    1   25 1   
     4    2    3 ar  
     5    2   24 1   
     6    3    4 ar  
     7    3   22 1   
     8    4    5 ar  
     9    4   26 1   
    10    5    6 1   
    11    5   20 ar  
    12    6    7 1   
    13    6   27 1   
    14    6   28 1   
    15    7    8 1   
    16    7   29 1   
    17    7   30 1   
    18    8    9 1   
    19    8   21 1   
    20    9   10 1   
    21    9   20 1   
    22    9   31 1   
    23   10   11 1   
    24   10   32 1   
    25   10   33 1   
    26   11   12 ar  
    27   11   19 ar  
    28   12   13 ar  
    29   12   34 1   
    30   13   14 ar  
    31   13   35 1   
    32   14   15 1   
    33   14   17 ar  
    34   15   16 1   
    35   16   36 1   
    36   16   37 1   
    37   16   38 1   
    38   17   18 1   
    39   17   19 ar  
    40   18   39 1   
    41   19   40 1   
    42   21   41 1   
    43   21   42 1   
    44   21   43 1   
    45   22   23 1   
    46   23   44 1   
    47   23   45 1   
    48   23   46 1   
    49   24   47 1   
@<TRIPOS>SUBSTRUCTURE
     1 REN         1 TEMP              0 ****  ****    0 ROOT
