@<TRIPOS>MOLECULE
REN
   47    49     1     0     0
SMALL
bcc


@<TRIPOS>ATOM
      1 C2          0.1370    0.3670   -0.0140 ca        1 REN     -0.132000
      2 C3          1.5340    0.4010    0.0370 ca        1 REN      0.108100
      3 C5          2.2010    0.1540    1.2570 ca        1 REN      0.045100
      4 C8          1.4620   -0.1230    2.4040 ca        1 REN     -0.162000
      5 C9          0.0630   -0.1560    2.3480 ca        1 REN     -0.075300
      6 C10        -0.6720   -0.4380    3.6110 c3        1 REN     -0.068100
      7 C11        -2.1670   -0.6610    3.3880 c3        1 REN      0.160800
      8 N12        -2.7790    0.1900    2.3790 n3        1 REN     -0.703600
      9 C14        -2.1190   -0.0110    1.0820 c3        1 REN      0.227800
     10 C16        -2.7020    0.8630   -0.0410 c3        1 REN     -0.029100
     11 C17        -4.1870    0.8060   -0.1390 ca        1 REN     -0.056300
     12 C25        -4.9390    1.9860   -0.1000 ca        1 REN     -0.137000
     13 C24        -6.3260    1.9560   -0.2340 ca        1 REN     -0.157000
     14 C21        -6.9750    0.7330   -0.4100 ca        1 REN      0.036100
     15 O22        -8.3420    0.5740   -0.5770 os        1 REN     -0.348900
     16 C23        -9.1380    1.7150   -0.2800 c3        1 REN      0.121700
     17 C19        -6.2240   -0.4640   -0.4510 ca        1 REN      0.115100
     18 O20        -6.8010   -1.6990   -0.6340 oh        1 REN     -0.497100
     19 C18        -4.8320   -0.4220   -0.3200 ca        1 REN     -0.125000
     20 C1         -0.6070    0.0920    1.1370 ca        1 REN     -0.098300
     21 C13        -2.8770    1.5720    2.7950 c3        1 REN      0.144100
     22 O6          3.5840    0.2220    1.1930 os        1 REN     -0.347900
     23 C7          4.2790   -0.1330    2.3820 c3        1 REN      0.121700
     24 O4          2.1960    0.6840   -1.1350 oh        1 REN     -0.497100
     25 H2         -0.3420    0.5610   -0.9850 ha        1 REN      0.154000
     26 H8          1.9660   -0.3180    3.3620 ha        1 REN      0.138000
     27 H10        -0.2400   -1.3460    4.1090 hc        1 REN      0.052700
     28 H10A       -0.5230    0.4300    4.3110 hc        1 REN      0.052700
     29 H11        -2.7120   -0.5050    4.3610 h1        1 REN      0.055200
     30 H11A       -2.3360   -1.7290    3.0690 h1        1 REN      0.055200
     31 H14        -2.3460   -1.0920    0.8070 h1        1 REN      0.069700
     32 H16        -2.2910    0.4860   -1.0170 hc        1 REN      0.056200
     33 H16A       -2.3560    1.9210    0.0910 hc        1 REN      0.056200
     34 H25        -4.4340    2.9540    0.0350 ha        1 REN      0.132000
     35 H24        -6.8980    2.8930   -0.2010 ha        1 REN      0.136000
     36 H23        -8.9280    2.0890    0.7510 h1        1 REN      0.044367
     37 H23A      -10.1860    1.3310   -0.3580 h1        1 REN      0.044367
     38 H23B       -8.9570    2.5200   -1.0330 h1        1 REN      0.044367
     39 HO20       -7.7630   -1.5800   -0.6600 ho        1 REN      0.435000
     40 H18        -4.2630   -1.3620   -0.3530 ha        1 REN      0.152000
     41 H13        -1.8830    2.0940    2.8540 h1        1 REN      0.035033
     42 H13A       -3.3620    1.6140    3.8050 h1        1 REN      0.035033
     43 H13B       -3.5300    2.1200    2.0650 h1        1 REN      0.035033
     44 H7          5.3560   -0.0590    2.0850 h1        1 REN      0.045367
     45 H7A         4.0460    0.5900    3.2020 h1        1 REN      0.045367
     46 H7B         4.0250   -1.1750    2.6930 h1        1 REN      0.045367
     47 HO4         3.1490    0.6520   -0.9560 ho        1 REN      0.436000
@<TRIPOS>BOND
     1    1    2 ar  
     2    1   20 ar  
     3    1   25 1   
     4    2    3 ar  
     5    2   24 1   
     6    3    4 ar  
     7    3   22 1   
     8    4    5 ar  
     9    4   26 1   
    10    5    6 1   
    11    5   20 ar  
    12    6    7 1   
    13    6   27 1   
    14    6   28 1   
    15    7    8 1   
    16    7   29 1   
    17    7   30 1   
    18    8    9 1   
    19    8   21 1   
    20    9   10 1   
    21    9   20 1   
    22    9   31 1   
    23   10   11 1   
    24   10   32 1   
    25   10   33 1   
    26   11   12 ar  
    27   11   19 ar  
    28   12   13 ar  
    29   12   34 1   
    30   13   14 ar  
    31   13   35 1   
    32   14   15 1   
    33   14   17 ar  
    34   15   16 1   
    35   16   36 1   
    36   16   37 1   
    37   16   38 1   
    38   17   18 1   
    39   17   19 ar  
    40   18   39 1   
    41   19   40 1   
    42   21   41 1   
    43   21   42 1   
    44   21   43 1   
    45   22   23 1   
    46   23   44 1   
    47   23   45 1   
    48   23   46 1   
    49   24   47 1   
@<TRIPOS>SUBSTRUCTURE
     1 REN         1 TEMP              0 ****  ****    0 ROOT
