@<TRIPOS>MOLECULE
REN
   47    49     1     0     0
SMALL
bcc


@<TRIPOS>ATOM
      1 C2         -2.2680   -1.1810    0.6130 ca        1 REN     -0.132000
      2 C3         -3.6400   -1.3750    0.8040 ca        1 REN      0.108100
      3 C5         -4.5610   -0.4100    0.3390 ca        1 REN      0.045100
      4 C8         -4.0950    0.7320   -0.3090 ca        1 REN     -0.162000
      5 C9         -2.7200    0.9210   -0.4980 ca        1 REN     -0.075300
      6 C10        -2.2830    2.1700   -1.1800 c3        1 REN     -0.068100
      7 C11        -0.7940    2.1670   -1.5220 c3        1 REN      0.160800
      8 N12         0.0710    1.5560   -0.5240 n3        1 REN     -0.703600
      9 C14        -0.3200    0.1580   -0.3070 c3        1 REN      0.227800
     10 C16         0.5420   -0.5590    0.7460 c3        1 REN     -0.029100
     11 C17         2.0080   -0.4010    0.5350 ca        1 REN     -0.056300
     12 C25         2.8160    0.0940    1.5640 ca        1 REN     -0.137000
     13 C24         4.1960    0.2090    1.3990 ca        1 REN     -0.157000
     14 C21         4.7800   -0.1740    0.1920 ca        1 REN      0.036100
     15 O22         6.1370   -0.1300   -0.0860 os        1 REN     -0.348900
     16 C23         6.9320    0.6050    0.8360 c3        1 REN      0.121700
     17 C19         3.9720   -0.6760   -0.8550 ca        1 REN      0.115100
     18 O20         4.4860   -1.0820   -2.0640 oh        1 REN     -0.497100
     19 C18         2.5890   -0.7900   -0.6770 ca        1 REN     -0.125000
     20 C1         -1.8000   -0.0350   -0.0350 ca        1 REN     -0.098300
     21 C13         0.1780    2.3450    0.6840 c3        1 REN      0.144100
     22 O6         -5.8920   -0.7010    0.5910 os        1 REN     -0.347900
     23 C7         -6.8410    0.2020    0.0360 c3        1 REN      0.121700
     24 O4         -4.0250   -2.5240    1.4540 oh        1 REN     -0.497100
     25 H2         -1.5880   -1.9600    0.9870 ha        1 REN      0.154000
     26 H8         -4.7980    1.4920   -0.6780 ha        1 REN      0.138000
     27 H10        -2.8720    2.3150   -2.1250 hc        1 REN      0.052700
     28 H10A       -2.5120    3.0410   -0.5080 hc        1 REN      0.052700
     29 H11        -0.6390    1.6040   -2.4860 h1        1 REN      0.055200
     30 H11A       -0.4520    3.2270   -1.6870 h1        1 REN      0.055200
     31 H14        -0.1180   -0.3580   -1.3000 h1        1 REN      0.069700
     32 H16         0.2510   -0.2080    1.7700 hc        1 REN      0.056200
     33 H16A        0.3160   -1.6590    0.6840 hc        1 REN      0.056200
     34 H25         2.3630    0.3950    2.5210 ha        1 REN      0.132000
     35 H24         4.8130    0.5990    2.2210 ha        1 REN      0.136000
     36 H23         7.9450    0.6150    0.3590 h1        1 REN      0.044367
     37 H23A        6.5420    1.6440    0.9590 h1        1 REN      0.044367
     38 H23B        6.9680    0.0810    1.8220 h1        1 REN      0.044367
     39 HO20        5.4380   -0.9010   -2.0610 ho        1 REN      0.435000
     40 H18         1.9750   -1.1810   -1.5010 ha        1 REN      0.152000
     41 H13        -0.7670    2.3650    1.2920 h1        1 REN      0.035033
     42 H13A        1.0050    1.9230    1.3150 h1        1 REN      0.035033
     43 H13B        0.4470    3.3980    0.4070 h1        1 REN      0.035033
     44 H7         -6.7320    0.2590   -1.0740 h1        1 REN      0.045367
     45 H7A        -7.8260   -0.2510    0.3160 h1        1 REN      0.045367
     46 H7B        -6.7290    1.2160    0.4930 h1        1 REN      0.045367
     47 HO4        -4.9940   -2.5360    1.4960 ho        1 REN      0.436000
@<TRIPOS>BOND
     1    1    2 ar  
     2    1   20 ar  
     3    1   25 1   
     4    2    3 ar  
     5    2   24 1   
     6    3    4 ar  
     7    3   22 1   
     8    4    5 ar  
     9    4   26 1   
    10    5    6 1   
    11    5   20 ar  
    12    6    7 1   
    13    6   27 1   
    14    6   28 1   
    15    7    8 1   
    16    7   29 1   
    17    7   30 1   
    18    8    9 1   
    19    8   21 1   
    20    9   10 1   
    21    9   20 1   
    22    9   31 1   
    23   10   11 1   
    24   10   32 1   
    25   10   33 1   
    26   11   12 ar  
    27   11   19 ar  
    28   12   13 ar  
    29   12   34 1   
    30   13   14 ar  
    31   13   35 1   
    32   14   15 1   
    33   14   17 ar  
    34   15   16 1   
    35   16   36 1   
    36   16   37 1   
    37   16   38 1   
    38   17   18 1   
    39   17   19 ar  
    40   18   39 1   
    41   19   40 1   
    42   21   41 1   
    43   21   42 1   
    44   21   43 1   
    45   22   23 1   
    46   23   44 1   
    47   23   45 1   
    48   23   46 1   
    49   24   47 1   
@<TRIPOS>SUBSTRUCTURE
     1 REN         1 TEMP              0 ****  ****    0 ROOT
