@<TRIPOS>MOLECULE
REN
   47    49     1     0     0
SMALL
bcc


@<TRIPOS>ATOM
      1 C2          0.1360    0.3810   -0.0170 ca        1 REN     -0.132000
      2 C3          1.5330    0.4210    0.0330 ca        1 REN      0.108100
      3 C5          2.2030    0.1720    1.2510 ca        1 REN      0.045100
      4 C8          1.4660   -0.1140    2.3980 ca        1 REN     -0.162000
      5 C9          0.0670   -0.1530    2.3420 ca        1 REN     -0.075300
      6 C10        -0.6660   -0.4440    3.6050 c3        1 REN     -0.068100
      7 C11        -2.1610   -0.6740    3.3820 c3        1 REN      0.160800
      8 N12        -2.7760    0.1800    2.3770 n3        1 REN     -0.703600
      9 C14        -2.1170   -0.0130    1.0800 c3        1 REN      0.227800
     10 C16        -2.7050    0.8650   -0.0380 c3        1 REN     -0.029100
     11 C17        -4.1900    0.8040   -0.1360 ca        1 REN     -0.056300
     12 C25        -4.9450    1.9800   -0.0920 ca        1 REN     -0.137000
     13 C24        -6.3330    1.9470   -0.2250 ca        1 REN     -0.157000
     14 C21        -6.9780    0.7230   -0.4030 ca        1 REN      0.036100
     15 O22        -8.3440    0.5590   -0.5700 os        1 REN     -0.348900
     16 C23        -9.1430    1.6970   -0.2700 c3        1 REN      0.121700
     17 C19        -6.2230   -0.4720   -0.4500 ca        1 REN      0.115100
     18 O20        -6.7960   -1.7090   -0.6360 oh        1 REN     -0.497100
     19 C18        -4.8310   -0.4260   -0.3200 ca        1 REN     -0.125000
     20 C1         -0.6050    0.0980    1.1340 ca        1 REN     -0.098300
     21 C13        -2.8800    1.5600    2.8000 c3        1 REN      0.144100
     22 O6          3.5850    0.2460    1.1860 os        1 REN     -0.347900
     23 C7          4.2830   -0.1060    2.3740 c3        1 REN      0.121700
     24 O4          2.1930    0.7120   -1.1380 oh        1 REN     -0.497100
     25 H2         -0.3440    0.5770   -0.9870 ha        1 REN      0.154000
     26 H8          1.9710   -0.3110    3.3540 ha        1 REN      0.138000
     27 H10        -0.5200    0.4200    4.3090 hc        1 REN      0.052700
     28 H10A       -0.2300   -1.3530    4.0990 hc        1 REN      0.052700
     29 H11        -2.7050   -0.5250    4.3560 h1        1 REN      0.055200
     30 H11A       -2.3250   -1.7400    3.0580 h1        1 REN      0.055200
     31 H14        -2.3390   -1.0920    0.7990 h1        1 REN      0.069700
     32 H16        -2.2930    0.4940   -1.0170 hc        1 REN      0.056200
     33 H16A       -2.3620    1.9240    0.0980 hc        1 REN      0.056200
     34 H25        -4.4430    2.9500    0.0460 ha        1 REN      0.132000
     35 H24        -6.9080    2.8820   -0.1880 ha        1 REN      0.136000
     36 H23        -8.9650    2.5050   -1.0210 h1        1 REN      0.044367
     37 H23A      -10.1910    1.3100   -0.3490 h1        1 REN      0.044367
     38 H23B       -8.9340    2.0700    0.7620 h1        1 REN      0.044367
     39 HO20       -7.7580   -1.5920   -0.6610 ho        1 REN      0.435000
     40 H18        -4.2590   -1.3640   -0.3560 ha        1 REN      0.152000
     41 H13        -3.5360    2.1090    2.0740 h1        1 REN      0.035033
     42 H13A       -1.8890    2.0860    2.8620 h1        1 REN      0.035033
     43 H13B       -3.3660    1.5940    3.8110 h1        1 REN      0.035033
     44 H7          4.0350   -1.1510    2.6840 h1        1 REN      0.045367
     45 H7A         5.3590   -0.0250    2.0780 h1        1 REN      0.045367
     46 H7B         4.0450    0.6130    3.1950 h1        1 REN      0.045367
     47 HO4         3.1460    0.6840   -0.9610 ho        1 REN      0.436000
@<TRIPOS>BOND
     1    1    2 ar  
     2    1   20 ar  
     3    1   25 1   
     4    2    3 ar  
     5    2   24 1   
     6    3    4 ar  
     7    3   22 1   
     8    4    5 ar  
     9    4   26 1   
    10    5    6 1   
    11    5   20 ar  
    12    6    7 1   
    13    6   27 1   
    14    6   28 1   
    15    7    8 1   
    16    7   29 1   
    17    7   30 1   
    18    8    9 1   
    19    8   21 1   
    20    9   10 1   
    21    9   20 1   
    22    9   31 1   
    23   10   11 1   
    24   10   32 1   
    25   10   33 1   
    26   11   12 ar  
    27   11   19 ar  
    28   12   13 ar  
    29   12   34 1   
    30   13   14 ar  
    31   13   35 1   
    32   14   15 1   
    33   14   17 ar  
    34   15   16 1   
    35   16   36 1   
    36   16   37 1   
    37   16   38 1   
    38   17   18 1   
    39   17   19 ar  
    40   18   39 1   
    41   19   40 1   
    42   21   41 1   
    43   21   42 1   
    44   21   43 1   
    45   22   23 1   
    46   23   44 1   
    47   23   45 1   
    48   23   46 1   
    49   24   47 1   
@<TRIPOS>SUBSTRUCTURE
     1 REN         1 TEMP              0 ****  ****    0 ROOT
