@<TRIPOS>MOLECULE
RER
   26    26     1     0     0
SMALL
bcc


@<TRIPOS>ATOM
      1 C1         -1.2020    0.5200   -1.4860 c3        1 RER      0.330900
      2 C2          0.3060    0.5200   -1.4860 c3        1 RER     -0.140400
      3 C3          0.8680    0.5200   -0.1200 c3        1 RER      0.156200
      4 N3          0.5950    1.7840    0.4960 n3        1 RER     -0.900800
      5 C3A         2.4200    0.3220   -0.2100 c3        1 RER     -0.089100
      6 C4          0.2910   -0.5680    0.7300 c3        1 RER      0.124100
      7 O4          0.7550   -1.8330    0.2410 oh        1 RER     -0.591800
      8 C5         -1.2240   -0.5650    0.7190 c3        1 RER      0.107100
      9 O5         -1.7720   -0.5610   -0.6310 os        1 RER     -0.459600
     10 C5A        -1.7170   -1.7880    1.4410 c3        1 RER     -0.091100
     11 O1         -1.6480    1.7390   -1.0210 oh        1 RER     -0.635800
     12 H1         -1.5170    0.3970   -2.4010 h2        1 RER      0.068700
     13 H21C        0.6220    1.3140   -1.9570 hc        1 RER      0.065700
     14 H22C        0.6220   -0.2740   -1.9570 hc        1 RER      0.065700
     15 HO1        -2.2960    2.0380   -1.5480 ho        1 RER      0.422000
     16 H31N        0.9880    2.4500    0.0110 hn        1 RER      0.358800
     17 H32N        0.9280    1.7880    1.3440 hn        1 RER      0.358800
     18 H3A1        2.8200    1.0930   -0.6560 hc        1 RER      0.046033
     19 H3A2        2.7900    0.2380    0.6890 hc        1 RER      0.046033
     20 H3A3        2.6160   -0.4870   -0.7200 hc        1 RER      0.046033
     21 H4          0.6010   -0.4500    1.6480 h1        1 RER      0.098700
     22 HO4         1.1660   -2.2700    0.8950 ho        1 RER      0.405000
     23 H5         -1.5410    0.2290    1.1910 h1        1 RER      0.060700
     24 H5A1       -1.5500   -2.5780    0.8930 hc        1 RER      0.050033
     25 H5A2       -2.6760   -1.7030    1.6060 hc        1 RER      0.050033
     26 H5A3       -1.2470   -1.8760    2.2910 hc        1 RER      0.050033
@<TRIPOS>BOND
     1    1    2 1   
     2    1    9 1   
     3    1   11 1   
     4    1   12 1   
     5    2    3 1   
     6    2   13 1   
     7    2   14 1   
     8    3    4 1   
     9    3    5 1   
    10    3    6 1   
    11    4   16 1   
    12    4   17 1   
    13    5   18 1   
    14    5   19 1   
    15    5   20 1   
    16    6    7 1   
    17    6    8 1   
    18    6   21 1   
    19    7   22 1   
    20    8    9 1   
    21    8   10 1   
    22    8   23 1   
    23   10   24 1   
    24   10   25 1   
    25   10   26 1   
    26   11   15 1   
@<TRIPOS>SUBSTRUCTURE
     1 RER         1 TEMP              0 ****  ****    0 ROOT
