@<TRIPOS>MOLECULE
RER
   26    26     1     0     0
SMALL
bcc


@<TRIPOS>ATOM
      1 C1          0.2250   -1.3950   -0.9560 c3        1 RER      0.328900
      2 C2         -1.0590   -0.5730   -0.9900 c3        1 RER     -0.091400
      3 C3         -1.2390    0.4030    0.1930 c3        1 RER      0.157200
      4 N3         -2.2710    1.3860   -0.1530 n3        1 RER     -0.890800
      5 C3A        -1.6650   -0.3900    1.4370 c3        1 RER     -0.099100
      6 C4          0.1340    1.0890    0.4950 c3        1 RER      0.075100
      7 O4          0.4450    2.0350   -0.5130 oh        1 RER     -0.598800
      8 C5          1.2520    0.0510    0.6470 c3        1 RER      0.113100
      9 O5          1.3890   -0.6880   -0.5720 os        1 RER     -0.457600
     10 C5A         2.5960    0.7020    0.9060 c3        1 RER     -0.092100
     11 O1          0.0910   -2.4520   -0.0330 oh        1 RER     -0.624800
     12 H1          0.4730   -1.7880   -1.9870 h2        1 RER      0.067700
     13 H21C       -1.0470    0.0010   -1.9550 hc        1 RER      0.070200
     14 H22C       -1.9290   -1.2790   -1.0110 hc        1 RER      0.070200
     15 HO1         0.9370   -2.9170   -0.0050 ho        1 RER      0.417000
     16 H31N       -2.5070    1.9200    0.6610 hn        1 RER      0.352800
     17 H32N       -1.9150    2.0090   -0.8540 hn        1 RER      0.352800
     18 H3A1       -1.0070   -1.2840    1.5600 hc        1 RER      0.049367
     19 H3A2       -1.5960    0.2460    2.3500 hc        1 RER      0.049367
     20 H3A3       -2.7180   -0.7490    1.3280 hc        1 RER      0.049367
     21 H4          0.0550    1.7000    1.4370 h1        1 RER      0.078700
     22 HO4         0.7280    1.5360   -1.2910 ho        1 RER      0.411000
     23 H5          0.9920   -0.6650    1.4760 h1        1 RER      0.060700
     24 H5A1        2.5830    1.1830    1.9130 hc        1 RER      0.050033
     25 H5A2        3.4060   -0.0640    0.8720 hc        1 RER      0.050033
     26 H5A3        2.8030    1.4800    0.1330 hc        1 RER      0.050033
@<TRIPOS>BOND
     1    1    2 1   
     2    1    9 1   
     3    1   11 1   
     4    1   12 1   
     5    2    3 1   
     6    2   13 1   
     7    2   14 1   
     8    3    4 1   
     9    3    5 1   
    10    3    6 1   
    11    4   16 1   
    12    4   17 1   
    13    5   18 1   
    14    5   19 1   
    15    5   20 1   
    16    6    7 1   
    17    6    8 1   
    18    6   21 1   
    19    7   22 1   
    20    8    9 1   
    21    8   10 1   
    22    8   23 1   
    23   10   24 1   
    24   10   25 1   
    25   10   26 1   
    26   11   15 1   
@<TRIPOS>SUBSTRUCTURE
     1 RER         1 TEMP              0 ****  ****    0 ROOT
