@<TRIPOS>MOLECULE
RES
   22    21     1     0     0
SMALL
bcc


@<TRIPOS>ATOM
      1 O7         -0.0470   -0.2130   -0.2610 oh        1 RES     -0.782400
      2 P           1.4120   -0.8060    0.1930 p5        1 RES      1.426800
      3 O5          1.1150   -1.5690    1.4250 o         1 RES     -0.846000
      4 O6          2.4260    0.2610    0.0650 o         1 RES     -0.846000
      5 O4          1.5840   -1.9040   -1.0200 os        1 RES     -0.584200
      6 C4          1.9020   -1.3310   -2.2590 c3        1 RES      0.134400
      7 C3          2.2990   -2.4290   -3.2580 c3        1 RES      0.127100
      8 O3          3.0010   -3.4660   -2.6010 oh        1 RES     -0.600800
      9 C2          1.0800   -2.9730   -4.0310 c3        1 RES      0.085100
     10 O2          0.3550   -1.8840   -4.5900 oh        1 RES     -0.634800
     11 C1          1.5130   -3.9030   -5.1730 c2        1 RES      0.409300
     12 O1          1.8470   -3.3140   -6.2750 o         1 RES     -0.898300
     13 N           1.4940   -5.2290   -4.9840 n2        1 RES     -0.394500
     14 ON          1.8490   -5.9870   -6.0090 oh        1 RES     -0.400500
     15 H4C1        1.0060   -0.7650   -2.6330 h1        1 RES      0.036700
     16 H4C2        2.7590   -0.6170   -2.1120 h1        1 RES      0.036700
     17 H3          3.0340   -2.0100   -4.0010 h1        1 RES      0.057700
     18 HA          2.4250   -3.7790   -1.8910 ho        1 RES      0.414000
     19 H2          0.3700   -3.4670   -3.3150 h1        1 RES      0.065700
     20 HB          0.7590   -1.6960   -5.4510 ho        1 RES      0.415000
     21 H          -0.7510   -0.8060   -0.0340 ho        1 RES      0.417000
     22 HN          2.1970   -5.4380   -6.7420 ho        1 RES      0.361000
@<TRIPOS>BOND
     1    1    2 1   
     2    1   21 1   
     3    2    3 1   
     4    2    4 1   
     5    2    5 1   
     6    5    6 1   
     7    6    7 1   
     8    6   15 1   
     9    6   16 1   
    10    7    8 1   
    11    7    9 1   
    12    7   17 1   
    13    8   18 1   
    14    9   10 1   
    15    9   11 1   
    16    9   19 1   
    17   10   20 1   
    18   11   12 1   
    19   11   13 2   
    20   13   14 1   
    21   14   22 1   
@<TRIPOS>SUBSTRUCTURE
     1 RES         1 TEMP              0 ****  ****    0 ROOT
