@<TRIPOS>MOLECULE
RES
   22    21     1     0     0
SMALL
bcc


@<TRIPOS>ATOM
      1 O7         -2.7470    1.9360    1.5210 oh        1 RES     -0.780400
      2 P          -2.7190    0.7630    0.3740 p5        1 RES      1.425800
      3 O5         -3.6640    1.2790   -0.6430 o         1 RES     -0.846500
      4 O6         -2.7990   -0.5590    1.0280 o         1 RES     -0.846500
      5 O4         -1.2020    1.0500   -0.1800 os        1 RES     -0.584200
      6 C4         -0.1370    0.3530    0.3970 c3        1 RES      0.153400
      7 C3          0.7820   -0.2100   -0.7010 c3        1 RES      0.121100
      8 O3          1.4560    0.8200   -1.4000 oh        1 RES     -0.611800
      9 C2          1.7580   -1.2540   -0.1160 c3        1 RES      0.081100
     10 O2          1.8790   -2.3250   -1.0430 oh        1 RES     -0.642800
     11 C1          3.1490   -0.7020    0.2210 c2        1 RES      0.403300
     12 O1          4.1290   -1.1380   -0.4990 o         1 RES     -0.882300
     13 N           3.2770    0.1670    1.2360 n2        1 RES     -0.408500
     14 ON          4.4980    0.6000    1.5060 oh        1 RES     -0.396500
     15 H4C1       -0.5320   -0.4870    1.0340 h1        1 RES      0.042700
     16 H4C2        0.4650    1.0640    1.0330 h1        1 RES      0.042700
     17 H3          0.1550   -0.7060   -1.4970 h1        1 RES      0.068700
     18 HA          1.9840    1.3020   -0.7520 ho        1 RES      0.406000
     19 H2          1.2980   -1.7200    0.8010 h1        1 RES      0.058700
     20 HB          2.6970   -2.1810   -1.5440 ho        1 RES      0.422000
     21 H          -2.9450    2.7820    1.1400 ho        1 RES      0.413000
     22 HN          5.1500    0.2150    0.8840 ho        1 RES      0.362000
@<TRIPOS>BOND
     1    1    2 1   
     2    1   21 1   
     3    2    3 1   
     4    2    4 1   
     5    2    5 1   
     6    5    6 1   
     7    6    7 1   
     8    6   15 1   
     9    6   16 1   
    10    7    8 1   
    11    7    9 1   
    12    7   17 1   
    13    8   18 1   
    14    9   10 1   
    15    9   11 1   
    16    9   19 1   
    17   10   20 1   
    18   11   12 1   
    19   11   13 2   
    20   13   14 1   
    21   14   22 1   
@<TRIPOS>SUBSTRUCTURE
     1 RES         1 TEMP              0 ****  ****    0 ROOT
