@<TRIPOS>MOLECULE
RES
   22    20     1     0     0
SMALL
bcc


@<TRIPOS>ATOM
      1 O7         -1.6720    3.7140    1.6580 o         1 RES     -0.913500
      2 P          -1.3900    2.6040    2.6450 p4        1 RES      1.694200
      3 O5         -2.6780    1.8710    2.9610 os        1 RES     -1.232000
      4 O6         -0.8210    3.1930    3.9170 o         1 RES     -0.962300
      5 O4         -0.3480    1.5920    2.0190 os        1 RES     -0.560200
      6 C4         -0.6310    1.0330    0.7580 c3        1 RES      0.207400
      7 C3          0.4570    0.0520    0.3860 c3        1 RES      0.112100
      8 O3          0.2380   -1.1660    1.0490 oh        1 RES     -0.722800
      9 C2          0.4410   -0.1770   -1.1090 c3        1 RES      0.048100
     10 O2          1.0780    0.8920   -1.7520 oh        1 RES     -0.592800
     11 C1          1.1730   -1.4740   -1.4330 c         1 RES      0.583100
     12 O1          2.3790   -1.5340   -1.3200 o         1 RES     -0.649100
     13 N           0.4420   -2.6040   -1.9500 n         1 RES     -0.360400
     14 ON          1.1090   -3.7600   -2.2850 oh        1 RES     -0.458100
     15 H4C1       -0.6720    1.7480    0.0860 h1        1 RES      0.002700
     16 H4C2       -1.4910    0.5690    0.7940 h1        1 RES      0.002700
     17 H3          1.3270    0.4150    0.6510 h1        1 RES      0.009700
     18 HA          0.6970   -1.1750    1.8100 ho        1 RES      0.529000
     19 H2         -0.4830   -0.2390   -1.4190 h1        1 RES      0.103700
     20 HB          0.5960    1.1460   -2.4520 ho        1 RES      0.401000
     21 H          -0.4740   -2.5710   -2.0050 hn        1 RES      0.350500
     22 HN          0.7240   -4.1290   -3.0090 ho        1 RES      0.408000
@<TRIPOS>BOND
     1    1    2 1   
     2    2    4 2   
     3    2    5 1   
     4    5    6 1   
     5    6    7 1   
     6    6   15 1   
     7    6   16 1   
     8    7    8 1   
     9    7    9 1   
    10    7   17 1   
    11    8   18 1   
    12    9   10 1   
    13    9   11 1   
    14    9   19 1   
    15   10   20 1   
    16   11   12 2   
    17   11   13 1   
    18   13   14 1   
    19   13   21 1   
    20   14   22 1   
@<TRIPOS>SUBSTRUCTURE
     1 RES         1 TEMP              0 ****  ****    0 ROOT
