@<TRIPOS>MOLECULE
RES
   23    22     1     0     0
SMALL
bcc


@<TRIPOS>ATOM
      1 O7          0.0000    0.0000    0.0000 o         1 RES     -0.608167
      2 P           1.4810    0.0000    0.0000 p5        1 RES      0.751900
      3 O5          2.0170    0.0000    1.5170 o         1 RES     -0.608167
      4 O6          2.0170    1.3150   -0.7580 o         1 RES     -0.608167
      5 O4          2.0180   -1.3140   -0.7600 os        1 RES     -0.462200
      6 C4          1.4150   -1.3170   -2.0560 c3        1 RES      0.215400
      7 C3          1.8860   -2.5470   -2.8340 c3        1 RES      0.154100
      8 O3          1.4060   -3.7290   -2.1920 oh        1 RES     -0.648800
      9 C2          1.3410   -2.4860   -4.2630 c3        1 RES      0.143100
     10 O2          1.8210   -1.3030   -4.9050 oh        1 RES     -0.524800
     11 C1          1.8050   -3.6980   -5.0300 c         1 RES      0.195100
     12 O1          2.5540   -3.5670   -5.9750 o         1 RES     -0.518100
     13 N           1.3870   -4.9260   -4.6660 ny        1 RES      0.297700
     14 ON          1.8230   -6.0640   -5.3860 oh        1 RES     -0.514300
     15 H4C1        1.7040   -0.4200   -2.5900 h1        1 RES      0.022700
     16 H4C2        0.3370   -1.3450   -1.9530 h1        1 RES      0.022700
     17 H3          2.9690   -2.5650   -2.8600 h1        1 RES      0.024700
     18 HA          2.0050   -3.9820   -1.5090 ho        1 RES      0.429000
     19 H2          0.2580   -2.4690   -4.2360 h1        1 RES      0.012700
     20 HB          1.1460   -0.9520   -5.4620 ho        1 RES      0.390000
     21 H           1.6680   -5.0580   -3.7140 hn        1 RES      0.212300
     22 HN          1.4300   -6.8380   -5.0190 ho        1 RES      0.408000
     23 HN3         0.3880   -4.9180   -4.7110 hn        1 RES      0.212300
@<TRIPOS>BOND
     1    1    2 1   
     2    2    3 1   
     3    2    4 1   
     4    2    5 1   
     5    5    6 1   
     6    6    7 1   
     7    6   15 1   
     8    6   16 1   
     9    7    8 1   
    10    7    9 1   
    11    7   17 1   
    12    8   18 1   
    13    9   10 1   
    14    9   11 1   
    15    9   19 1   
    16   10   20 1   
    17   11   12 2   
    18   11   13 1   
    19   13   14 1   
    20   13   21 1   
    21   13   23 1   
    22   14   22 1   
@<TRIPOS>SUBSTRUCTURE
     1 RES         1 TEMP              0 ****  ****    0 ROOT
