@<TRIPOS>MOLECULE
RET
   49    49     1     0     0
SMALL
bcc


@<TRIPOS>ATOM
      1 C1         -4.3210    0.8670   -0.4840 c3        1 RET     -0.006800
      2 C2         -5.4730    0.1690   -1.2120 c3        1 RET     -0.069400
      3 C3         -6.0870   -0.9310   -0.3780 c3        1 RET     -0.076400
      4 C4         -5.0580   -1.9870   -0.0420 c3        1 RET     -0.042200
      5 C5         -3.7380   -1.4250    0.3630 c2        1 RET     -0.092400
      6 C6         -3.3850   -0.1390    0.1440 ce        1 RET     -0.090200
      7 C7         -2.0890    0.4070    0.5300 ce        1 RET     -0.098000
      8 C8         -0.9070   -0.1770    0.2720 cf        1 RET     -0.148000
      9 C9          0.3880    0.3830    0.6380 cf        1 RET     -0.045200
     10 C10         1.5030   -0.1020    0.0450 ce        1 RET     -0.152000
     11 C11         2.8510    0.3600    0.2750 ce        1 RET     -0.094000
     12 C12         3.9170   -0.2190   -0.3080 cf        1 RET     -0.156000
     13 C13         5.2990    0.2000   -0.1140 cf        1 RET      0.002800
     14 C14         6.2930   -0.5910   -0.5730 ce        1 RET     -0.277200
     15 C15         7.7270   -0.3290   -0.4430 c         1 RET      0.562100
     16 O1          8.5790   -1.0620   -0.9540 o         1 RET     -0.531100
     17 C16        -3.5700    1.7140   -1.5080 c3        1 RET     -0.084100
     18 C17        -4.8810    1.7860    0.5980 c3        1 RET     -0.084100
     19 C18        -2.8400   -2.4160    1.0060 c3        1 RET     -0.065900
     20 C19         0.3960    1.4690    1.6480 c3        1 RET     -0.067900
     21 C20         5.5190    1.4890    0.5890 c3        1 RET     -0.078900
     22 H21        -6.2550    0.9280   -1.4740 hc        1 RET      0.043200
     23 H22        -5.0890   -0.2660   -2.1720 hc        1 RET      0.043200
     24 H31        -6.5110   -0.5000    0.5660 hc        1 RET      0.042200
     25 H32        -6.9360   -1.4020   -0.9400 hc        1 RET      0.042200
     26 H41        -5.4570   -2.6410    0.7800 hc        1 RET      0.048700
     27 H42        -4.8900   -2.6480   -0.9370 hc        1 RET      0.048700
     28 H7         -2.1360    1.3850    1.0430 ha        1 RET      0.127000
     29 H8         -0.8720   -1.1370   -0.2740 ha        1 RET      0.130000
     30 H10         1.4040   -0.9220   -0.6910 ha        1 RET      0.127000
     31 H11         2.9800    1.2220    0.9520 ha        1 RET      0.126000
     32 H12         3.7770   -1.0850   -0.9810 ha        1 RET      0.132000
     33 H14         6.0500   -1.5330   -1.0970 ha        1 RET      0.146000
     34 H15         8.0310    0.5630    0.1510 h4        1 RET     -0.008800
     35 H161       -4.2820    2.4010   -2.0260 hc        1 RET      0.035867
     36 H162       -2.7830    2.3300   -1.0090 hc        1 RET      0.035867
     37 H163       -3.0810    1.0620   -2.2700 hc        1 RET      0.035867
     38 H171       -5.4090    1.1920    1.3820 hc        1 RET      0.035867
     39 H172       -4.0600    2.3640    1.0850 hc        1 RET      0.035867
     40 H173       -5.6030    2.5090    0.1470 hc        1 RET      0.035867
     41 H181       -3.4270   -3.1370    1.6280 hc        1 RET      0.044700
     42 H182       -2.2940   -3.0000    0.2220 hc        1 RET      0.044700
     43 H183       -2.0840   -1.9220    1.6660 hc        1 RET      0.044700
     44 H191       -0.3560    1.2620    2.4500 hc        1 RET      0.047033
     45 H192        1.3940    1.5790    2.1370 hc        1 RET      0.047033
     46 H193        0.1320    2.4420    1.1620 hc        1 RET      0.047033
     47 H201        5.2720    1.3740    1.6750 hc        1 RET      0.052033
     48 H202        6.5720    1.8480    0.5040 hc        1 RET      0.052033
     49 H203        4.8530    2.2800    0.1590 hc        1 RET      0.052033
@<TRIPOS>BOND
     1    1    2 1   
     2    1    6 1   
     3    1   17 1   
     4    1   18 1   
     5    2    3 1   
     6    2   22 1   
     7    2   23 1   
     8    3    4 1   
     9    3   24 1   
    10    3   25 1   
    11    4    5 1   
    12    4   26 1   
    13    4   27 1   
    14    5    6 2   
    15    5   19 1   
    16    6    7 1   
    17    7    8 2   
    18    7   28 1   
    19    8    9 1   
    20    8   29 1   
    21    9   10 2   
    22    9   20 1   
    23   10   11 1   
    24   10   30 1   
    25   11   12 2   
    26   11   31 1   
    27   12   13 1   
    28   12   32 1   
    29   13   14 2   
    30   13   21 1   
    31   14   15 1   
    32   14   33 1   
    33   15   16 2   
    34   15   34 1   
    35   17   35 1   
    36   17   36 1   
    37   17   37 1   
    38   18   38 1   
    39   18   39 1   
    40   18   40 1   
    41   19   41 1   
    42   19   42 1   
    43   19   43 1   
    44   20   44 1   
    45   20   45 1   
    46   20   46 1   
    47   21   47 1   
    48   21   48 1   
    49   21   49 1   
@<TRIPOS>SUBSTRUCTURE
     1 RET         1 TEMP              0 ****  ****    0 ROOT
