@<TRIPOS>MOLECULE
RET
   49    49     1     0     0
SMALL
bcc


@<TRIPOS>ATOM
      1 C1         -0.2050    0.1580   -0.1000 c3        1 RET     -0.004800
      2 C2          1.0840    0.0210    0.7190 c3        1 RET     -0.071400
      3 C3          0.9940    0.7110    2.0590 c3        1 RET     -0.076400
      4 C4          0.7460    2.1910    1.8700 c3        1 RET     -0.043200
      5 C5         -0.3300    2.4710    0.8780 c2        1 RET     -0.089400
      6 C6         -0.7820    1.5520   -0.0020 ce        1 RET     -0.094200
      7 C7         -1.8160    1.8590   -0.9860 ce        1 RET     -0.098000
      8 C8         -3.0700    2.2960   -0.8090 cf        1 RET     -0.143000
      9 C9         -3.7880    2.5840    0.4260 cf        1 RET     -0.035200
     10 C10        -4.6280    3.6450    0.4630 ce        1 RET     -0.167000
     11 C11        -5.4070    4.0280    1.6150 ce        1 RET     -0.096000
     12 C12        -6.2750    5.0520    1.6650 cf        1 RET     -0.157000
     13 C13        -6.6250    5.9510    0.5690 cf        1 RET      0.003800
     14 C14        -6.5480    7.2850    0.7470 ce        1 RET     -0.283200
     15 C15        -6.8970    8.2700   -0.2780 c         1 RET      0.562100
     16 O1         -6.8000    9.4870   -0.0950 o         1 RET     -0.530100
     17 C16         0.1390   -0.1760   -1.5510 c3        1 RET     -0.086600
     18 C17        -1.2290   -0.8580    0.3960 c3        1 RET     -0.086600
     19 C18        -0.8470    3.8610    0.9340 c3        1 RET     -0.064900
     20 C19        -3.6120    1.6760    1.5840 c3        1 RET     -0.071900
     21 C20        -7.1000    5.3310   -0.6950 c3        1 RET     -0.079900
     22 H21         1.3060   -1.0680    0.8660 hc        1 RET      0.042700
     23 H22         1.9350    0.4630    0.1360 hc        1 RET      0.042700
     24 H31         1.9470    0.5580    2.6290 hc        1 RET      0.042200
     25 H32         0.1650    0.2610    2.6660 hc        1 RET      0.042200
     26 H41         0.4720    2.6550    2.8550 hc        1 RET      0.049700
     27 H42         1.6900    2.6910    1.5200 hc        1 RET      0.049700
     28 H7         -1.4760    1.7050   -2.0310 ha        1 RET      0.125000
     29 H8         -3.6750    2.4880   -1.7180 ha        1 RET      0.121000
     30 H10        -5.2490    3.4260    2.5300 ha        1 RET      0.127000
     31 H11        -4.7340    4.2870   -0.4300 ha        1 RET      0.127000
     32 H12        -6.7880    5.2810    2.6160 ha        1 RET      0.135000
     33 H14        -6.1990    7.7040    1.7060 ha        1 RET      0.149000
     34 H15        -7.2640    7.8640   -1.2490 h4        1 RET     -0.009800
     35 H161        0.7510   -1.1100   -1.5880 hc        1 RET      0.036533
     36 H162       -0.7880   -0.3440   -2.1490 hc        1 RET      0.036533
     37 H163        0.7250    0.6530   -2.0150 hc        1 RET      0.036533
     38 H171       -1.4010   -0.7410    1.4920 hc        1 RET      0.036533
     39 H172       -2.2000   -0.7200   -0.1390 hc        1 RET      0.036533
     40 H173       -0.8610   -1.8950    0.2040 hc        1 RET      0.036533
     41 H181       -1.2760    4.1780   -0.0490 hc        1 RET      0.045367
     42 H182       -0.0310    4.5730    1.2130 hc        1 RET      0.045367
     43 H183       -1.6570    3.9320    1.7040 hc        1 RET      0.045367
     44 H191       -4.5810    1.1740    1.8310 hc        1 RET      0.050367
     45 H192       -2.8490    0.8870    1.3650 hc        1 RET      0.050367
     46 H193       -3.2730    2.2480    2.4840 hc        1 RET      0.050367
     47 H201       -6.4460    5.6340   -1.5510 hc        1 RET      0.053700
     48 H202       -7.0920    4.2150   -0.6250 hc        1 RET      0.053700
     49 H203       -8.1460    5.6610   -0.9180 hc        1 RET      0.053700
@<TRIPOS>BOND
     1    1    2 1   
     2    1    6 1   
     3    1   17 1   
     4    1   18 1   
     5    2    3 1   
     6    2   22 1   
     7    2   23 1   
     8    3    4 1   
     9    3   24 1   
    10    3   25 1   
    11    4    5 1   
    12    4   26 1   
    13    4   27 1   
    14    5    6 2   
    15    5   19 1   
    16    6    7 1   
    17    7    8 2   
    18    7   28 1   
    19    8    9 1   
    20    8   29 1   
    21    9   10 2   
    22    9   20 1   
    23   10   11 1   
    24   10   31 1   
    25   11   12 2   
    26   11   30 1   
    27   12   13 1   
    28   12   32 1   
    29   13   14 2   
    30   13   21 1   
    31   14   15 1   
    32   14   33 1   
    33   15   16 2   
    34   15   34 1   
    35   17   35 1   
    36   17   36 1   
    37   17   37 1   
    38   18   38 1   
    39   18   39 1   
    40   18   40 1   
    41   19   41 1   
    42   19   42 1   
    43   19   43 1   
    44   20   44 1   
    45   20   45 1   
    46   20   46 1   
    47   21   47 1   
    48   21   48 1   
    49   21   49 1   
@<TRIPOS>SUBSTRUCTURE
     1 RET         1 TEMP              0 ****  ****    0 ROOT
