@<TRIPOS>MOLECULE
REV
   41    42     1     0     0
SMALL
bcc


@<TRIPOS>ATOM
      1 C01        -0.2550    0.1100    0.1740 ca        1 REV      0.089100
      2 C02         1.1360    0.3300    0.0850 ca        1 REV      0.075100
      3 C03         1.9330    0.3260    1.2340 ca        1 REV     -0.169000
      4 C04         1.3790    0.1020    2.4960 ca        1 REV     -0.063300
      5 C05        -0.0060   -0.1250    2.5930 ca        1 REV      0.103100
      6 C06        -0.8190   -0.1150    1.4390 ca        1 REV      0.032100
      7 C07         2.5790    2.4490    4.4490 ca        1 REV     -0.127500
      8 C08         3.0930    1.3170    3.7990 ca        1 REV     -0.068300
      9 C09         4.3750    1.3820    3.2420 ca        1 REV     -0.127500
     10 C10         5.1280    2.5520    3.3330 ca        1 REV     -0.130000
     11 C11         4.6090    3.6730    3.9800 ca        1 REV     -0.132000
     12 C12         3.3320    3.6180    4.5370 ca        1 REV     -0.130000
     13 O13        -2.1850   -0.2410    1.6370 os        1 REV     -0.345900
     14 C14        -2.7500   -1.4270    1.0710 c3        1 REV      0.112700
     15 O15        -1.0620   -0.0070   -0.9430 os        1 REV     -0.330900
     16 C16        -1.1640    1.1880   -1.7220 c3        1 REV      0.116700
     17 O17         1.6570    0.5570   -1.1710 oh        1 REV     -0.494100
     18 O18        -0.5450   -0.3400    3.8400 oh        1 REV     -0.499100
     19 C19         2.2420    0.0840    3.7240 c3        1 REV      0.026900
     20 C20         3.0370   -1.2190    3.7710 c3        1 REV     -0.069400
     21 C21         3.8190   -1.3630    5.0500 c3        1 REV     -0.096100
     22 H1          3.0160    0.5090    1.1510 ha        1 REV      0.145000
     23 H2          1.5710    2.4120    4.8910 ha        1 REV      0.133500
     24 H3          4.8040    0.5040    2.7360 ha        1 REV      0.133500
     25 H4          6.1360    2.5880    2.8950 ha        1 REV      0.130000
     26 H5          5.2030    4.5950    4.0510 ha        1 REV      0.131000
     27 H6          2.9170    4.4980    5.0490 ha        1 REV      0.130000
     28 H7         -2.3250   -2.3300    1.5720 h1        1 REV      0.048700
     29 H8         -2.5630   -1.4640   -0.0300 h1        1 REV      0.048700
     30 H9         -3.8420   -1.3250    1.2890 h1        1 REV      0.048700
     31 H10        -1.8570    0.8970   -2.5500 h1        1 REV      0.047033
     32 H11        -0.1630    1.4800   -2.1230 h1        1 REV      0.047033
     33 H12        -1.5990    2.0130   -1.1090 h1        1 REV      0.047033
     34 H13         2.6090    0.7100   -1.0710 ho        1 REV      0.419000
     35 H14        -1.5080   -0.4200    3.7360 ho        1 REV      0.437000
     36 H15         1.5630    0.0870    4.6300 hc        1 REV      0.083700
     37 H16         3.7270   -1.2780    2.8890 hc        1 REV      0.042700
     38 H17         2.3120   -2.0720    3.6790 hc        1 REV      0.042700
     39 H18         3.1370   -1.3490    5.9340 hc        1 REV      0.037033
     40 H19         4.5530   -0.5270    5.1590 hc        1 REV      0.037033
     41 H20         4.3790   -2.3300    5.0510 hc        1 REV      0.037033
@<TRIPOS>BOND
     1    1    2 ar  
     2    1    6 ar  
     3    1   15 1   
     4    2    3 ar  
     5    2   17 1   
     6    3    4 ar  
     7    3   22 1   
     8    4    5 ar  
     9    4   19 1   
    10    5    6 ar  
    11    5   18 1   
    12    6   13 1   
    13    7    8 ar  
    14    7   12 ar  
    15    7   23 1   
    16    8    9 ar  
    17    8   19 1   
    18    9   10 ar  
    19    9   24 1   
    20   10   11 ar  
    21   10   25 1   
    22   11   12 ar  
    23   11   26 1   
    24   12   27 1   
    25   13   14 1   
    26   14   28 1   
    27   14   29 1   
    28   14   30 1   
    29   15   16 1   
    30   16   31 1   
    31   16   32 1   
    32   16   33 1   
    33   17   34 1   
    34   18   35 1   
    35   19   20 1   
    36   19   36 1   
    37   20   21 1   
    38   20   37 1   
    39   20   38 1   
    40   21   39 1   
    41   21   40 1   
    42   21   41 1   
@<TRIPOS>SUBSTRUCTURE
     1 REV         1 TEMP              0 ****  ****    0 ROOT
