@<TRIPOS>MOLECULE
REV
   41    42     1     0     0
SMALL
bcc


@<TRIPOS>ATOM
      1 C01         0.0890   -0.1970    0.0110 ca        1 REV      0.021100
      2 C02         1.4690   -0.4720    0.0170 ca        1 REV      0.102100
      3 C03         2.2010   -0.4200    1.2120 ca        1 REV     -0.126000
      4 C04         1.5790   -0.0850    2.4140 ca        1 REV     -0.058300
      5 C05         0.1920    0.1720    2.4140 ca        1 REV      0.105100
      6 C06        -0.5520    0.1100    1.2190 ca        1 REV      0.022100
      7 C07         2.6180    2.1650    4.9200 ca        1 REV     -0.121000
      8 C08         3.0000    1.3370    3.8570 ca        1 REV     -0.069300
      9 C09         3.9830    1.7820    2.9660 ca        1 REV     -0.121000
     10 C10         4.5800    3.0300    3.1390 ca        1 REV     -0.131500
     11 C11         4.1990    3.8470    4.2040 ca        1 REV     -0.131000
     12 C12         3.2160    3.4120    5.0920 ca        1 REV     -0.131500
     13 O13        -1.8930    0.4640    1.2870 os        1 REV     -0.350900
     14 C14        -2.7850   -0.6170    0.9990 c3        1 REV      0.108700
     15 O15        -0.5920   -0.3490   -1.1880 os        1 REV     -0.349900
     16 C16        -1.1370    0.8720   -1.6970 c3        1 REV      0.108700
     17 O17         2.1550   -0.8080   -1.1260 oh        1 REV     -0.494100
     18 O18        -0.4110    0.4760    3.6130 oh        1 REV     -0.495100
     19 C19         2.3530   -0.0080    3.6970 c3        1 REV      0.027900
     20 C20         3.3780   -1.1370    3.7980 c3        1 REV     -0.073400
     21 C21         3.7960   -1.3840    5.2250 c3        1 REV     -0.094100
     22 H1          3.2780   -0.6460    1.1810 ha        1 REV      0.158000
     23 H2          1.8360    1.8320    5.6190 ha        1 REV      0.133500
     24 H3          4.2810    1.1470    2.1180 ha        1 REV      0.133500
     25 H4          5.3520    3.3700    2.4330 ha        1 REV      0.130000
     26 H5          4.6710    4.8300    4.3400 ha        1 REV      0.129000
     27 H6          2.9090    4.0550    5.9300 ha        1 REV      0.130000
     28 H7         -2.5910   -1.0140   -0.0270 h1        1 REV      0.048700
     29 H8         -2.6700   -1.4240    1.7610 h1        1 REV      0.048700
     30 H9         -3.7970   -0.1460    1.0650 h1        1 REV      0.048700
     31 H10        -0.3170    1.5920   -1.9280 h1        1 REV      0.049033
     32 H11        -1.6660    0.5540   -2.6300 h1        1 REV      0.049033
     33 H12        -1.8510    1.3130   -0.9590 h1        1 REV      0.049033
     34 H13         1.5140   -0.8330   -1.8560 ho        1 REV      0.434000
     35 H14        -1.3440    0.6730    3.4320 ho        1 REV      0.435000
     36 H15         1.6140   -0.1480    4.5440 hc        1 REV      0.079700
     37 H16         4.2810   -0.8860    3.1820 hc        1 REV      0.044700
     38 H17         2.9300   -2.0740    3.3720 hc        1 REV      0.044700
     39 H18         4.5840   -2.1740    5.2630 hc        1 REV      0.036367
     40 H19         4.2050   -0.4500    5.6820 hc        1 REV      0.036367
     41 H20         2.9270   -1.7240    5.8390 hc        1 REV      0.036367
@<TRIPOS>BOND
     1    1    2 ar  
     2    1    6 ar  
     3    1   15 1   
     4    2    3 ar  
     5    2   17 1   
     6    3    4 ar  
     7    3   22 1   
     8    4    5 ar  
     9    4   19 1   
    10    5    6 ar  
    11    5   18 1   
    12    6   13 1   
    13    7    8 ar  
    14    7   12 ar  
    15    7   23 1   
    16    8    9 ar  
    17    8   19 1   
    18    9   10 ar  
    19    9   24 1   
    20   10   11 ar  
    21   10   25 1   
    22   11   12 ar  
    23   11   26 1   
    24   12   27 1   
    25   13   14 1   
    26   14   28 1   
    27   14   29 1   
    28   14   30 1   
    29   15   16 1   
    30   16   31 1   
    31   16   32 1   
    32   16   33 1   
    33   17   34 1   
    34   18   35 1   
    35   19   20 1   
    36   19   36 1   
    37   20   21 1   
    38   20   37 1   
    39   20   38 1   
    40   21   39 1   
    41   21   40 1   
    42   21   41 1   
@<TRIPOS>SUBSTRUCTURE
     1 REV         1 TEMP              0 ****  ****    0 ROOT
