@<TRIPOS>MOLECULE
REW
   65    69     1     0     0
SMALL
bcc


@<TRIPOS>ATOM
      1 C13         4.6220   -1.3200   -1.0650 c3        1 REW     -0.107700
      2 C18         0.3000    1.9460    0.6450 ca        1 REW     -0.109000
      3 C17         1.4490    1.3280    0.1470 ca        1 REW     -0.213000
      4 C16         1.3230    0.0840   -0.4790 ca        1 REW      0.106100
      5 C19        -0.9450    1.3390    0.5230 ca        1 REW     -0.159000
      6 C20        -1.0670    0.0900   -0.1060 ca        1 REW     -0.036300
      7 C21         0.0710   -0.5410   -0.6110 ca        1 REW     -0.148000
      8 C22        -2.3900   -0.5880   -0.2070 c3        1 REW     -0.049100
      9 C23        -3.4380    0.2510   -0.8850 cy        1 REW     -0.131700
     10 C24        -4.7660   -0.4900   -1.2780 cy        1 REW     -0.008300
     11 C11        11.3080    0.8060    1.1790 ca        1 REW     -0.140000
     12 C12        10.1710    0.0240    0.9950 ca        1 REW     -0.093000
     13 C33        -7.2370    1.7310    0.6790 ca        1 REW     -0.144500
     14 C36        -4.8100   -2.0270   -1.0950 c         1 REW      0.918600
     15 O37        -3.9200   -2.6690   -1.7200 o         1 REW     -0.816800
     16 N25        -5.4580    0.4150   -0.3330 n         1 REW     -0.373000
     17 C28        -6.8000    0.5810   -0.0220 ca        1 REW      0.082600
     18 C32        -8.5830    1.9190    0.9660 ca        1 REW     -0.156000
     19 C31        -9.5210    0.9630    0.5530 ca        1 REW      0.056100
     20 O34       -10.8470    1.2650    0.8480 os        1 REW     -0.342900
     21 C35       -11.7540    0.1780    0.7470 c3        1 REW      0.120700
     22 C30        -9.1090   -0.1880   -0.1270 ca        1 REW     -0.156000
     23 C29        -7.7630   -0.3840   -0.4060 ca        1 REW     -0.144500
     24 C26        -4.3120    1.1220    0.0460 c         1 REW      0.697500
     25 O27        -4.1320    2.0750    0.8080 o         1 REW     -0.643500
     26 O15         2.3840   -0.6070   -1.0470 os        1 REW     -0.341900
     27 C14         3.6820   -0.2220   -0.5830 c3        1 REW      0.137400
     28 C3          5.9650   -1.1770   -0.4650 cc        1 REW      0.248300
     29 N4          6.7700   -0.0330   -0.6130 nc        1 REW     -0.656000
     30 C5          7.9030   -0.2860    0.0510 cd        1 REW      0.538900
     31 O6          7.8930   -1.5670    0.6450 os        1 REW     -0.386800
     32 C2          6.6510   -2.1170    0.3060 cd        1 REW      0.166700
     33 C1          6.3640   -3.4620    0.7990 c3        1 REW     -0.128400
     34 C7          9.0930    0.5220    0.2470 ca        1 REW     -0.126500
     35 C10        11.3800    2.0840    0.6220 ca        1 REW     -0.117000
     36 C9         10.3090    2.5800   -0.1210 ca        1 REW     -0.140000
     37 C8          9.1650    1.8070   -0.3120 ca        1 REW     -0.093000
     38 H131        4.1940   -2.3210   -0.7910 hc        1 REW      0.069700
     39 H132        4.6950   -1.2780   -2.1850 hc        1 REW      0.069700
     40 H17         2.4250    1.8180    0.2470 ha        1 REW      0.126000
     41 H19        -1.8500    1.8340    0.9160 ha        1 REW      0.165000
     42 H21         0.0000   -1.5170   -1.1140 ha        1 REW      0.156000
     43 H221       -2.2960   -1.5520   -0.7900 hc        1 REW      0.096200
     44 H222       -2.7350   -0.8670    0.8260 hc        1 REW      0.096200
     45 H23        -3.0070    0.8420   -1.7260 hc        1 REW      0.072700
     46 H24        -5.0800   -0.2700   -2.3320 h1        1 REW      0.051700
     47 H11        12.1510    0.4140    1.7660 ha        1 REW      0.134000
     48 H12        10.1100   -0.9840    1.4340 ha        1 REW      0.153000
     49 H32        -8.9190    2.8110    1.5110 ha        1 REW      0.128000
     50 H351      -11.3960   -0.7030    1.3350 h1        1 REW      0.032700
     51 H352      -12.7050    0.5800    1.1780 h1        1 REW      0.032700
     52 H353      -11.9020   -0.1080   -0.3230 h1        1 REW      0.032700
     53 H30        -9.8350   -0.9530   -0.4340 ha        1 REW      0.128000
     54 H29        -7.4260   -1.3230   -0.8880 ha        1 REW      0.172500
     55 H141        3.6880   -0.1460    0.5350 h1        1 REW      0.045700
     56 H142        3.9570    0.7680   -1.0310 h1        1 REW      0.045700
     57 H11A        6.9860   -4.2160    0.2520 hc        1 REW      0.062033
     58 H12A        6.6000   -3.5380    1.8910 hc        1 REW      0.062033
     59 H13         5.2830   -3.7000    0.6410 hc        1 REW      0.062033
     60 H10        12.2790    2.6990    0.7700 ha        1 REW      0.130000
     61 H9         10.3640    3.5870   -0.5600 ha        1 REW      0.134000
     62 H8          8.3220    2.2030   -0.8990 ha        1 REW      0.153000
     63 O38        -5.7250   -2.5510   -0.4100 o         1 REW     -0.816800
     64 H33        -6.5020    2.4810    1.0150 ha        1 REW      0.172500
     65 H18         0.3850    2.9250    1.1390 ha        1 REW      0.122000
@<TRIPOS>BOND
     1    1   27 1   
     2    1   28 1   
     3    1   38 1   
     4    1   39 1   
     5    2    3 ar  
     6    2    5 ar  
     7    2   65 1   
     8    3    4 ar  
     9    3   40 1   
    10    4    7 ar  
    11    4   26 1   
    12    5    6 ar  
    13    5   41 1   
    14    6    7 ar  
    15    6    8 1   
    16    7   42 1   
    17    8    9 1   
    18    8   43 1   
    19    8   44 1   
    20    9   10 1   
    21    9   24 1   
    22    9   45 1   
    23   10   14 1   
    24   10   16 1   
    25   10   46 1   
    26   11   12 ar  
    27   11   35 ar  
    28   11   47 1   
    29   12   34 ar  
    30   12   48 1   
    31   13   17 ar  
    32   13   18 ar  
    33   13   64 1   
    34   14   15 1   
    35   14   63 1   
    36   16   17 1   
    37   16   24 1   
    38   17   23 ar  
    39   18   19 ar  
    40   18   49 1   
    41   19   20 1   
    42   19   22 ar  
    43   20   21 1   
    44   21   50 1   
    45   21   51 1   
    46   21   52 1   
    47   22   23 ar  
    48   22   53 1   
    49   23   54 1   
    50   24   25 2   
    51   26   27 1   
    52   27   55 1   
    53   27   56 1   
    54   28   29 1   
    55   28   32 2   
    56   29   30 2   
    57   30   31 1   
    58   30   34 1   
    59   31   32 1   
    60   32   33 1   
    61   33   57 1   
    62   33   58 1   
    63   33   59 1   
    64   34   37 ar  
    65   35   36 ar  
    66   35   60 1   
    67   36   37 ar  
    68   36   61 1   
    69   37   62 1   
@<TRIPOS>SUBSTRUCTURE
     1 REW         1 TEMP              0 ****  ****    0 ROOT
