@<TRIPOS>MOLECULE
REW
   65    64     1     0     0
SMALL
bcc


@<TRIPOS>ATOM
      1 C13         2.9920   -0.7500   -0.3890 c3        1 REW     -0.186000
      2 C18         9.3940    2.3890    3.2450 c2        1 REW     -0.223000
      3 C17         9.1090    2.7900    2.0020 c2        1 REW     -0.037000
      4 C16         8.2080    2.1370    1.1460 c1        1 REW     -0.212000
      5 C19         8.9620    4.1710   -3.2940 c1        1 REW      0.184000
      6 C20         8.5470    3.0620   -3.8630 c2        1 REW     -0.449000
      7 C21         7.4410    1.5960    0.3990 c1        1 REW     -0.157000
      8 C22         7.9740    1.8880   -3.2430 c2        1 REW     -0.004000
      9 C23         7.6350    0.8060   -3.9360 cv        1 REW     -0.169000
     10 C24         7.0120   -0.5410   -3.6020 cy        1 REW      0.017000
     11 C11        -4.4720   -3.8980    3.2400 c3        1 REW     -0.209000
     12 C12        -2.8630   -3.1950    0.2540 c1        1 REW      0.064000
     13 C33         7.0090   -1.9440   -7.2080 ca        1 REW     -0.132500
     14 C36         5.6780   -0.5050   -2.8370 c2        1 REW      0.350000
     15 O37         5.6230    0.2580   -1.8290 o         1 REW     -0.572500
     16 N25         7.0400   -0.7920   -5.0650 n         1 REW     -0.284000
     17 C28         6.6800   -1.8930   -5.8250 ca        1 REW      0.078000
     18 C32         6.6530   -3.0350   -7.9820 ca        1 REW     -0.183500
     19 C31         5.9730   -4.1170   -7.3970 ca        1 REW      0.089000
     20 O34         5.6640   -5.1940   -8.1960 oh        1 REW     -0.286000
     21 C35         3.5450   -3.9010   -6.8590 c1        1 REW     -0.159000
     22 C30         5.6570   -4.0960   -6.0270 ca        1 REW     -0.183500
     23 C29         5.9970   -2.9850   -5.2510 ca        1 REW     -0.132500
     24 C26         7.6410    0.4380   -5.3910 cv        1 REW      0.351000
     25 O27         8.0100    0.9440   -6.4520 o         1 REW     -0.350000
     26 O15         2.0880    1.4600    0.0520 o         1 REW     -0.330000
     27 C14         3.0520    0.7370   -0.2100 c2        1 REW      0.200000
     28 C3          1.6370   -1.2990   -0.5890 c2        1 REW     -0.108000
     29 N4          0.7690   -1.6830    0.4330 n2        1 REW     -0.079000
     30 C5         -0.3470   -2.1310   -0.1710 c2        1 REW     -0.003000
     31 O6         -0.2490   -2.0540   -1.5810 os        1 REW     -0.096000
     32 C2          1.0120   -1.5260   -1.8280 c2        1 REW      0.004000
     33 C1          1.4170   -1.3210   -3.2160 c3        1 REW     -0.188000
     34 C7         -1.5420   -2.6370    0.3690 c2        1 REW     -0.084000
     35 C10        -3.1910   -3.3450    3.7140 c2        1 REW     -0.093000
     36 C9         -2.1890   -2.9140    2.9290 c2        1 REW     -0.125000
     37 C8         -2.2230   -2.9280    1.5160 c2        1 REW     -0.134000
     38 H131        3.6340   -0.9980   -1.2950 hc        1 REW      0.156000
     39 H132        3.4820   -1.2210    0.5070 hc        1 REW      0.156000
     40 H17         9.5870    3.6910    1.5720 ha        1 REW      0.126000
     41 H19         8.9390    1.5030    3.7040 ha        1 REW      0.110500
     42 H21         8.6370    3.0050   -4.9770 ha        1 REW      0.213000
     43 H221        2.8900    1.1850   -2.7900 ha        1 REW      0.000500
     44 H222        7.8030    1.9130   -2.1490 ha        1 REW      0.165000
     45 H23         3.4840    0.8560   -2.7780 ha        1 REW      0.000500
     46 H24         7.7030   -1.2400   -3.0590 h1        1 REW      0.107000
     47 H11        -5.3200   -3.2770    3.6260 hc        1 REW      0.094000
     48 H12        -4.6030   -4.9410    3.6250 hc        1 REW      0.094000
     49 H32         6.8990   -3.0690   -9.0530 ha        1 REW      0.148000
     50 H351        4.7630   -5.4740   -7.9350 ho        1 REW      0.249000
     51 H352        3.6000   -2.9340   -7.3790 ha        1 REW      0.026500
     52 H353        3.1310   -3.7940   -5.8460 ha        1 REW      0.026500
     53 H30         5.2230   -4.9870   -5.5440 ha        1 REW      0.148000
     54 H29         5.6960   -2.9440   -4.1870 ha        1 REW      0.171500
     55 H141        6.7560    1.1120   -0.2710 ha        1 REW      0.277000
     56 H142        4.0820    1.1480   -0.3450 h4        1 REW      0.130000
     57 H11A        1.0670   -0.3160   -3.5670 hc        1 REW      0.122333
     58 H12A        2.5420   -1.3470   -3.2870 hc        1 REW      0.122333
     59 H13         0.9790   -2.1060   -3.8800 hc        1 REW      0.122333
     60 H10        -4.5280   -3.9210    2.1220 hc        1 REW      0.094000
     61 H9         -3.0760   -3.2950    4.8110 ha        1 REW      0.117000
     62 H8         -1.2620   -2.5130    3.3810 ha        1 REW      0.143000
     63 O38         4.7300   -1.2630   -3.1800 o         1 REW     -0.572500
     64 H33         7.5420   -1.0960   -7.6720 ha        1 REW      0.171500
     65 H18        10.1060    2.9330    3.8770 ha        1 REW      0.110500
@<TRIPOS>BOND
     1    1   27 1   
     2    1   28 1   
     3    1   38 1   
     4    1   39 1   
     5    2    3 1   
     6    2   41 1   
     7    2   65 1   
     8    3    4 1   
     9    3   40 1   
    10    4    7 1   
    11    5    6 1   
    12    6    8 1   
    13    6   42 1   
    14    7   55 1   
    15    8    9 1   
    16    8   44 1   
    17    9   10 1   
    18    9   24 1   
    19   10   14 1   
    20   10   16 1   
    21   10   46 1   
    22   11   35 1   
    23   11   47 1   
    24   11   48 1   
    25   11   60 1   
    26   12   34 1   
    27   12   37 1   
    28   13   17 1   
    29   13   18 1   
    30   13   64 1   
    31   14   15 1   
    32   14   63 1   
    33   16   17 1   
    34   16   24 1   
    35   17   23 1   
    36   18   19 1   
    37   18   49 1   
    38   19   20 1   
    39   19   22 1   
    40   20   50 1   
    41   21   51 1   
    42   21   52 1   
    43   22   23 1   
    44   22   53 1   
    45   23   54 1   
    46   24   25 1   
    47   26   27 1   
    48   27   56 1   
    49   28   29 1   
    50   28   32 1   
    51   29   30 1   
    52   30   31 1   
    53   30   34 1   
    54   31   32 1   
    55   32   33 1   
    56   33   57 1   
    57   33   58 1   
    58   33   59 1   
    59   34   37 1   
    60   35   36 1   
    61   35   61 1   
    62   36   37 1   
    63   36   62 1   
    64   43   45 1   
@<TRIPOS>SUBSTRUCTURE
     1 REW         1 TEMP              0 ****  ****    0 ROOT
