@<TRIPOS>MOLECULE
REX
   51    50     1     0     0
SMALL
bcc


@<TRIPOS>ATOM
      1 C1          0.5510    0.0980   -0.6980 c3        1 REX     -0.076400
      2 C2          2.0580   -0.0300   -0.6780 c3        1 REX     -0.083400
      3 C3          0.0190    0.0210    0.7160 c3        1 REX     -0.157400
      4 C4          2.5860   -0.0010   -2.0950 c3        1 REX     -0.085400
      5 C5         -1.4810    0.2140    0.7020 c         1 REX      0.651100
      6 N1         -2.2020    0.2670    1.9230 n         1 REX     -0.533900
      7 O1         -2.0670    0.3420   -0.3550 o         1 REX     -0.618100
      8 C6         -3.5840    0.5900    1.9190 c3        1 REX      0.010700
      9 C7         -4.2890   -0.1930    3.0040 c         1 REX      0.622100
     10 C8         -3.7560    2.0710    2.1730 c3        1 REX     -0.102100
     11 O2         -3.8230   -0.2310    4.1250 o         1 REX     -0.669100
     12 N2         -5.5150   -0.8490    2.7230 n         1 REX     -0.497900
     13 C9         -6.3170   -1.3400    3.7860 c3        1 REX     -0.057300
     14 C10         4.0910   -0.1460   -2.0760 c3        1 REX      0.020700
     15 C11        -6.4640   -2.8400    3.6560 c3        1 REX     -0.077100
     16 C12        -7.6830   -0.6930    3.7270 c         1 REX      0.911600
     17 O3         -8.3510   -0.7280    2.6600 o         1 REX     -0.830300
     18 O4         -8.1510   -0.1160    4.7440 o         1 REX     -0.830300
     19 N3          4.6530    0.6150   -3.1350 n         1 REX     -0.551900
     20 C13         4.4590   -1.6020   -2.2510 c         1 REX      0.859600
     21 C14         6.0620    0.7530   -3.2390 c         1 REX      0.659100
     22 C15         6.6590    1.5980   -4.3420 c3        1 REX      0.095800
     23 O5          6.7870    0.2010   -2.4360 o         1 REX     -0.645100
     24 N4          8.0510    1.3050   -4.4650 n4        1 REX     -1.135600
     25 O6          5.1000   -2.2020   -1.3480 o         1 REX     -0.567800
     26 O7          4.1350   -2.2120   -3.3040 o         1 REX     -0.567800
     27 HC11        0.1690   -0.6280   -1.2300 hc        1 REX      0.054700
     28 HC12        0.3020    0.9580   -1.0930 hc        1 REX      0.054700
     29 HC21        2.4420    0.7140   -0.1710 hc        1 REX      0.043200
     30 HC22        2.3080   -0.8760   -0.2540 hc        1 REX      0.043200
     31 HC31        0.4330    0.7210    1.2590 hc        1 REX      0.065700
     32 HC32        0.2310   -0.8550    1.0970 hc        1 REX      0.065700
     33 HC41        2.1940   -0.7380   -2.6040 hc        1 REX      0.070700
     34 HC42        2.3460    0.8490   -2.5150 hc        1 REX      0.070700
     35 HN1        -1.7710    0.1160    2.7130 hn        1 REX      0.318500
     36 HC6        -3.9700    0.3620    1.0500 h1        1 REX      0.093700
     37 HC81       -3.2910    2.3170    3.0010 hc        1 REX      0.049033
     38 HC82       -3.3790    2.5770    1.4240 hc        1 REX      0.049033
     39 HC83       -4.7100    2.2790    2.2610 hc        1 REX      0.049033
     40 HN2        -5.7970   -0.9370    1.8600 hn        1 REX      0.328500
     41 HC9        -5.8920   -1.1270    4.6400 h1        1 REX      0.061700
     42 H10         4.4380    0.1780   -1.2210 h1        1 REX      0.086700
     43 H111       -5.6060   -3.2700    3.8540 hc        1 REX      0.027700
     44 H112       -6.7380   -3.0630    2.7420 hc        1 REX      0.027700
     45 H113       -7.1420   -3.1580    4.2880 hc        1 REX      0.027700
     46 HN3         4.1090    1.0180   -3.7460 hn        1 REX      0.344500
     47 H151        6.2070    1.3990   -5.1880 hx        1 REX      0.064200
     48 H152        6.5440    2.5470   -4.1250 hx        1 REX      0.064200
     49 HN41        8.1590    0.4170   -4.6750 hn        1 REX      0.397800
     50 HN42        8.4740    1.4850   -3.6700 hn        1 REX      0.397800
     51 HN43        8.4150    1.8230   -5.1300 hn        1 REX      0.397800
@<TRIPOS>BOND
     1    1    2 1   
     2    1    3 1   
     3    1   27 1   
     4    1   28 1   
     5    2    4 1   
     6    2   29 1   
     7    2   30 1   
     8    3    5 1   
     9    3   31 1   
    10    3   32 1   
    11    4   14 1   
    12    4   33 1   
    13    4   34 1   
    14    5    6 1   
    15    5    7 2   
    16    6    8 1   
    17    6   35 1   
    18    8    9 1   
    19    8   10 1   
    20    8   36 1   
    21    9   11 2   
    22    9   12 1   
    23   10   37 1   
    24   10   38 1   
    25   10   39 1   
    26   12   13 1   
    27   12   40 1   
    28   13   15 1   
    29   13   16 1   
    30   13   41 1   
    31   14   19 1   
    32   14   20 1   
    33   14   42 1   
    34   15   43 1   
    35   15   44 1   
    36   15   45 1   
    37   16   17 1   
    38   16   18 1   
    39   19   21 1   
    40   19   46 1   
    41   20   25 1   
    42   20   26 1   
    43   21   22 1   
    44   21   23 2   
    45   22   24 1   
    46   22   47 1   
    47   22   48 1   
    48   24   49 1   
    49   24   50 1   
    50   24   51 1   
@<TRIPOS>SUBSTRUCTURE
     1 REX         1 TEMP              0 ****  ****    0 ROOT
