@<TRIPOS>MOLECULE
REX
   51    50     1     0     0
SMALL
bcc


@<TRIPOS>ATOM
      1 C1         -1.4110    0.9340   -0.3690 c3        1 REX     -0.074400
      2 C2         -2.6880    0.2120    0.0040 c3        1 REX     -0.081400
      3 C3         -0.2300   -0.0120   -0.3320 c3        1 REX     -0.154400
      4 C4         -3.8790    1.1380   -0.0980 c3        1 REX     -0.086400
      5 C5          1.0670    0.7220   -0.6410 c         1 REX      0.650100
      6 N1          2.1500   -0.0670   -0.9760 n         1 REX     -0.535900
      7 O1          1.1240    1.9690   -0.6390 o         1 REX     -0.619100
      8 C6          3.5000    0.4580   -1.0080 c3        1 REX      0.010700
      9 C7          4.4320   -0.3330   -0.0410 c         1 REX      0.622100
     10 C8          4.1210    0.3860   -2.4030 c3        1 REX     -0.102100
     11 O2          4.0810   -1.4640    0.3750 o         1 REX     -0.667100
     12 N2          5.5770    0.3000    0.3450 n         1 REX     -0.495900
     13 C9          6.6970   -0.4040    0.9490 c3        1 REX     -0.058300
     14 C10        -5.1680    0.4760    0.4060 c3        1 REX      0.019700
     15 C11         6.8350   -0.1190    2.4390 c3        1 REX     -0.077100
     16 C12         8.0580   -0.0330    0.2480 c         1 REX      0.910600
     17 O3          8.0640    0.9100   -0.5940 o         1 REX     -0.830300
     18 O4          9.0570   -0.7220    0.5790 o         1 REX     -0.830300
     19 N3         -5.5740   -0.6600   -0.3870 n         1 REX     -0.562900
     20 C13        -6.2740    1.5360    0.4630 c         1 REX      0.610100
     21 C14        -6.3440   -1.6770    0.1300 c         1 REX      0.614100
     22 C15        -6.6120   -2.8960   -0.7660 c3        1 REX      0.096800
     23 O5         -6.8160   -1.5940    1.2860 o         1 REX     -0.644100
     24 N4         -7.4310   -3.9190   -0.1860 n3        1 REX     -0.885800
     25 O6         -7.3530    1.3160    1.2600 oh        1 REX     -0.587100
     26 O7         -6.2920    2.6110   -0.1340 o         1 REX     -0.493000
     27 HC11       -1.2270    1.7880    0.3370 hc        1 REX      0.062700
     28 HC12       -1.5030    1.3770   -1.3950 hc        1 REX      0.062700
     29 HC21       -2.8260   -0.6710   -0.6740 hc        1 REX      0.038200
     30 HC22       -2.6050   -0.1840    1.0510 hc        1 REX      0.038200
     31 HC31       -0.3900   -0.8460   -1.0650 hc        1 REX      0.061200
     32 HC32       -0.1340   -0.4670    0.6890 hc        1 REX      0.061200
     33 HC41       -3.7060    2.0540    0.5280 hc        1 REX      0.072200
     34 HC42       -4.0150    1.4880   -1.1550 hc        1 REX      0.072200
     35 HN1         2.0950   -1.0430   -0.7740 hn        1 REX      0.319500
     36 HC6         3.4630    1.5440   -0.6870 h1        1 REX      0.092700
     37 HC81        3.4960    0.9450   -3.1390 hc        1 REX      0.049367
     38 HC82        5.1410    0.8440   -2.3770 hc        1 REX      0.049367
     39 HC83        4.2150   -0.6730   -2.7440 hc        1 REX      0.049367
     40 HN2         5.8650    1.1080   -0.1760 hn        1 REX      0.326500
     41 HC9         6.5430   -1.5140    0.8140 h1        1 REX      0.062700
     42 H10        -5.0030    0.1190    1.4710 h1        1 REX      0.087700
     43 H111        6.9450    0.9750    2.6320 hc        1 REX      0.027700
     44 H112        5.9520   -0.4950    3.0090 hc        1 REX      0.027700
     45 H113        7.7560   -0.6390    2.7990 hc        1 REX      0.027700
     46 HN3        -5.2100   -0.7270   -1.3080 hn        1 REX      0.326500
     47 H151       -7.1120   -2.5320   -1.7090 h1        1 REX      0.078200
     48 H152       -5.6180   -3.3500   -1.0430 h1        1 REX      0.078200
     49 HN41       -8.3330   -3.5580    0.0620 hn        1 REX      0.363300
     50 HN42       -7.2970    0.4380    1.6750 ho        1 REX      0.455000
     51 HN43       -7.0030   -4.2980    0.6370 hn        1 REX      0.363300
@<TRIPOS>BOND
     1    1    2 1   
     2    1    3 1   
     3    1   27 1   
     4    1   28 1   
     5    2    4 1   
     6    2   29 1   
     7    2   30 1   
     8    3    5 1   
     9    3   31 1   
    10    3   32 1   
    11    4   14 1   
    12    4   33 1   
    13    4   34 1   
    14    5    6 1   
    15    5    7 2   
    16    6    8 1   
    17    6   35 1   
    18    8    9 1   
    19    8   10 1   
    20    8   36 1   
    21    9   11 2   
    22    9   12 1   
    23   10   37 1   
    24   10   38 1   
    25   10   39 1   
    26   12   13 1   
    27   12   40 1   
    28   13   15 1   
    29   13   16 1   
    30   13   41 1   
    31   14   19 1   
    32   14   20 1   
    33   14   42 1   
    34   15   43 1   
    35   15   44 1   
    36   15   45 1   
    37   16   17 1   
    38   16   18 1   
    39   19   21 1   
    40   19   46 1   
    41   20   25 1   
    42   20   26 2   
    43   21   22 1   
    44   21   23 2   
    45   22   24 1   
    46   22   47 1   
    47   22   48 1   
    48   24   49 1   
    49   24   51 1   
    50   25   50 1   
@<TRIPOS>SUBSTRUCTURE
     1 REX         1 TEMP              0 ****  ****    0 ROOT
