@<TRIPOS>MOLECULE
REX
   54    53     1     0     0
SMALL
bcc


@<TRIPOS>ATOM
      1 C1         -0.4710    0.8380   -0.0100 c3        1 REX     -0.083400
      2 C2          0.9640    0.7240    0.4690 c3        1 REX     -0.081400
      3 C3         -1.3870    1.2530    1.1270 c3        1 REX     -0.156400
      4 C4          1.8360    0.1630   -0.6350 c3        1 REX     -0.087400
      5 C5         -2.7990    1.3840    0.6350 c         1 REX      0.558100
      6 N1         -3.8220    1.7820    1.6880 ny        1 REX     -0.677800
      7 O1         -3.2380    1.2160   -0.4910 o         1 REX     -0.407100
      8 C6         -4.8950    0.7380    1.8810 c3        1 REX      0.047500
      9 C7         -4.3650   -0.3930    2.8040 c         1 REX      0.657100
     10 C8         -6.1530    1.3520    2.4850 c3        1 REX     -0.147100
     11 O2         -3.1600   -0.3950    3.1310 o         1 REX     -0.616100
     12 N2         -5.2510   -1.3770    3.1730 ns        1 REX     -0.487900
     13 C9         -5.0190   -2.1010    4.4160 c3        1 REX     -0.001300
     14 C10         3.2870   -0.0450   -0.1750 c3        1 REX     -0.008300
     15 C11        -5.9920   -3.2640    4.5850 c3        1 REX     -0.116100
     16 C12        -5.1110   -1.1610    5.6260 c         1 REX      0.607100
     17 O3         -4.8790   -1.6320    6.8730 oh        1 REX     -0.532100
     18 O4         -5.3540    0.0470    5.5660 o         1 REX     -0.518000
     19 N3          4.0590    1.1890   -0.1730 ns        1 REX     -0.491900
     20 C13         3.9410   -1.1030   -1.0760 c         1 REX      0.600100
     21 C14         5.2910    1.1860    0.4510 c         1 REX      0.641100
     22 C15         6.3210    2.2450    0.0020 c3        1 REX      0.010800
     23 O5          5.5880    0.4300    1.3940 o         1 REX     -0.565100
     24 N4          7.6950    1.8410    0.4060 nz        1 REX     -0.829600
     25 O6          3.4970   -2.3820   -1.0480 oh        1 REX     -0.530100
     26 O7          4.8830   -0.8950   -1.8420 o         1 REX     -0.494000
     27 HC11       -0.5360    1.5860   -0.8440 hc        1 REX      0.073700
     28 HC12       -0.8160   -0.1480   -0.4230 hc        1 REX      0.073700
     29 HC21        1.3430    1.7320    0.7830 hc        1 REX      0.059200
     30 HC22        1.0110    0.0530    1.3680 hc        1 REX      0.059200
     31 HC31       -1.3630    0.4820    1.9520 hc        1 REX      0.117700
     32 HC32       -1.0500    2.2350    1.5590 hc        1 REX      0.117700
     33 HC41        1.4310   -0.8340   -0.9600 hc        1 REX      0.074700
     34 HC42        1.7980    0.8370   -1.5330 hc        1 REX      0.074700
     35 HN1        -3.3420    1.9210    2.5880 hn        1 REX      0.470800
     36 HC6        -5.1240    0.3080    0.8570 hx        1 REX      0.138700
     37 HC81       -7.0200    0.6710    2.2860 hc        1 REX      0.094700
     38 HC82       -6.4040    2.3390    2.0240 hc        1 REX      0.094700
     39 HC83       -6.0490    1.4800    3.5950 hc        1 REX      0.094700
     40 HN2        -6.2120   -1.2600    2.9250 hn        1 REX      0.326500
     41 HC9        -3.9560   -2.4950    4.3830 h1        1 REX      0.113700
     42 H10         3.2940   -0.4500    0.8850 h1        1 REX      0.117700
     43 H111       -5.7190   -3.8420    5.5020 hc        1 REX      0.073700
     44 H112       -7.0440   -2.9040    4.6930 hc        1 REX      0.073700
     45 H113       -5.9360   -3.9550    3.7080 hc        1 REX      0.073700
     46 HN3         2.8050   -2.4900   -0.3770 ho        1 REX      0.438000
     47 H151        6.0660    3.2270    0.5000 hx        1 REX      0.136200
     48 H152        6.3060    2.3810   -1.1190 hx        1 REX      0.136200
     49 HN41        8.3240    2.6500    0.3850 hn        1 REX      0.479467
     50 HN42        8.0510    1.1150   -0.2280 hn        1 REX      0.479467
     51 HN43        7.6670    1.4450    1.3610 hn        1 REX      0.479467
     52 H12        -4.2770    2.6590    1.4050 hn        1 REX      0.470800
     53 H22        -4.7020   -2.5850    6.8540 ho        1 REX      0.443000
     54 H32         3.9680    1.7390   -1.0020 hn        1 REX      0.322500
@<TRIPOS>BOND
     1    1    2 1   
     2    1    3 1   
     3    1   27 1   
     4    1   28 1   
     5    2    4 1   
     6    2   29 1   
     7    2   30 1   
     8    3    5 1   
     9    3   31 1   
    10    3   32 1   
    11    4   14 1   
    12    4   33 1   
    13    4   34 1   
    14    5    6 1   
    15    5    7 2   
    16    6    8 1   
    17    6   35 1   
    18    6   52 1   
    19    8    9 1   
    20    8   10 1   
    21    8   36 1   
    22    9   11 2   
    23    9   12 1   
    24   10   37 1   
    25   10   38 1   
    26   10   39 1   
    27   12   13 1   
    28   12   40 1   
    29   13   15 1   
    30   13   16 1   
    31   13   41 1   
    32   14   19 1   
    33   14   20 1   
    34   14   42 1   
    35   15   43 1   
    36   15   44 1   
    37   15   45 1   
    38   16   17 1   
    39   16   18 2   
    40   17   53 1   
    41   19   21 1   
    42   19   54 1   
    43   20   25 1   
    44   20   26 2   
    45   21   22 1   
    46   21   23 2   
    47   22   24 1   
    48   22   47 1   
    49   22   48 1   
    50   24   49 1   
    51   24   50 1   
    52   24   51 1   
    53   25   46 1   
@<TRIPOS>SUBSTRUCTURE
     1 REX         1 TEMP              0 ****  ****    0 ROOT
