@<TRIPOS>MOLECULE
REX
   54    51     1     0     0
SMALL
bcc


@<TRIPOS>ATOM
      1 C1         -0.7300    1.0150    0.2250 c3        1 REX     -0.083400
      2 C2          0.5840    0.4260    0.6970 c3        1 REX     -0.081400
      3 C3         -1.8580    0.6660    1.1790 c3        1 REX     -0.152400
      4 C4          1.6640    0.6570   -0.3420 c3        1 REX     -0.084400
      5 C5         -3.1430    1.2870    0.7090 c         1 REX      0.551100
      6 N1         -4.3800    0.9260    1.4860 n4        1 REX     -0.704800
      7 O1         -3.2970    2.0580   -0.2280 o         1 REX     -0.430100
      8 C6         -5.3810    0.1820    0.6510 c3        1 REX     -0.001500
      9 C7         -4.9710   -1.2600    0.3570 c         1 REX      0.575900
     10 C8         -6.7590    0.1840    1.3040 c3        1 REX     -0.126100
     11 O2         -3.8800   -1.7160    0.6880 o         1 REX     -0.514100
     12 N2         -4.0650   -0.0020    4.1010 n2        1 REX     -0.913100
     13 C9         -3.7030   -1.1000    4.6580 c2        1 REX      0.513200
     14 C10         3.0010    0.0430    0.0910 c3        1 REX     -0.007300
     15 C11        -3.1650   -2.2790    3.9230 c3        1 REX     -0.189400
     16 C12        -5.2140    0.8630    8.0830 c1        1 REX      0.899000
     17 O3         -4.8350    0.5750    6.9850 o         1 REX     -0.449000
     18 O4         -5.5880    1.1490    9.1680 o         1 REX     -0.449000
     19 N3          3.6880    0.8410    1.0970 n         1 REX     -0.498900
     20 C13         3.9120   -0.1780   -1.1290 c         1 REX      0.626100
     21 C14         4.9180    0.3410    1.5250 c         1 REX      0.633100
     22 C15         6.1090    1.3120    1.6700 c3        1 REX      0.015800
     23 O5          5.1120   -0.8550    1.7850 o         1 REX     -0.514100
     24 N4          7.1850    0.8700    0.7410 n4        1 REX     -0.834600
     25 O6          3.5140   -0.9040   -2.1920 oh        1 REX     -0.516100
     26 O7          5.0760    0.2460   -1.2090 o         1 REX     -0.584000
     27 HC11       -0.9790    0.6260   -0.7990 hc        1 REX      0.071200
     28 HC12       -0.6400    2.1310    0.1390 hc        1 REX      0.071200
     29 HC21        0.4630   -0.6750    0.8780 hc        1 REX      0.061700
     30 HC22        0.8830    0.8940    1.6710 hc        1 REX      0.061700
     31 HC31       -1.9890   -0.4530    1.2390 hc        1 REX      0.111700
     32 HC32       -1.6290    1.0430    2.2130 hc        1 REX      0.111700
     33 HC41        1.7760    1.7560   -0.5380 hc        1 REX      0.070700
     34 HC42        1.3530    0.1840   -1.3120 hc        1 REX      0.070700
     35 HN1        -4.8280    1.7920    1.8070 hn        1 REX      0.488300
     36 HC6        -5.4470    0.7220   -0.3480 hx        1 REX      0.133700
     37 HC81       -7.1380    1.2260    1.4410 hc        1 REX      0.084367
     38 HC82       -7.4750   -0.3550    0.6320 hc        1 REX      0.084367
     39 HC83       -6.7430   -0.3320    2.2940 hc        1 REX      0.084367
     40 HN2        -5.7470   -1.8400   -0.1880 h4        1 REX      0.073200
     41 HC9        -3.7690   -1.2580    5.7620 h4        1 REX      0.009800
     42 H10         2.8170   -0.9820    0.5440 h1        1 REX      0.125700
     43 H111       -3.0610   -2.1100    2.8220 hc        1 REX      0.073367
     44 H112       -2.1610   -2.5420    4.3430 hc        1 REX      0.073367
     45 H113       -3.8500   -3.1500    4.0870 hc        1 REX      0.073367
     46 HN3         2.6270   -1.2730   -2.0470 ho        1 REX      0.450000
     47 H151        6.4900    1.2570    2.7330 hx        1 REX      0.131200
     48 H152        5.8420    2.3790    1.4310 hx        1 REX      0.131200
     49 HN41        6.8550    0.9330   -0.2380 hn        1 REX      0.481467
     50 HN42        8.0190    1.4520    0.8610 hn        1 REX      0.481467
     51 HN43        7.4210   -0.1140    0.9340 hn        1 REX      0.481467
     52 H12        -4.1300    0.3500    2.3560 hn        1 REX      0.488300
     53 H22        -4.4120    0.7020    4.7200 hn        1 REX      0.428400
     54 H32         3.6400    1.8270    0.9440 hn        1 REX      0.309500
@<TRIPOS>BOND
     1    1    2 1   
     2    1    3 1   
     3    1   27 1   
     4    1   28 1   
     5    2    4 1   
     6    2   29 1   
     7    2   30 1   
     8    3    5 1   
     9    3   31 1   
    10    3   32 1   
    11    4   14 1   
    12    4   33 1   
    13    4   34 1   
    14    5    6 1   
    15    5    7 2   
    16    6    8 1   
    17    6   35 1   
    18    6   52 1   
    19    8    9 1   
    20    8   10 1   
    21    8   36 1   
    22    9   11 2   
    23    9   40 1   
    24   10   37 1   
    25   10   38 1   
    26   10   39 1   
    27   12   13 2   
    28   12   53 1   
    29   13   15 1   
    30   13   41 1   
    31   14   19 1   
    32   14   20 1   
    33   14   42 1   
    34   15   43 1   
    35   15   44 1   
    36   15   45 1   
    37   16   17 2   
    38   16   18 2   
    39   19   21 1   
    40   19   54 1   
    41   20   25 1   
    42   20   26 2   
    43   21   22 1   
    44   21   23 2   
    45   22   24 1   
    46   22   47 1   
    47   22   48 1   
    48   24   49 1   
    49   24   50 1   
    50   24   51 1   
    51   25   46 1   
@<TRIPOS>SUBSTRUCTURE
     1 REX         1 TEMP              0 ****  ****    0 ROOT
