@<TRIPOS>MOLECULE
REX
   54    53     1     0     0
SMALL
bcc


@<TRIPOS>ATOM
      1 C1         -0.5020    1.0180    0.0720 c3        1 REX     -0.083400
      2 C2          0.9430    0.7760    0.4650 c3        1 REX     -0.081400
      3 C3         -1.3460    1.3350    1.2930 c3        1 REX     -0.156400
      4 C4          1.7370    0.3150   -0.7400 c3        1 REX     -0.087400
      5 C5         -2.7690    1.5920    0.8890 c         1 REX      0.558100
      6 N1         -3.7230    1.9100    2.0300 n4        1 REX     -0.677800
      7 O1         -3.2640    1.5820   -0.2260 o         1 REX     -0.407100
      8 C6         -4.8420    0.9040    2.1510 c3        1 REX      0.047500
      9 C7         -4.3340   -0.3540    2.9080 c         1 REX      0.657100
     10 C8         -6.0380    1.5000    2.8830 c3        1 REX     -0.147100
     11 O2         -3.1180   -0.4540    3.1730 o         1 REX     -0.616100
     12 N2         -5.2550   -1.3310    3.2020 n         1 REX     -0.487900
     13 C9         -5.0100   -2.2080    4.3380 c3        1 REX     -0.001300
     14 C10         3.1910   -0.0220   -0.3780 c3        1 REX     -0.008300
     15 C11        -6.0360   -3.3350    4.4180 c3        1 REX     -0.116100
     16 C12        -4.9990   -1.4170    5.6530 c         1 REX      0.607100
     17 O3         -4.7390   -2.0440    6.8240 oh        1 REX     -0.532100
     18 O4         -5.1780   -0.2000    5.7470 o         1 REX     -0.518000
     19 N3          4.0300    1.1620   -0.2590 n         1 REX     -0.491900
     20 C13         3.7490   -0.9890   -1.4330 c         1 REX      0.600100
     21 C14         5.2840    1.0190    0.3010 c         1 REX      0.641100
     22 C15         6.3520    2.0740   -0.0620 c3        1 REX      0.010800
     23 O5          5.5770    0.1360    1.1280 o         1 REX     -0.565100
     24 N4          7.7170    1.5540    0.2240 n4        1 REX     -0.829600
     25 O6          3.2370   -2.2380   -1.5420 oh        1 REX     -0.530100
     26 O7          4.6700   -0.7320   -2.2110 o         1 REX     -0.494000
     27 HC11       -0.9180    0.1080   -0.4400 hc        1 REX      0.073700
     28 HC12       -0.5620    1.8650   -0.6620 hc        1 REX      0.073700
     29 HC21        0.9910   -0.0030    1.2720 hc        1 REX      0.059200
     30 HC22        1.3880    1.7170    0.8800 hc        1 REX      0.059200
     31 HC31       -0.9390    2.2400    1.8230 hc        1 REX      0.117700
     32 HC32       -1.3290    0.4690    2.0190 hc        1 REX      0.117700
     33 HC41        1.6990    1.0960   -1.5450 hc        1 REX      0.074700
     34 HC42        1.2640   -0.6130   -1.1650 hc        1 REX      0.074700
     35 HN1        -3.1990    1.9170    2.9160 hn        1 REX      0.470800
     36 HC6        -5.1360    0.6110    1.0960 hx        1 REX      0.138700
     37 HC81       -5.8810    1.4900    3.9940 hc        1 REX      0.094700
     38 HC82       -6.2560    2.5470    2.5530 hc        1 REX      0.094700
     39 HC83       -6.9480    0.8900    2.6480 hc        1 REX      0.094700
     40 HN2        -4.6140   -2.9950    6.6840 ho        1 REX      0.443000
     41 HC9        -3.9720   -2.6470    4.2070 h1        1 REX      0.113700
     42 H10         3.2190   -0.5570    0.6220 h1        1 REX      0.117700
     43 H111       -6.0550   -3.9190    3.4650 hc        1 REX      0.073700
     44 H112       -5.7560   -4.0310    5.2460 hc        1 REX      0.073700
     45 H113       -7.0610   -2.9400    4.6180 hc        1 REX      0.073700
     46 HN3         3.9350    1.8170   -1.0090 hn        1 REX      0.322500
     47 H151        6.1720    2.9960    0.5660 hx        1 REX      0.136200
     48 H152        6.2990    2.3510   -1.1550 hx        1 REX      0.136200
     49 HN41        8.3890    2.3270    0.2730 hn        1 REX      0.479467
     50 HN42        7.7060    1.0420    1.1220 hn        1 REX      0.479467
     51 HN43        8.0060    0.8970   -0.5120 hn        1 REX      0.479467
     52 H12        -4.1420    2.8350    1.8740 hn        1 REX      0.470800
     53 H22        -6.2180   -1.1390    3.0160 hn        1 REX      0.326500
     54 H32         2.5680   -2.3950   -0.8590 ho        1 REX      0.438000
@<TRIPOS>BOND
     1    1    2 1   
     2    1    3 1   
     3    1   27 1   
     4    1   28 1   
     5    2    4 1   
     6    2   29 1   
     7    2   30 1   
     8    3    5 1   
     9    3   31 1   
    10    3   32 1   
    11    4   14 1   
    12    4   33 1   
    13    4   34 1   
    14    5    6 1   
    15    5    7 2   
    16    6    8 1   
    17    6   35 1   
    18    6   52 1   
    19    8    9 1   
    20    8   10 1   
    21    8   36 1   
    22    9   11 2   
    23    9   12 1   
    24   10   37 1   
    25   10   38 1   
    26   10   39 1   
    27   12   13 1   
    28   12   53 1   
    29   13   15 1   
    30   13   16 1   
    31   13   41 1   
    32   14   19 1   
    33   14   20 1   
    34   14   42 1   
    35   15   43 1   
    36   15   44 1   
    37   15   45 1   
    38   16   17 1   
    39   16   18 2   
    40   17   40 1   
    41   19   21 1   
    42   19   46 1   
    43   20   25 1   
    44   20   26 2   
    45   21   22 1   
    46   21   23 2   
    47   22   24 1   
    48   22   47 1   
    49   22   48 1   
    50   24   49 1   
    51   24   50 1   
    52   24   51 1   
    53   25   54 1   
@<TRIPOS>SUBSTRUCTURE
     1 REX         1 TEMP              0 ****  ****    0 ROOT
