@<TRIPOS>MOLECULE
REY
   43    42     1     0     0
SMALL
bcc


@<TRIPOS>ATOM
      1 C1         -0.5710    0.1390   -1.3780 c3        1 REY     -0.078400
      2 C2          0.8180   -0.1460   -1.9180 c3        1 REY     -0.090400
      3 C3         -0.5030    0.4800    0.0970 c3        1 REY     -0.152400
      4 C4          1.5860    1.1160   -2.2600 c3        1 REY     -0.097400
      5 C5         -1.8550    0.7860    0.6630 c         1 REY      0.555100
      6 N1         -1.8650    1.2680    2.0950 n4        1 REY     -0.676800
      7 O1         -2.9520    0.7070    0.1300 o         1 REY     -0.426100
      8 C6         -1.3940    0.2070    3.0560 c3        1 REY      0.022500
      9 C7          0.1510    0.2210    3.1590 c         1 REY      0.903600
     10 C8         -1.9920    0.3950    4.4390 c3        1 REY     -0.121100
     11 O2          0.7240   -0.7510    3.7150 o         1 REY     -0.822800
     12 C9          3.0480    1.0540   -1.7740 c3        1 REY      0.008700
     13 N3          3.1980    1.3690   -0.3690 n         1 REY     -0.534900
     14 C10         3.8650    2.0300   -2.6270 c         1 REY      0.609100
     15 C11         3.3730    0.4050    0.5840 c         1 REY      0.659100
     16 C12         3.6400    0.8970    2.0180 c3        1 REY      0.027800
     17 O3          3.3060   -0.8190    0.3460 o         1 REY     -0.610100
     18 N4          3.3760   -0.1650    3.0180 n4        1 REY     -0.843600
     19 O4          4.1750    1.6840   -3.9020 oh        1 REY     -0.545100
     20 O5          4.2740    3.1340   -2.2720 o         1 REY     -0.475000
     21 O6          0.8040    1.1910    2.6620 o         1 REY     -0.822800
     22 HC11       -1.0480    0.9800   -1.9470 hc        1 REY      0.071700
     23 HC12       -1.2200   -0.7660   -1.5210 hc        1 REY      0.071700
     24 HC21        0.7120   -0.7720   -2.8450 hc        1 REY      0.070200
     25 HC22        1.3890   -0.7660   -1.1740 hc        1 REY      0.070200
     26 HC31        0.1840    1.3570    0.2690 hc        1 REY      0.110700
     27 HC32       -0.0690   -0.3860    0.6760 hc        1 REY      0.110700
     28 HC41        1.0820    2.0210   -1.8290 hc        1 REY      0.067200
     29 HC42        1.5990    1.2560   -3.3750 hc        1 REY      0.067200
     30 HN1        -2.8070    1.5770    2.3560 hn        1 REY      0.464800
     31 HC6        -1.7140   -0.7950    2.6430 hx        1 REY      0.112700
     32 HC81       -1.7230    1.3890    4.8730 hc        1 REY      0.077700
     33 HC82       -3.1040    0.2870    4.4240 hc        1 REY      0.077700
     34 HC83       -1.5630   -0.4030    5.1000 hc        1 REY      0.077700
     35 HC9         3.4450    0.0050   -1.9480 h1        1 REY      0.108700
     36 HN3         3.8350    0.8000   -4.1080 ho        1 REY      0.436000
     37 H121        4.7170    1.2210    2.0860 hx        1 REY      0.133700
     38 H122        2.9590    1.7700    2.2620 hx        1 REY      0.133700
     39 HN41        3.2850   -1.0810    2.5510 hn        1 REY      0.479133
     40 HN42        2.4660    0.0240    3.5040 hn        1 REY      0.479133
     41 HN43        4.1280   -0.2090    3.7040 hn        1 REY      0.479133
     42 H12        -1.2020    2.0580    2.1770 hn        1 REY      0.464800
     43 H32         3.3130    2.3330   -0.1390 hn        1 REY      0.347500
@<TRIPOS>BOND
     1    1    2 1   
     2    1    3 1   
     3    1   22 1   
     4    1   23 1   
     5    2    4 1   
     6    2   24 1   
     7    2   25 1   
     8    3    5 1   
     9    3   26 1   
    10    3   27 1   
    11    4   12 1   
    12    4   28 1   
    13    4   29 1   
    14    5    6 1   
    15    5    7 2   
    16    6    8 1   
    17    6   30 1   
    18    6   42 1   
    19    8    9 1   
    20    8   10 1   
    21    8   31 1   
    22    9   11 1   
    23    9   21 1   
    24   10   32 1   
    25   10   33 1   
    26   10   34 1   
    27   12   13 1   
    28   12   14 1   
    29   12   35 1   
    30   13   15 1   
    31   13   43 1   
    32   14   19 1   
    33   14   20 2   
    34   15   16 1   
    35   15   17 2   
    36   16   18 1   
    37   16   37 1   
    38   16   38 1   
    39   18   39 1   
    40   18   40 1   
    41   18   41 1   
    42   19   36 1   
@<TRIPOS>SUBSTRUCTURE
     1 REY         1 TEMP              0 ****  ****    0 ROOT
