@<TRIPOS>MOLECULE
REY
   41    40     1     0     0
SMALL
bcc


@<TRIPOS>ATOM
      1 C1         -1.1450   -0.3090   -0.0880 c3        1 REY     -0.068400
      2 C2          0.4020   -0.2780   -0.1150 c3        1 REY     -0.113400
      3 C3         -1.6290   -0.5260    1.3550 c3        1 REY     -0.161400
      4 C4          0.8710    0.3770   -1.4100 c3        1 REY     -0.077400
      5 C5         -3.1000   -1.0320    1.3360 c         1 REY      0.640100
      6 N1         -3.9910   -0.7440    2.4690 n         1 REY     -0.505900
      7 O1         -3.4990   -1.7060    0.4040 o         1 REY     -0.629100
      8 C6         -5.1680   -1.5480    2.6820 c3        1 REY     -0.031300
      9 C7         -4.9660   -2.4210    3.8860 c         1 REY      0.895600
     10 C8         -6.3720   -0.6390    2.9080 c3        1 REY     -0.082100
     11 O2         -5.1270   -3.6720    3.7930 o         1 REY     -0.854800
     12 C9          2.3230    0.0420   -1.6510 c3        1 REY      0.022700
     13 N3          3.0640    1.2610   -1.9180 n         1 REY     -0.536900
     14 C10         2.4320   -0.8720   -2.8230 c         1 REY      0.875600
     15 C11         4.5030    1.2310   -1.9920 c         1 REY      0.673100
     16 C12         5.3080    2.5380   -1.8950 c3        1 REY      0.106800
     17 O3          5.0840    0.1660   -2.1030 o         1 REY     -0.691100
     18 N4          6.6010    2.3550   -2.5230 n4        1 REY     -1.113600
     19 O4          2.8320   -2.0580   -2.6640 o         1 REY     -0.590800
     20 O5          2.1020   -0.4640   -3.9720 o         1 REY     -0.590800
     21 O6         -4.7060   -1.9040    4.9970 o         1 REY     -0.854800
     22 HC11       -1.4940    0.5380   -0.4240 hc        1 REY      0.043200
     23 HC12       -1.4650   -1.0410   -0.6520 hc        1 REY      0.043200
     24 HC21        0.7480   -1.1910   -0.0680 hc        1 REY      0.069200
     25 HC22        0.7340    0.2380    0.6540 hc        1 REY      0.069200
     26 HC31       -1.0600   -1.1910    1.7930 hc        1 REY      0.053200
     27 HC32       -1.5820    0.3150    1.8430 hc        1 REY      0.053200
     28 HC41        0.7680    1.3520   -1.3410 hc        1 REY      0.059200
     29 HC42        0.3340    0.0450   -2.1550 hc        1 REY      0.059200
     30 HN1        -3.7930   -0.0610    3.0430 hn        1 REY      0.300500
     31 HC6        -5.3250   -2.1040    1.9010 h1        1 REY      0.049700
     32 HC81       -6.1410    0.0560    3.5760 hc        1 REY      0.041033
     33 HC82       -6.6200   -0.2100    2.0640 hc        1 REY      0.041033
     34 HC83       -7.1240   -1.1700    3.2370 hc        1 REY      0.041033
     35 HC9         2.6900   -0.3950   -0.8650 h1        1 REY      0.069700
     36 HN3         2.6220    2.0400   -2.0390 hn        1 REY      0.364500
     37 H121        5.4340    2.7790   -0.9400 hx        1 REY      0.058700
     38 H122        4.8230    3.2540   -2.3490 hx        1 REY      0.058700
     39 HN41        6.4830    2.1010   -3.3880 hn        1 REY      0.403800
     40 HN42        7.0740    3.1530   -2.4970 hn        1 REY      0.403800
     41 HN43        7.0760    1.6970   -2.0680 hn        1 REY      0.403800
@<TRIPOS>BOND
     1    1    2 1   
     2    1    3 1   
     3    1   22 1   
     4    1   23 1   
     5    2    4 1   
     6    2   24 1   
     7    2   25 1   
     8    3    5 1   
     9    3   26 1   
    10    3   27 1   
    11    4   12 1   
    12    4   28 1   
    13    4   29 1   
    14    5    6 1   
    15    5    7 2   
    16    6    8 1   
    17    6   30 1   
    18    8    9 1   
    19    8   10 1   
    20    8   31 1   
    21    9   11 1   
    22    9   21 1   
    23   10   32 1   
    24   10   33 1   
    25   10   34 1   
    26   12   13 1   
    27   12   14 1   
    28   12   35 1   
    29   13   15 1   
    30   13   36 1   
    31   14   19 1   
    32   14   20 1   
    33   15   16 1   
    34   15   17 2   
    35   16   18 1   
    36   16   37 1   
    37   16   38 1   
    38   18   39 1   
    39   18   40 1   
    40   18   41 1   
@<TRIPOS>SUBSTRUCTURE
     1 REY         1 TEMP              0 ****  ****    0 ROOT
