@<TRIPOS>MOLECULE
REY
   43    42     1     0     0
SMALL
bcc


@<TRIPOS>ATOM
      1 C1         -0.6210    0.2880   -1.3670 c3        1 REY     -0.078400
      2 C2          0.7400   -0.0650   -1.9330 c3        1 REY     -0.090400
      3 C3         -0.5150    0.5860    0.1150 c3        1 REY     -0.152400
      4 C4          1.5790    1.1570   -2.2550 c3        1 REY     -0.097400
      5 C5         -1.8400    0.9520    0.7090 c         1 REY      0.555100
      6 N1         -1.8040    1.3940    2.1530 ny        1 REY     -0.676800
      7 O1         -2.9460    0.9500    0.1900 o         1 REY     -0.426100
      8 C6         -1.3830    0.2810    3.0790 c3        1 REY      0.022500
      9 C7          0.1620    0.2070    3.1620 c         1 REY      0.903600
     10 C8         -1.9540    0.4630    4.4740 c3        1 REY     -0.121100
     11 O2          0.6870   -0.8100    3.6850 o         1 REY     -0.823300
     12 C9          3.0410    0.9960   -1.7930 c3        1 REY      0.009700
     13 N3          3.2300    1.2680   -0.3830 ns        1 REY     -0.534900
     14 C10         3.9040    1.9390   -2.6360 c         1 REY      0.609100
     15 C11         3.3530    0.2740    0.5460 c         1 REY      0.659100
     16 C12         3.6670    0.7150    1.9870 c3        1 REY      0.028800
     17 O3          3.2050   -0.9380    0.2810 o         1 REY     -0.610100
     18 N4          3.3520   -0.3520    2.9660 nz        1 REY     -0.842600
     19 O4          4.1740    1.6050   -3.9240 oh        1 REY     -0.545100
     20 O5          4.3850    3.0080   -2.2630 o         1 REY     -0.474000
     21 O6          0.8620    1.1540    2.6830 o         1 REY     -0.823300
     22 HC11       -1.3250   -0.5730   -1.5220 hc        1 REY      0.071700
     23 HC12       -1.0550    1.1700   -1.9070 hc        1 REY      0.071700
     24 HC21        1.2830   -0.7370   -1.2120 hc        1 REY      0.070200
     25 HC22        0.5850   -0.6610   -2.8730 hc        1 REY      0.070200
     26 HC31       -0.1220   -0.3170    0.6670 hc        1 REY      0.110200
     27 HC32        0.2220    1.4190    0.3000 hc        1 REY      0.110200
     28 HC41        1.1350    2.0790   -1.7940 hc        1 REY      0.067200
     29 HC42        1.5850    1.3240   -3.3660 hc        1 REY      0.067200
     30 HN1        -2.7240    1.7470    2.4360 hn        1 REY      0.464800
     31 HC6        -1.7620   -0.6900    2.6430 hx        1 REY      0.112700
     32 HC81       -1.5620   -0.3770    5.1060 hc        1 REY      0.077700
     33 HC82       -1.6250    1.4270    4.9320 hc        1 REY      0.077700
     34 HC83       -3.0700    0.4160    4.4700 hc        1 REY      0.077700
     35 HC9         3.3700   -0.0710   -1.9960 h1        1 REY      0.107700
     36 HN3         3.7770    0.7490   -4.1450 ho        1 REY      0.436000
     37 H121        4.7620    0.9730    2.0470 hx        1 REY      0.133200
     38 H122        3.0420    1.6210    2.2590 hx        1 REY      0.133200
     39 HN41        4.1150   -0.4690    3.6300 hn        1 REY      0.479133
     40 HN42        2.4700   -0.1110    3.4800 hn        1 REY      0.479133
     41 HN43        3.1820   -1.2460    2.4790 hn        1 REY      0.479133
     42 H12        -1.0970    2.1430    2.2470 hn        1 REY      0.464800
     43 H32         3.4090    2.2170   -0.1350 hn        1 REY      0.347500
@<TRIPOS>BOND
     1    1    2 1   
     2    1    3 1   
     3    1   22 1   
     4    1   23 1   
     5    2    4 1   
     6    2   24 1   
     7    2   25 1   
     8    3    5 1   
     9    3   26 1   
    10    3   27 1   
    11    4   12 1   
    12    4   28 1   
    13    4   29 1   
    14    5    6 1   
    15    5    7 2   
    16    6    8 1   
    17    6   30 1   
    18    6   42 1   
    19    8    9 1   
    20    8   10 1   
    21    8   31 1   
    22    9   11 1   
    23    9   21 1   
    24   10   32 1   
    25   10   33 1   
    26   10   34 1   
    27   12   13 1   
    28   12   14 1   
    29   12   35 1   
    30   13   15 1   
    31   13   43 1   
    32   14   19 1   
    33   14   20 2   
    34   15   16 1   
    35   15   17 2   
    36   16   18 1   
    37   16   37 1   
    38   16   38 1   
    39   18   39 1   
    40   18   40 1   
    41   18   41 1   
    42   19   36 1   
@<TRIPOS>SUBSTRUCTURE
     1 REY         1 TEMP              0 ****  ****    0 ROOT
