@<TRIPOS>MOLECULE
REY
   41    40     1     0     0
SMALL
bcc


@<TRIPOS>ATOM
      1 C1          0.6590    0.9300    0.4410 c3        1 REY     -0.076400
      2 C2         -0.7730    0.5270    0.7280 c3        1 REY     -0.084400
      3 C3          1.6050    0.2740    1.4230 c3        1 REY     -0.160400
      4 C4         -1.7310    1.2140   -0.2190 c3        1 REY     -0.087400
      5 C5          3.0670    0.4530    1.0220 c         1 REY      0.641100
      6 N1          3.4690   -0.1470   -0.1370 n         1 REY     -0.517900
      7 O1          3.8180    1.1540    1.7400 o         1 REY     -0.654100
      8 C6          4.8550   -0.3220   -0.5220 c3        1 REY     -0.046300
      9 C7          5.0740   -1.6900   -1.2700 c         1 REY      0.911600
     10 C8          5.3740    0.7980   -1.4170 c3        1 REY     -0.080100
     11 O2          6.2680   -2.0270   -1.4750 o         1 REY     -0.833800
     12 C9         -3.1470    0.6320   -0.1100 c3        1 REY      0.019700
     13 N3         -3.2580   -0.6910   -0.6780 n         1 REY     -0.558900
     14 C10        -4.1380    1.6030   -0.7590 c         1 REY      0.612100
     15 C11        -4.1880   -1.6030   -0.2350 c         1 REY      0.613100
     16 C12        -4.1110   -3.0330   -0.7950 c3        1 REY      0.094800
     17 O3         -5.0770   -1.2650    0.5790 o         1 REY     -0.652100
     18 N4         -5.1200   -3.9330   -0.3210 n3        1 REY     -0.884800
     19 O4         -5.4610    1.4870   -0.4610 oh        1 REY     -0.592100
     20 O5         -3.8720    2.5290   -1.5230 o         1 REY     -0.495000
     21 O6          4.0590   -2.3630   -1.6100 o         1 REY     -0.833800
     22 HC11        0.7630    2.0440    0.5070 hc        1 REY      0.054700
     23 HC12        0.9200    0.6350   -0.6100 hc        1 REY      0.054700
     24 HC21       -0.8630   -0.5880    0.6340 hc        1 REY      0.039700
     25 HC22       -1.0360    0.7890    1.7870 hc        1 REY      0.039700
     26 HC31        1.3800   -0.8220    1.5040 hc        1 REY      0.056700
     27 HC32        1.4730    0.7260    2.4400 hc        1 REY      0.056700
     28 HC41       -1.7900    2.3080    0.0240 hc        1 REY      0.071200
     29 HC42       -1.3620    1.1380   -1.2760 hc        1 REY      0.071200
     30 HN1         2.8530   -0.8060   -0.5730 hn        1 REY      0.324500
     31 HC6         5.4880   -0.3440    0.4130 h1        1 REY      0.055700
     32 HC81        6.4220    0.5440   -1.7070 hc        1 REY      0.027367
     33 HC82        4.7600    0.8910   -2.3440 hc        1 REY      0.027367
     34 HC83        5.3660    1.7780   -0.8820 hc        1 REY      0.027367
     35 HC9        -3.4320    0.5710    0.9880 h1        1 REY      0.084700
     36 HN3        -2.5410   -0.9770   -1.3040 hn        1 REY      0.331500
     37 H121       -4.1890   -2.9720   -1.9190 h1        1 REY      0.082200
     38 H122       -3.0990   -3.4570   -0.5330 h1        1 REY      0.082200
     39 HN41       -6.0360   -3.5880   -0.5340 hn        1 REY      0.360300
     40 HN42       -5.6130    0.7270    0.1260 ho        1 REY      0.454000
     41 HN43       -5.0510   -4.0570    0.6720 hn        1 REY      0.360300
@<TRIPOS>BOND
     1    1    2 1   
     2    1    3 1   
     3    1   22 1   
     4    1   23 1   
     5    2    4 1   
     6    2   24 1   
     7    2   25 1   
     8    3    5 1   
     9    3   26 1   
    10    3   27 1   
    11    4   12 1   
    12    4   28 1   
    13    4   29 1   
    14    5    6 1   
    15    5    7 2   
    16    6    8 1   
    17    6   30 1   
    18    8    9 1   
    19    8   10 1   
    20    8   31 1   
    21    9   11 1   
    22    9   21 1   
    23   10   32 1   
    24   10   33 1   
    25   10   34 1   
    26   12   13 1   
    27   12   14 1   
    28   12   35 1   
    29   13   15 1   
    30   13   36 1   
    31   14   19 1   
    32   14   20 2   
    33   15   16 1   
    34   15   17 2   
    35   16   18 1   
    36   16   37 1   
    37   16   38 1   
    38   18   39 1   
    39   18   41 1   
    40   19   40 1   
@<TRIPOS>SUBSTRUCTURE
     1 REY         1 TEMP              0 ****  ****    0 ROOT
