@<TRIPOS>MOLECULE
REY
   43    42     1     0     0
SMALL
bcc


@<TRIPOS>ATOM
      1 C1         -0.4870   -0.1600   -1.3450 c3        1 REY     -0.078400
      2 C2          0.9250   -0.4830   -1.7950 c3        1 REY     -0.090400
      3 C3         -0.4780    0.3760    0.0720 c3        1 REY     -0.152400
      4 C4          1.6830    0.7390   -2.2780 c3        1 REY     -0.097400
      5 C5         -1.8560    0.7200    0.5480 c         1 REY      0.555100
      6 N1         -1.9280    1.3850    1.9020 n4        1 REY     -0.676800
      7 O1         -2.9320    0.5430   -0.0060 o         1 REY     -0.426100
      8 C6         -1.4700    0.4720    3.0100 c3        1 REY      0.022500
      9 C7          0.0700    0.5420    3.1630 c         1 REY      0.903600
     10 C8         -2.1230    0.8240    4.3350 c3        1 REY     -0.121100
     11 O2          0.6440   -0.3320    3.8620 o         1 REY     -0.823300
     12 C9          3.1270    0.7750   -1.7420 c3        1 REY      0.009700
     13 N3          3.2240    1.2820   -0.3890 n         1 REY     -0.534900
     14 C10         3.9570    1.6420   -2.6940 c         1 REY      0.609100
     15 C11         3.3740    0.4610    0.6930 c         1 REY      0.659100
     16 C12         3.5800    1.1490    2.0540 c3        1 REY      0.028800
     17 O3          3.3330   -0.7860    0.6230 o         1 REY     -0.610100
     18 N4          3.2980    0.2280    3.1810 n4        1 REY     -0.842600
     19 O4          4.3170    1.1330   -3.9000 oh        1 REY     -0.545100
     20 O5          4.3360    2.7920   -2.4810 o         1 REY     -0.474000
     21 O6          0.7180    1.4560    2.5640 o         1 REY     -0.823300
     22 HC11       -0.9580    0.5860   -2.0380 hc        1 REY      0.071700
     23 HC12       -1.1140   -1.0910   -1.3870 hc        1 REY      0.071700
     24 HC21        1.4800   -0.9840   -0.9550 hc        1 REY      0.070200
     25 HC22        0.8640   -1.2310   -2.6320 hc        1 REY      0.070200
     26 HC31        0.1820    1.2870    0.1470 hc        1 REY      0.110200
     27 HC32       -0.0470   -0.3920    0.7760 hc        1 REY      0.110200
     28 HC41        1.1470    1.6810   -1.9890 hc        1 REY      0.067200
     29 HC42        1.7320    0.7280   -3.4010 hc        1 REY      0.067200
     30 HN1        -2.8850    1.7010    2.0880 hn        1 REY      0.464800
     31 HC6        -1.7520   -0.5830    2.7230 hx        1 REY      0.112700
     32 HC81       -1.7010    0.1310    5.1090 hc        1 REY      0.077700
     33 HC82       -3.2300    0.6840    4.2970 hc        1 REY      0.077700
     34 HC83       -1.8930    1.8730    4.6430 hc        1 REY      0.077700
     35 HC9         3.5480   -0.2790   -1.7580 h1        1 REY      0.107700
     36 HN3         3.3170    2.2700   -0.2900 hn        1 REY      0.347500
     37 H121        2.8760    2.0320    2.1520 hx        1 REY      0.133200
     38 H122        4.6490    1.5040    2.1140 hx        1 REY      0.133200
     39 HN41        2.3760    0.4740    3.6160 hn        1 REY      0.479133
     40 HN42        3.2190   -0.7430    2.8380 hn        1 REY      0.479133
     41 HN43        4.0340    0.2790    3.8820 hn        1 REY      0.479133
     42 H12        -1.2860    2.1960    1.9000 hn        1 REY      0.464800
     43 H32         3.9980    0.2220   -3.9940 ho        1 REY      0.436000
@<TRIPOS>BOND
     1    1    2 1   
     2    1    3 1   
     3    1   22 1   
     4    1   23 1   
     5    2    4 1   
     6    2   24 1   
     7    2   25 1   
     8    3    5 1   
     9    3   26 1   
    10    3   27 1   
    11    4   12 1   
    12    4   28 1   
    13    4   29 1   
    14    5    6 1   
    15    5    7 2   
    16    6    8 1   
    17    6   30 1   
    18    6   42 1   
    19    8    9 1   
    20    8   10 1   
    21    8   31 1   
    22    9   11 1   
    23    9   21 1   
    24   10   32 1   
    25   10   33 1   
    26   10   34 1   
    27   12   13 1   
    28   12   14 1   
    29   12   35 1   
    30   13   15 1   
    31   13   36 1   
    32   14   19 1   
    33   14   20 2   
    34   15   16 1   
    35   15   17 2   
    36   16   18 1   
    37   16   37 1   
    38   16   38 1   
    39   18   39 1   
    40   18   40 1   
    41   18   41 1   
    42   19   43 1   
@<TRIPOS>SUBSTRUCTURE
     1 REY         1 TEMP              0 ****  ****    0 ROOT
