@<TRIPOS>MOLECULE
REZ
   35    34     1     0     0
SMALL
bcc


@<TRIPOS>ATOM
      1 CA1         0.1350   -0.3890   -0.3700 c3        1 REZ     -0.155400
      2 CB1         1.6150   -0.6250   -0.1490 c3        1 REZ     -0.076400
      3 CG1         2.1230    0.2580    0.9710 c3        1 REZ     -0.094400
      4 CD1         3.5450   -0.1090    1.3470 c3        1 REZ     -0.085400
      5 CE1         3.9360    0.4010    2.7230 c3        1 REZ     -0.080500
      6 NZ1         3.8860    1.8900    2.8360 n4        1 REZ     -0.833600
      7 CZ1         2.9330   -0.2370    3.8110 c         1 REZ      0.934600
      8 OH1         3.0930   -1.4480    4.0220 o         1 REZ     -0.754300
      9 OH2         2.1050    0.5800    4.2950 o         1 REZ     -0.754300
     10 C1         -0.3690   -1.1910   -1.5370 c         1 REZ      0.537100
     11 O1          0.3080   -1.8570   -2.3120 o         1 REZ     -0.445100
     12 N          -1.8370   -1.1680   -1.7800 n4        1 REZ     -0.661800
     13 CA         -2.3980    0.2080   -2.0000 c3        1 REZ     -0.072500
     14 CB         -3.0520    0.7870   -0.7700 c3        1 REZ     -0.108100
     15 C          -3.4710    0.1530   -3.2070 c         1 REZ      0.942600
     16 O          -4.0270    1.2370   -3.4420 o         1 REZ     -0.752300
     17 OXT        -3.5830   -0.9690   -3.7600 o         1 REZ     -0.752300
     18 HA11       -0.0600    0.7000   -0.5770 hc        1 REZ      0.096700
     19 HA12       -0.4390   -0.6650    0.5570 hc        1 REZ      0.096700
     20 HB11        1.7860   -1.7050    0.1070 hc        1 REZ      0.067700
     21 HB12        2.1800   -0.4160   -1.0960 hc        1 REZ      0.067700
     22 HG11        1.4600    0.1420    1.8740 hc        1 REZ      0.055200
     23 HG12        2.0710    1.3320    0.6500 hc        1 REZ      0.055200
     24 HD11        3.6420   -1.2300    1.4080 hc        1 REZ      0.070700
     25 HD12        4.2570    0.2540    0.5610 hc        1 REZ      0.070700
     26 HE1         4.9780    0.0620    2.9730 hx        1 REZ      0.095700
     27 HZ11        3.8650    2.3360    1.9230 hn        1 REZ      0.445133
     28 HZ12        3.0050    2.1060    3.3610 hn        1 REZ      0.445133
     29 H          -2.0770   -1.7070   -2.6530 hn        1 REZ      0.470800
     30 HA         -1.5630    0.8690   -2.3590 hx        1 REZ      0.082700
     31 HBC1       -2.3150    0.9750    0.0490 hc        1 REZ      0.058700
     32 HBC2       -3.8660    0.1260   -0.3840 hc        1 REZ      0.058700
     33 HBC3       -3.5200    1.7600   -1.0760 hc        1 REZ      0.058700
     34 HZ13        4.6790    2.2320    3.3730 hn        1 REZ      0.445133
     35 H2         -2.3210   -1.6070   -0.9950 hn        1 REZ      0.470800
@<TRIPOS>BOND
     1    1    2 1   
     2    1   10 1   
     3    1   18 1   
     4    1   19 1   
     5    2    3 1   
     6    2   20 1   
     7    2   21 1   
     8    3    4 1   
     9    3   22 1   
    10    3   23 1   
    11    4    5 1   
    12    4   24 1   
    13    4   25 1   
    14    5    6 1   
    15    5    7 1   
    16    5   26 1   
    17    6   27 1   
    18    6   28 1   
    19    6   34 1   
    20    7    8 1   
    21    7    9 1   
    22   10   11 2   
    23   10   12 1   
    24   12   13 1   
    25   12   29 1   
    26   12   35 1   
    27   13   14 1   
    28   13   15 1   
    29   13   30 1   
    30   14   31 1   
    31   14   32 1   
    32   14   33 1   
    33   15   16 1   
    34   15   17 1   
@<TRIPOS>SUBSTRUCTURE
     1 REZ         1 TEMP              0 ****  ****    0 ROOT
