@<TRIPOS>MOLECULE
REZ
   33    32     1     0     0
SMALL
bcc


@<TRIPOS>ATOM
      1 CA1        -0.1490   -6.7650    7.8480 c3        1 REZ     -0.151400
      2 CB1        -0.7430   -5.4430    7.4120 c3        1 REZ     -0.073400
      3 CG1        -1.8210   -5.6480    6.3640 c3        1 REZ     -0.079400
      4 CD1        -2.3660   -4.3230    5.8760 c3        1 REZ     -0.056400
      5 CE1        -3.5550   -4.4390    4.9200 c3        1 REZ      0.023500
      6 NZ1        -3.2950   -5.2500    3.7370 n3        1 REZ     -0.892800
      7 CZ1        -4.8380   -4.8480    5.7130 c         1 REZ      0.887600
      8 OH1        -5.2330   -4.0730    6.6270 o         1 REZ     -0.851800
      9 OH2        -5.4420   -5.9090    5.3740 o         1 REZ     -0.851800
     10 C1          0.9310   -6.5870    8.9070 c         1 REZ      0.644100
     11 O1          0.6790   -6.8570   10.1070 o         1 REZ     -0.671100
     12 N           2.1510   -6.1180    8.5030 n         1 REZ     -0.528900
     13 CA          3.3110   -6.0650    9.3670 c3        1 REZ     -0.033300
     14 CB          3.4500   -4.7320   10.1000 c3        1 REZ     -0.082100
     15 C           4.6490   -6.3280    8.5920 c         1 REZ      0.909600
     16 O           4.6510   -6.2910    7.3290 o         1 REZ     -0.843300
     17 OXT         5.6660   -6.5650    9.3010 o         1 REZ     -0.843300
     18 HA11       -0.9530   -7.4090    8.2930 hc        1 REZ      0.054200
     19 HA12        0.2700   -7.3070    6.9600 hc        1 REZ      0.054200
     20 HB11        0.0640   -4.7850    6.9960 hc        1 REZ      0.043700
     21 HB12       -1.1780   -4.9170    8.3020 hc        1 REZ      0.043700
     22 HG11       -2.6630   -6.2560    6.7910 hc        1 REZ      0.042200
     23 HG12       -1.3830   -6.2300    5.5110 hc        1 REZ      0.042200
     24 HD11       -2.7220   -3.7240    6.7560 hc        1 REZ      0.035200
     25 HD12       -1.5400   -3.7500    5.3780 hc        1 REZ      0.035200
     26 HE1        -3.7610   -3.3940    4.5340 h1        1 REZ      0.034700
     27 HZ11       -4.1890   -5.4850    3.3360 hn        1 REZ      0.328300
     28 HZ12       -2.8850   -6.1210    4.0270 hn        1 REZ      0.328300
     29 H           2.3520   -6.0380    7.5300 hn        1 REZ      0.326500
     30 HA          3.2090   -6.8780   10.1450 h1        1 REZ      0.054700
     31 HBC1        2.5790   -4.5540   10.7750 hc        1 REZ      0.024367
     32 HBC2        4.3860   -4.7700   10.7070 hc        1 REZ      0.024367
     33 HBC3        3.5250   -3.8840    9.3790 hc        1 REZ      0.024367
@<TRIPOS>BOND
     1    1    2 1   
     2    1   10 1   
     3    1   18 1   
     4    1   19 1   
     5    2    3 1   
     6    2   20 1   
     7    2   21 1   
     8    3    4 1   
     9    3   22 1   
    10    3   23 1   
    11    4    5 1   
    12    4   24 1   
    13    4   25 1   
    14    5    6 1   
    15    5    7 1   
    16    5   26 1   
    17    6   27 1   
    18    6   28 1   
    19    7    8 1   
    20    7    9 1   
    21   10   11 2   
    22   10   12 1   
    23   12   13 1   
    24   12   29 1   
    25   13   14 1   
    26   13   15 1   
    27   13   30 1   
    28   14   31 1   
    29   14   32 1   
    30   14   33 1   
    31   15   16 1   
    32   15   17 1   
@<TRIPOS>SUBSTRUCTURE
     1 REZ         1 TEMP              0 ****  ****    0 ROOT
