@<TRIPOS>MOLECULE
REZ
   33    32     1     0     0
SMALL
bcc


@<TRIPOS>ATOM
      1 CA1        -0.7620   -0.3990   -0.0180 c3        1 REZ     -0.147400
      2 CB1         0.7340   -0.1750   -0.0370 c3        1 REZ     -0.074400
      3 CG1         1.2950   -0.4010    1.3490 c3        1 REZ     -0.076400
      4 CD1         2.8050   -0.4410    1.2810 c3        1 REZ     -0.064400
      5 CE1         3.3730   -0.4020    2.6800 c3        1 REZ      0.023500
      6 NZ1         4.0010   -1.6450    2.9710 n3        1 REZ     -0.893800
      7 CZ1         4.3890    0.7120    2.7810 c         1 REZ      0.886600
      8 OH1         5.4170    0.6940    2.0540 o         1 REZ     -0.852300
      9 OH2         4.2030    1.6630    3.5850 o         1 REZ     -0.852300
     10 C1         -1.3920    0.3100   -1.1960 c         1 REZ      0.644100
     11 O1         -0.7320    1.0760   -1.8700 o         1 REZ     -0.665100
     12 N          -2.7620    0.1000   -1.5000 n         1 REZ     -0.534900
     13 CA         -3.3820    0.8480   -2.5360 c3        1 REZ     -0.031300
     14 CB         -4.8370    1.0770   -2.1890 c3        1 REZ     -0.083100
     15 C          -3.2890    0.0820   -3.8360 c         1 REZ      0.909600
     16 O          -2.8590    0.6520   -4.8730 o         1 REZ     -0.843300
     17 OXT        -3.6420   -1.1260   -3.8820 o         1 REZ     -0.843300
     18 HA11       -1.1340   -0.0430    0.8140 hc        1 REZ      0.049200
     19 HA12       -0.9480   -1.3570   -0.0760 hc        1 REZ      0.049200
     20 HB11        0.9230    0.7430   -0.3190 hc        1 REZ      0.048700
     21 HB12        1.1500   -0.8010   -0.6630 hc        1 REZ      0.048700
     22 HG11        1.0140    0.3290    1.9370 hc        1 REZ      0.031700
     23 HG12        0.9610   -1.2500    1.7010 hc        1 REZ      0.031700
     24 HD11        3.0890   -1.2640    0.8360 hc        1 REZ      0.045200
     25 HD12        3.1290    0.3320    0.7760 hc        1 REZ      0.045200
     26 HE1         2.6510   -0.2440    3.3210 h1        1 REZ      0.040700
     27 HZ11        3.4460   -2.1530    3.4930 hn        1 REZ      0.328300
     28 HZ12        4.7860   -1.4930    3.4190 hn        1 REZ      0.328300
     29 H          -3.2450   -0.5130   -1.0280 hn        1 REZ      0.325500
     30 HA         -2.9300    1.7090   -2.6310 h1        1 REZ      0.050700
     31 HBC1       -5.2570    1.6210   -2.8880 hc        1 REZ      0.025033
     32 HBC2       -4.8980    1.5450   -1.3300 hc        1 REZ      0.025033
     33 HBC3       -5.2980    0.2150   -2.1260 hc        1 REZ      0.025033
@<TRIPOS>BOND
     1    1    2 1   
     2    1   10 1   
     3    1   18 1   
     4    1   19 1   
     5    2    3 1   
     6    2   20 1   
     7    2   21 1   
     8    3    4 1   
     9    3   22 1   
    10    3   23 1   
    11    4    5 1   
    12    4   24 1   
    13    4   25 1   
    14    5    6 1   
    15    5    7 1   
    16    5   26 1   
    17    6   27 1   
    18    6   28 1   
    19    7    8 1   
    20    7    9 1   
    21   10   11 2   
    22   10   12 1   
    23   12   13 1   
    24   12   29 1   
    25   13   14 1   
    26   13   15 1   
    27   13   30 1   
    28   14   31 1   
    29   14   32 1   
    30   14   33 1   
    31   15   16 1   
    32   15   17 1   
@<TRIPOS>SUBSTRUCTURE
     1 REZ         1 TEMP              0 ****  ****    0 ROOT
