@<TRIPOS>MOLECULE
REZ
   35    34     1     0     0
SMALL
bcc


@<TRIPOS>ATOM
      1 CA1         0.1050   -0.3900   -0.3460 c3        1 REZ     -0.155400
      2 CB1         1.5790   -0.6780   -0.1390 c3        1 REZ     -0.076400
      3 CG1         2.1400    0.2200    0.9440 c3        1 REZ     -0.094400
      4 CD1         3.5510   -0.1900    1.3100 c3        1 REZ     -0.085400
      5 CE1         3.9860    0.3480    2.6620 c3        1 REZ     -0.080500
      6 NZ1         3.9960    1.8410    2.7260 n4        1 REZ     -0.833600
      7 CZ1         2.9770   -0.2130    3.7860 c         1 REZ      0.934600
      8 OH1         3.0930   -1.4220    4.0340 o         1 REZ     -0.754300
      9 OH2         2.1900    0.6510    4.2550 o         1 REZ     -0.754300
     10 C1         -0.4490   -1.2100   -1.4760 c         1 REZ      0.537100
     11 O1          0.1890   -1.9300   -2.2370 o         1 REZ     -0.445100
     12 N          -1.9180   -1.1350   -1.7000 n4        1 REZ     -0.661800
     13 CA         -2.4260    0.2540   -1.9600 c3        1 REZ     -0.072500
     14 CB         -3.0370    0.9030   -0.7430 c3        1 REZ     -0.108100
     15 C          -3.5190    0.2010   -3.1490 c         1 REZ      0.942600
     16 O          -4.0340    1.2980   -3.4160 o         1 REZ     -0.752300
     17 OXT        -3.6850   -0.9340   -3.6600 o         1 REZ     -0.752300
     18 HA11       -0.4640   -0.6120    0.5990 hc        1 REZ      0.096700
     19 HA12       -0.0490    0.6980   -0.5860 hc        1 REZ      0.096700
     20 HB11        1.7100   -1.7550    0.1510 hc        1 REZ      0.067700
     21 HB12        2.1360   -0.5240   -1.1000 hc        1 REZ      0.067700
     22 HG11        1.4880    0.1600    1.8600 hc        1 REZ      0.055200
     23 HG12        2.1230    1.2840    0.5890 hc        1 REZ      0.055200
     24 HD11        4.2650    0.1180    0.5010 hc        1 REZ      0.070700
     25 HD12        3.6060   -1.3120    1.4070 hc        1 REZ      0.070700
     26 HE1         5.0180   -0.0240    2.9070 hx        1 REZ      0.095700
     27 HZ11        3.9760    2.2570    1.7990 hn        1 REZ      0.445133
     28 HZ12        3.1330    2.1090    3.2570 hn        1 REZ      0.445133
     29 H          -2.1930   -1.6940   -2.5490 hn        1 REZ      0.470800
     30 HA         -1.5700    0.8670   -2.3540 hx        1 REZ      0.082700
     31 HBC1       -3.8710    0.2900   -0.3230 hc        1 REZ      0.058700
     32 HBC2       -2.2800    1.0880    0.0580 hc        1 REZ      0.058700
     33 HBC3       -3.4690    1.8830   -1.0770 hc        1 REZ      0.058700
     34 HZ13        4.8110    2.1690    3.2380 hn        1 REZ      0.445133
     35 H2         -2.4070   -1.5260   -0.8920 hn        1 REZ      0.470800
@<TRIPOS>BOND
     1    1    2 1   
     2    1   10 1   
     3    1   18 1   
     4    1   19 1   
     5    2    3 1   
     6    2   20 1   
     7    2   21 1   
     8    3    4 1   
     9    3   22 1   
    10    3   23 1   
    11    4    5 1   
    12    4   24 1   
    13    4   25 1   
    14    5    6 1   
    15    5    7 1   
    16    5   26 1   
    17    6   27 1   
    18    6   28 1   
    19    6   34 1   
    20    7    8 1   
    21    7    9 1   
    22   10   11 2   
    23   10   12 1   
    24   12   13 1   
    25   12   29 1   
    26   12   35 1   
    27   13   14 1   
    28   13   15 1   
    29   13   30 1   
    30   14   31 1   
    31   14   32 1   
    32   14   33 1   
    33   15   16 1   
    34   15   17 1   
@<TRIPOS>SUBSTRUCTURE
     1 REZ         1 TEMP              0 ****  ****    0 ROOT
