@<TRIPOS>MOLECULE
REZ
   35    34     1     0     0
SMALL
bcc


@<TRIPOS>ATOM
      1 CA1         0.1120   -0.3890   -0.3530 c3        1 REZ     -0.155400
      2 CB1         1.5960   -0.6390   -0.1720 c3        1 REZ     -0.076400
      3 CG1         2.1450    0.2460    0.9270 c3        1 REZ     -0.094400
      4 CD1         3.5720   -0.1320    1.2650 c3        1 REZ     -0.085400
      5 CE1         4.0080    0.3830    2.6260 c3        1 REZ     -0.080500
      6 NZ1         3.9770    1.8730    2.7290 nz        1 REZ     -0.833600
      7 CZ1         3.0300   -0.2370    3.7470 c         1 REZ      0.934600
      8 OH1         3.1840   -1.4480    3.9610 o         1 REZ     -0.754300
      9 OH2         2.2240    0.5920    4.2470 o         1 REZ     -0.754300
     10 C1         -0.4330   -1.1940   -1.4980 c         1 REZ      0.537100
     11 O1          0.2150   -1.8750   -2.2870 o         1 REZ     -0.445100
     12 N          -1.9070   -1.1560   -1.7010 ny        1 REZ     -0.661800
     13 CA         -2.4580    0.2240   -1.9170 c3        1 REZ     -0.072500
     14 CB         -3.0710    0.8210   -0.6740 c3        1 REZ     -0.108100
     15 C          -3.5650    0.1720   -3.0930 c         1 REZ      0.942600
     16 O          -4.1150    1.2600   -3.3220 o         1 REZ     -0.752300
     17 OXT        -3.7050   -0.9530   -3.6330 o         1 REZ     -0.752300
     18 HA11       -0.4380   -0.6520    0.5920 hc        1 REZ      0.096700
     19 HA12       -0.0770    0.7010   -0.5620 hc        1 REZ      0.096700
     20 HB11        2.1360   -0.4440   -1.1360 hc        1 REZ      0.067700
     21 HB12        1.7620   -1.7190    0.0880 hc        1 REZ      0.067700
     22 HG11        2.0940    1.3190    0.6000 hc        1 REZ      0.055200
     23 HG12        1.5070    0.1440    1.8490 hc        1 REZ      0.055200
     24 HD11        3.6600   -1.2540    1.3320 hc        1 REZ      0.070700
     25 HD12        4.2660    0.2170    0.4570 hc        1 REZ      0.070700
     26 HE1         5.0530    0.0350    2.8490 hx        1 REZ      0.095700
     27 HZ11        3.1130    2.1020    3.2770 hn        1 REZ      0.445133
     28 HZ12        3.9330    2.3130    1.8140 hn        1 REZ      0.445133
     29 H          -2.3730   -1.5830   -0.8990 hn        1 REZ      0.470800
     30 HA         -1.6250    0.8730   -2.3040 hx        1 REZ      0.082700
     31 HBC1       -2.3100    1.0060    0.1220 hc        1 REZ      0.058700
     32 HBC2       -3.5360    1.7970   -0.9750 hc        1 REZ      0.058700
     33 HBC3       -3.8810    0.1720   -0.2610 hc        1 REZ      0.058700
     34 HZ13        4.7870    2.2110    3.2410 hn        1 REZ      0.445133
     35 H2         -2.1770   -1.7000   -2.5630 hn        1 REZ      0.470800
@<TRIPOS>BOND
     1    1    2 1   
     2    1   10 1   
     3    1   18 1   
     4    1   19 1   
     5    2    3 1   
     6    2   20 1   
     7    2   21 1   
     8    3    4 1   
     9    3   22 1   
    10    3   23 1   
    11    4    5 1   
    12    4   24 1   
    13    4   25 1   
    14    5    6 1   
    15    5    7 1   
    16    5   26 1   
    17    6   27 1   
    18    6   28 1   
    19    6   34 1   
    20    7    8 1   
    21    7    9 1   
    22   10   11 2   
    23   10   12 1   
    24   12   13 1   
    25   12   29 1   
    26   12   35 1   
    27   13   14 1   
    28   13   15 1   
    29   13   30 1   
    30   14   31 1   
    31   14   32 1   
    32   14   33 1   
    33   15   16 1   
    34   15   17 1   
@<TRIPOS>SUBSTRUCTURE
     1 REZ         1 TEMP              0 ****  ****    0 ROOT
