@<TRIPOS>MOLECULE
RF1
   44    46     1     0     0
SMALL
bcc


@<TRIPOS>ATOM
      1 C14        -5.4300    1.8350    0.9670 c3        1 RF1     -0.114100
      2 C10        -5.6760    0.8670   -0.1780 c3        1 RF1      0.185800
      3 C15        -6.8030   -0.1010    0.1360 c3        1 RF1     -0.114100
      4 C16        -5.9760    1.6330   -1.4660 c3        1 RF1     -0.114100
      5 O2         -4.4560    0.1520   -0.5140 os        1 RF1     -0.446900
      6 C3         -3.9110   -0.7160    0.4000 c         1 RF1      0.733100
      7 O3         -4.3700   -0.7850    1.5520 o         1 RF1     -0.585000
      8 N3         -2.8920   -1.5290   -0.1200 n         1 RF1     -0.410800
      9 C7         -2.0100   -2.1620    0.8450 c3        1 RF1      0.073000
     10 C12        -0.6820   -1.4350    1.0660 c3        1 RF1     -0.110400
     11 C6         -2.2480   -1.1710   -1.3680 c3        1 RF1      0.073000
     12 C13        -0.9310   -0.4090   -1.2090 c3        1 RF1     -0.110400
     13 C5          0.0040   -1.1600   -0.2680 c3        1 RF1     -0.092000
     14 C2          1.2500   -0.3800   -0.0510 cc        1 RF1      0.509700
     15 N1          2.5320   -0.6460   -0.2750 nd        1 RF1     -0.690000
     16 O1          1.1230    0.9290    0.5090 os        1 RF1     -0.142100
     17 N2          2.3200    1.4570    0.6260 nc        1 RF1     -0.363300
     18 C1          3.2120    0.5370    0.1620 cd        1 RF1      0.623500
     19 C4          4.6400    0.6810    0.0980 cd        1 RF1     -0.191600
     20 C8          5.3530    1.8030    0.5060 cc        1 RF1     -0.110000
     21 C11         6.7530    1.6250    0.3100 cc        1 RF1     -0.165000
     22 C9          7.0340    0.3860   -0.2340 cd        1 RF1     -0.182100
     23 S1          5.6640   -0.5130   -0.4910 ss        1 RF1      0.119200
     24 H14        -5.2670    1.2800    1.9220 hc        1 RF1      0.052256
     25 H14A       -4.5290    2.4590    0.7540 hc        1 RF1      0.052256
     26 H14B       -6.3160    2.5040    1.0820 hc        1 RF1      0.052256
     27 H15        -7.7640    0.4610    0.2080 hc        1 RF1      0.052256
     28 H15A       -6.8890   -0.8660   -0.6720 hc        1 RF1      0.052256
     29 H15B       -6.6140   -0.6220    1.1060 hc        1 RF1      0.052256
     30 H16        -5.1290    2.3150   -1.7160 hc        1 RF1      0.052256
     31 H16A       -6.1250    0.9210   -2.3120 hc        1 RF1      0.052256
     32 H16B       -6.9040    2.2350   -1.3220 hc        1 RF1      0.052256
     33 H7         -2.5450   -2.2590    1.8330 h1        1 RF1      0.073200
     34 H7A        -1.8000   -3.1980    0.4500 h1        1 RF1      0.073200
     35 H12        -0.8550   -0.4680    1.6060 hc        1 RF1      0.067950
     36 H12A       -0.0270   -2.0760    1.7090 hc        1 RF1      0.067950
     37 H6         -2.0420   -2.1410   -1.9080 h1        1 RF1      0.073200
     38 H6A        -2.9510   -0.5600   -2.0000 h1        1 RF1      0.073200
     39 H13        -0.4550   -0.3020   -2.2170 hc        1 RF1      0.067950
     40 H13A       -1.1230    0.6200   -0.8070 hc        1 RF1      0.067950
     41 H5          0.2840   -2.1450   -0.7430 hc        1 RF1      0.086700
     42 H8          4.9080    2.7090    0.9240 ha        1 RF1      0.168000
     43 H11         7.4940    2.3850    0.5630 ha        1 RF1      0.158000
     44 H9          8.0340    0.0230   -0.4730 h4        1 RF1      0.174000
@<TRIPOS>BOND
     1    1    2 1   
     2    1   24 1   
     3    1   25 1   
     4    1   26 1   
     5    2    3 1   
     6    2    4 1   
     7    2    5 1   
     8    3   27 1   
     9    3   28 1   
    10    3   29 1   
    11    4   30 1   
    12    4   31 1   
    13    4   32 1   
    14    5    6 1   
    15    6    7 2   
    16    6    8 1   
    17    8    9 1   
    18    8   11 1   
    19    9   10 1   
    20    9   33 1   
    21    9   34 1   
    22   10   13 1   
    23   10   35 1   
    24   10   36 1   
    25   11   12 1   
    26   11   37 1   
    27   11   38 1   
    28   12   13 1   
    29   12   39 1   
    30   12   40 1   
    31   13   14 1   
    32   13   41 1   
    33   14   15 2   
    34   14   16 1   
    35   15   18 1   
    36   16   17 1   
    37   17   18 2   
    38   18   19 1   
    39   19   20 2   
    40   19   23 1   
    41   20   21 1   
    42   20   42 1   
    43   21   22 2   
    44   21   43 1   
    45   22   23 1   
    46   22   44 1   
@<TRIPOS>SUBSTRUCTURE
     1 RF1         1 TEMP              0 ****  ****    0 ROOT
