@<TRIPOS>MOLECULE
RF1
   44    46     1     0     0
SMALL
bcc


@<TRIPOS>ATOM
      1 C14        -0.2420    0.3170   -0.5270 c3        1 RF1     -0.114100
      2 C10         1.2580    0.2160   -0.3070 c3        1 RF1      0.185800
      3 C15         1.5920   -0.1520    1.1280 c3        1 RF1     -0.114100
      4 C16         1.8690   -0.8000   -1.2720 c3        1 RF1     -0.114100
      5 O2          1.9170    1.4530   -0.6930 os        1 RF1     -0.446900
      6 C3          1.6630    2.6000    0.0180 c         1 RF1      0.733100
      7 O3          0.7770    2.6180    0.8880 o         1 RF1     -0.585000
      8 N3          2.5330    3.6610   -0.2790 n         1 RF1     -0.410800
      9 C7          2.0940    4.9900    0.1100 c3        1 RF1      0.073000
     10 C12         1.4590    5.8050   -1.0180 c3        1 RF1     -0.110400
     11 C6          3.3250    3.6280   -1.4930 c3        1 RF1      0.073000
     12 C13         2.7200    4.3990   -2.6680 c3        1 RF1     -0.110400
     13 C5          2.3680    5.8200   -2.2430 c3        1 RF1     -0.092000
     14 C2          1.7070    6.5410   -3.3610 cc        1 RF1      0.509700
     15 N1          2.0100    7.6550   -4.0210 nd        1 RF1     -0.690000
     16 O1          0.4980    5.9880   -3.8850 os        1 RF1     -0.142100
     17 N2          0.0660    6.7580   -4.8570 nc        1 RF1     -0.363300
     18 C1          0.9520    7.7870   -4.9780 cd        1 RF1      0.623500
     19 C4          0.8830    8.8750   -5.9150 cd        1 RF1     -0.191600
     20 C8         -0.1160    9.0540   -6.8640 cc        1 RF1     -0.110000
     21 C11         0.1090   10.2310   -7.6350 cc        1 RF1     -0.165000
     22 C9          1.2610   10.8840   -7.2360 cd        1 RF1     -0.182100
     23 S1          2.0250   10.1040   -5.9890 ss        1 RF1      0.119200
     24 H14        -0.7010    1.0150    0.2140 hc        1 RF1      0.052256
     25 H14A       -0.4530    0.6950   -1.5560 hc        1 RF1      0.052256
     26 H14B       -0.7020   -0.6920   -0.4080 hc        1 RF1      0.052256
     27 H15         1.2310   -1.1860    1.3390 hc        1 RF1      0.052256
     28 H15A        2.6960   -0.1130    1.2870 hc        1 RF1      0.052256
     29 H15B        1.1000    0.5560    1.8390 hc        1 RF1      0.052256
     30 H16         1.6550   -0.5060   -2.3270 hc        1 RF1      0.052256
     31 H16A        1.4250   -1.8030   -1.0710 hc        1 RF1      0.052256
     32 H16B        2.9740   -0.8490   -1.1300 hc        1 RF1      0.052256
     33 H7          3.0110    5.5300    0.4820 h1        1 RF1      0.073200
     34 H7A         1.3590    4.9060    0.9610 h1        1 RF1      0.073200
     35 H12         1.2920    6.8500   -0.6530 hc        1 RF1      0.068200
     36 H12A        0.4620    5.3730   -1.2960 hc        1 RF1      0.068200
     37 H6          4.3220    4.0880   -1.2320 h1        1 RF1      0.073200
     38 H6A         3.5020    2.5610   -1.8050 h1        1 RF1      0.073200
     39 H13         1.8000    3.8780   -3.0430 hc        1 RF1      0.068200
     40 H13A        3.4670    4.4220   -3.5020 hc        1 RF1      0.068200
     41 H5          3.3190    6.3690   -1.9830 hc        1 RF1      0.086700
     42 H8         -0.9680    8.3860   -7.0100 ha        1 RF1      0.168000
     43 H11        -0.5560   10.5590   -8.4360 ha        1 RF1      0.158000
     44 H9          1.6380   11.8060   -7.6780 h4        1 RF1      0.174000
@<TRIPOS>BOND
     1    1    2 1   
     2    1   24 1   
     3    1   25 1   
     4    1   26 1   
     5    2    3 1   
     6    2    4 1   
     7    2    5 1   
     8    3   27 1   
     9    3   28 1   
    10    3   29 1   
    11    4   30 1   
    12    4   31 1   
    13    4   32 1   
    14    5    6 1   
    15    6    7 2   
    16    6    8 1   
    17    8    9 1   
    18    8   11 1   
    19    9   10 1   
    20    9   33 1   
    21    9   34 1   
    22   10   13 1   
    23   10   35 1   
    24   10   36 1   
    25   11   12 1   
    26   11   37 1   
    27   11   38 1   
    28   12   13 1   
    29   12   39 1   
    30   12   40 1   
    31   13   14 1   
    32   13   41 1   
    33   14   15 2   
    34   14   16 1   
    35   15   18 1   
    36   16   17 1   
    37   17   18 2   
    38   18   19 1   
    39   19   20 2   
    40   19   23 1   
    41   20   21 1   
    42   20   42 1   
    43   21   22 2   
    44   21   43 1   
    45   22   23 1   
    46   22   44 1   
@<TRIPOS>SUBSTRUCTURE
     1 RF1         1 TEMP              0 ****  ****    0 ROOT
