@<TRIPOS>MOLECULE
RF1
   44    46     1     0     0
SMALL
bcc


@<TRIPOS>ATOM
      1 C14        -0.2450    0.3210   -0.5200 c3        1 RF1     -0.114100
      2 C10         1.2550    0.2170   -0.3050 c3        1 RF1      0.185800
      3 C15         1.5940   -0.1510    1.1290 c3        1 RF1     -0.114100
      4 C16         1.8610   -0.8000   -1.2730 c3        1 RF1     -0.114100
      5 O2          1.9150    1.4530   -0.6940 os        1 RF1     -0.446900
      6 C3          1.6670    2.6010    0.0180 c         1 RF1      0.733100
      7 O3          0.7840    2.6200    0.8910 o         1 RF1     -0.585000
      8 N3          2.5380    3.6600   -0.2820 n         1 RF1     -0.410800
      9 C7          2.1030    4.9900    0.1090 c3        1 RF1      0.073000
     10 C12         1.4660    5.8060   -1.0170 c3        1 RF1     -0.110400
     11 C6          3.3250    3.6250   -1.4980 c3        1 RF1      0.073000
     12 C13         2.7180    4.3970   -2.6710 c3        1 RF1     -0.110400
     13 C5          2.3700    5.8190   -2.2450 c3        1 RF1     -0.092000
     14 C2          1.7070    6.5420   -3.3610 cc        1 RF1      0.509700
     15 N1          2.0120    7.6520   -4.0250 nd        1 RF1     -0.690000
     16 O1          0.4920    5.9940   -3.8760 os        1 RF1     -0.142100
     17 N2          0.0590    6.7650   -4.8470 nc        1 RF1     -0.363300
     18 C1          0.9500    7.7880   -4.9760 cd        1 RF1      0.623500
     19 C4          0.8820    8.8740   -5.9150 cd        1 RF1     -0.191600
     20 C8         -0.1220    9.0570   -6.8590 cc        1 RF1     -0.110000
     21 C11         0.1060   10.2300   -7.6350 cc        1 RF1     -0.165000
     22 C9          1.2640   10.8770   -7.2450 cd        1 RF1     -0.182100
     23 S1          2.0320   10.0950   -6.0010 ss        1 RF1      0.119200
     24 H14        -0.4600    0.6990   -1.5480 hc        1 RF1      0.052256
     25 H14A       -0.7000    1.0200    0.2230 hc        1 RF1      0.052256
     26 H14B       -0.7070   -0.6870   -0.3990 hc        1 RF1      0.052256
     27 H15         1.2320   -1.1850    1.3410 hc        1 RF1      0.052256
     28 H15A        1.1070    0.5570    1.8410 hc        1 RF1      0.052256
     29 H15B        2.6990   -0.1140    1.2830 hc        1 RF1      0.052256
     30 H16         2.9660   -0.8510   -1.1350 hc        1 RF1      0.052256
     31 H16A        1.4160   -1.8020   -1.0710 hc        1 RF1      0.052256
     32 H16B        1.6430   -0.5050   -2.3270 hc        1 RF1      0.052256
     33 H7          1.3710    4.9070    0.9620 h1        1 RF1      0.073200
     34 H7A         3.0220    5.5280    0.4770 h1        1 RF1      0.073200
     35 H12         0.4670    5.3770   -1.2910 hc        1 RF1      0.067950
     36 H12A        1.3020    6.8510   -0.6510 hc        1 RF1      0.067950
     37 H6          3.4990    2.5580   -1.8120 h1        1 RF1      0.073200
     38 H6A         4.3240    4.0830   -1.2420 h1        1 RF1      0.073200
     39 H13         1.7950    3.8790   -3.0430 hc        1 RF1      0.067950
     40 H13A        3.4610    4.4190   -3.5080 hc        1 RF1      0.067950
     41 H5          3.3240    6.3660   -1.9890 hc        1 RF1      0.086700
     42 H8         -0.9790    8.3940   -6.9980 ha        1 RF1      0.168000
     43 H11        -0.5620   10.5600   -8.4330 ha        1 RF1      0.158000
     44 H9          1.6450   11.7950   -7.6920 h4        1 RF1      0.174000
@<TRIPOS>BOND
     1    1    2 1   
     2    1   24 1   
     3    1   25 1   
     4    1   26 1   
     5    2    3 1   
     6    2    4 1   
     7    2    5 1   
     8    3   27 1   
     9    3   28 1   
    10    3   29 1   
    11    4   30 1   
    12    4   31 1   
    13    4   32 1   
    14    5    6 1   
    15    6    7 2   
    16    6    8 1   
    17    8    9 1   
    18    8   11 1   
    19    9   10 1   
    20    9   33 1   
    21    9   34 1   
    22   10   13 1   
    23   10   35 1   
    24   10   36 1   
    25   11   12 1   
    26   11   37 1   
    27   11   38 1   
    28   12   13 1   
    29   12   39 1   
    30   12   40 1   
    31   13   14 1   
    32   13   41 1   
    33   14   15 2   
    34   14   16 1   
    35   15   18 1   
    36   16   17 1   
    37   17   18 2   
    38   18   19 1   
    39   19   20 2   
    40   19   23 1   
    41   20   21 1   
    42   20   42 1   
    43   21   22 2   
    44   21   43 1   
    45   22   23 1   
    46   22   44 1   
@<TRIPOS>SUBSTRUCTURE
     1 RF1         1 TEMP              0 ****  ****    0 ROOT
