@<TRIPOS>MOLECULE
RF2
   28    30     1     0     0
SMALL
bcc


@<TRIPOS>ATOM
      1 C6         -0.0210   -0.0890    0.0080 ca        1 RF2     -0.081500
      2 C5          1.3610   -0.2290   -0.0120 ca        1 RF2     -0.168000
      3 C4          2.0830   -0.1820    1.1960 ca        1 RF2      0.137900
      4 F           3.4290   -0.3220    1.1850 f         1 RF2     -0.135900
      5 C3          1.4090    0.0110    2.4160 ca        1 RF2     -0.168000
      6 C8          0.0260    0.1520    2.4210 ca        1 RF2     -0.081500
      7 C7         -0.7000    0.0980    1.2220 ca        1 RF2     -0.135500
      8 C2         -2.1470    0.2440    1.2150 cc        1 RF2      0.413000
      9 N3         -2.9870   -0.0290    2.3070 na        1 RF2     -0.429700
     10 N2         -2.9430    0.6590    0.1680 nd        1 RF2     -0.336000
     11 N1         -4.1970    0.6570    0.5420 nd        1 RF2     -0.337000
     12 C1         -4.2880    0.2410    1.8530 cc        1 RF2      0.420000
     13 C9         -5.4940    0.0900    2.6560 ca        1 RF2     -0.124500
     14 C10        -5.4410    0.1480    4.0560 ca        1 RF2     -0.104500
     15 C11        -6.6080    0.0010    4.8040 ca        1 RF2     -0.130500
     16 C12        -7.8310   -0.2010    4.1650 ca        1 RF2     -0.116000
     17 C13        -7.8880   -0.2510    2.7720 ca        1 RF2     -0.130500
     18 C14        -6.7260   -0.1070    2.0150 ca        1 RF2     -0.104500
     19 H6         -0.5850   -0.1220   -0.9390 ha        1 RF2      0.148000
     20 H5          1.8970   -0.3750   -0.9610 ha        1 RF2      0.154000
     21 H3          1.9820    0.0540    3.3540 ha        1 RF2      0.154000
     22 H8         -0.4840    0.3210    3.3810 ha        1 RF2      0.148000
     23 H10        -4.4890    0.3240    4.5770 ha        1 RF2      0.141500
     24 H11        -6.5620    0.0480    5.9020 ha        1 RF2      0.137500
     25 H12        -8.7500   -0.3160    4.7590 ha        1 RF2      0.136000
     26 H13        -8.8520   -0.4040    2.2650 ha        1 RF2      0.137500
     27 H14        -6.7770   -0.1440    0.9150 ha        1 RF2      0.141500
     28 HN3        -2.7230   -0.3660    3.1940 hn        1 RF2      0.312700
@<TRIPOS>BOND
     1    1    2 ar  
     2    1    7 ar  
     3    1   19 1   
     4    2    3 ar  
     5    2   20 1   
     6    3    4 1   
     7    3    5 ar  
     8    5    6 ar  
     9    5   21 1   
    10    6    7 ar  
    11    6   22 1   
    12    7    8 1   
    13    8    9 1   
    14    8   10 2   
    15    9   12 1   
    16    9   28 1   
    17   10   11 1   
    18   11   12 2   
    19   12   13 1   
    20   13   14 ar  
    21   13   18 ar  
    22   14   15 ar  
    23   14   23 1   
    24   15   16 ar  
    25   15   24 1   
    26   16   17 ar  
    27   16   25 1   
    28   17   18 ar  
    29   17   26 1   
    30   18   27 1   
@<TRIPOS>SUBSTRUCTURE
     1 RF2         1 TEMP              0 ****  ****    0 ROOT
