@<TRIPOS>MOLECULE
RF2
   28    30     1     0     0
SMALL
bcc


@<TRIPOS>ATOM
      1 C6          2.9650    1.2240   -0.0910 ca        1 RF2     -0.081500
      2 C5          4.3100    0.9000   -0.2320 ca        1 RF2     -0.168000
      3 C4          4.7110   -0.4480   -0.1840 ca        1 RF2      0.137900
      4 F           6.0180   -0.7700   -0.3240 f         1 RF2     -0.135900
      5 C3          3.7560   -1.4630    0.0120 ca        1 RF2     -0.168000
      6 C8          2.4150   -1.1260    0.1540 ca        1 RF2     -0.081500
      7 C7          2.0080    0.2140    0.0980 ca        1 RF2     -0.135500
      8 C2          0.6070    0.5800    0.2450 cc        1 RF2      0.413000
      9 N3         -0.4760   -0.2720   -0.0250 na        1 RF2     -0.429700
     10 N2          0.0950    1.7910    0.6580 nd        1 RF2     -0.336000
     11 N1         -1.2120    1.7390    0.6580 nd        1 RF2     -0.337000
     12 C1         -1.6250    0.4900    0.2440 cc        1 RF2      0.420000
     13 C9         -2.9920    0.0110    0.0960 ca        1 RF2     -0.124500
     14 C10        -3.2870   -1.3590    0.1560 ca        1 RF2     -0.104500
     15 C11        -4.6020   -1.7960    0.0100 ca        1 RF2     -0.130500
     16 C12        -5.6300   -0.8740   -0.1910 ca        1 RF2     -0.116000
     17 C13        -5.3400    0.4890   -0.2440 ca        1 RF2     -0.130500
     18 C14        -4.0280    0.9360   -0.1020 ca        1 RF2     -0.104500
     19 H6          2.6530    2.2800   -0.1250 ha        1 RF2      0.148000
     20 H5          5.0630    1.6880   -0.3800 ha        1 RF2      0.154000
     21 H3          4.0800   -2.5130    0.0560 ha        1 RF2      0.154000
     22 H8          1.6830   -1.9290    0.3250 ha        1 RF2      0.148000
     23 H10        -2.4930   -2.0990    0.3320 ha        1 RF2      0.141500
     24 H11        -4.8290   -2.8710    0.0590 ha        1 RF2      0.137500
     25 H12        -6.6670   -1.2230   -0.3050 ha        1 RF2      0.136000
     26 H13        -6.1500    1.2180   -0.3970 ha        1 RF2      0.137500
     27 H14        -3.8060    2.0140   -0.1410 ha        1 RF2      0.141500
     28 HN3        -0.4400   -1.1970   -0.3610 hn        1 RF2      0.312700
@<TRIPOS>BOND
     1    1    2 ar  
     2    1    7 ar  
     3    1   19 1   
     4    2    3 ar  
     5    2   20 1   
     6    3    4 1   
     7    3    5 ar  
     8    5    6 ar  
     9    5   21 1   
    10    6    7 ar  
    11    6   22 1   
    12    7    8 1   
    13    8    9 1   
    14    8   10 2   
    15    9   12 1   
    16    9   28 1   
    17   10   11 1   
    18   11   12 2   
    19   12   13 1   
    20   13   14 ar  
    21   13   18 ar  
    22   14   15 ar  
    23   14   23 1   
    24   15   16 ar  
    25   15   24 1   
    26   16   17 ar  
    27   16   25 1   
    28   17   18 ar  
    29   17   26 1   
    30   18   27 1   
@<TRIPOS>SUBSTRUCTURE
     1 RF2         1 TEMP              0 ****  ****    0 ROOT
