@<TRIPOS>MOLECULE
RF3
   41    44     1     0     0
SMALL
bcc


@<TRIPOS>ATOM
      1 C40         6.5610   -0.5040   -0.4550 cc        1 RF3     -0.141000
      2 C38         7.6980    0.2700   -0.0720 cc        1 RF3     -0.156000
      3 C36         7.3550    1.5800    0.1870 cd        1 RF3     -0.169100
      4 S35         5.7240    1.8440   -0.0190 ss        1 RF3      0.046200
      5 C01         5.4030    0.2550   -0.4670 cd        1 RF3     -0.118400
      6 C02         4.0720   -0.2360   -0.8500 c3        1 RF3     -0.063100
      7 C05         3.2530   -0.7400    0.3320 c         1 RF3      0.652100
      8 O07         3.6040   -0.5490    1.5100 o         1 RF3     -0.581100
      9 N06         2.1050   -1.4990    0.0680 n         1 RF3     -0.465800
     10 C19         1.2560   -1.9030    1.1720 c3        1 RF3      0.082000
     11 C16        -0.0690   -1.1420    1.2530 c3        1 RF3     -0.106400
     12 C08         1.4310   -1.4720   -1.2080 c3        1 RF3      0.082000
     13 C11         0.1120   -0.6920   -1.2050 c3        1 RF3     -0.106400
     14 C14        -0.7940   -1.1910   -0.0860 c3        1 RF3     -0.090000
     15 C22        -2.0360   -0.3760   -0.0270 cc        1 RF3      0.509700
     16 N26        -3.3250   -0.6910   -0.0760 nd        1 RF3     -0.690000
     17 O23        -1.8930    1.0380    0.1160 os        1 RF3     -0.143100
     18 N24        -3.0880    1.5820    0.1540 nc        1 RF3     -0.363300
     19 C25        -3.9930    0.5710    0.0420 cd        1 RF3      0.623500
     20 C27        -5.4250    0.6950    0.0360 cd        1 RF3     -0.192600
     21 C28        -6.1280    1.8900    0.1440 cc        1 RF3     -0.109000
     22 C30        -7.5340    1.6680    0.1050 cc        1 RF3     -0.165000
     23 C32        -7.8310    0.3240   -0.0290 cd        1 RF3     -0.182100
     24 S34        -6.4660   -0.6150   -0.1040 ss        1 RF3      0.119200
     25 H40         6.6150   -1.5660   -0.7020 ha        1 RF3      0.152000
     26 H38         8.7060   -0.1440    0.0010 ha        1 RF3      0.153000
     27 H36         8.0450    2.3640    0.4950 h4        1 RF3      0.171000
     28 H02         3.4860    0.5870   -1.3460 hc        1 RF3      0.072200
     29 H02A        4.1990   -1.0720   -1.5940 hc        1 RF3      0.072200
     30 H19         1.0360   -3.0010    1.0370 h1        1 RF3      0.062950
     31 H19A        1.8130   -1.7700    2.1430 h1        1 RF3      0.062950
     32 H16        -0.7020   -1.6110    2.0490 hc        1 RF3      0.066200
     33 H16A        0.1140   -0.0740    1.5430 hc        1 RF3      0.066200
     34 H08         2.0950   -1.0420   -2.0060 h1        1 RF3      0.062950
     35 H08A        1.2100   -2.5440   -1.4900 h1        1 RF3      0.062950
     36 H11         0.3070    0.4040   -1.0700 hc        1 RF3      0.066200
     37 H11A       -0.3890   -0.8340   -2.1960 hc        1 RF3      0.066200
     38 H14        -1.0860   -2.2600   -0.3030 hc        1 RF3      0.087700
     39 H28        -5.6710    2.8770    0.2460 ha        1 RF3      0.168000
     40 H30        -8.2700    2.4710    0.1750 ha        1 RF3      0.158000
     41 H32        -8.8380   -0.0890   -0.0810 h4        1 RF3      0.174000
@<TRIPOS>BOND
     1    1    2 1   
     2    1    5 2   
     3    1   25 1   
     4    2    3 2   
     5    2   26 1   
     6    3    4 1   
     7    3   27 1   
     8    4    5 1   
     9    5    6 1   
    10    6    7 1   
    11    6   28 1   
    12    6   29 1   
    13    7    8 2   
    14    7    9 1   
    15    9   10 1   
    16    9   12 1   
    17   10   11 1   
    18   10   30 1   
    19   10   31 1   
    20   11   14 1   
    21   11   32 1   
    22   11   33 1   
    23   12   13 1   
    24   12   34 1   
    25   12   35 1   
    26   13   14 1   
    27   13   36 1   
    28   13   37 1   
    29   14   15 1   
    30   14   38 1   
    31   15   16 2   
    32   15   17 1   
    33   16   19 1   
    34   17   18 1   
    35   18   19 2   
    36   19   20 1   
    37   20   21 2   
    38   20   24 1   
    39   21   22 1   
    40   21   39 1   
    41   22   23 2   
    42   22   40 1   
    43   23   24 1   
    44   23   41 1   
@<TRIPOS>SUBSTRUCTURE
     1 RF3         1 TEMP              0 ****  ****    0 ROOT
