@<TRIPOS>MOLECULE
RF3
   41    37     1     0     0
SMALL
bcc


@<TRIPOS>ATOM
      1 C40         6.2310    1.6250    0.9990 c1        1 RF3     -0.161500
      2 C38         7.5120    2.0820    0.1710 c1        1 RF3     -0.161500
      3 C36         7.2580    1.8320   -1.2360 c1        1 RF3     -0.455000
      4 S35         5.8390    1.2200   -1.3630 ss        1 RF3      0.707000
      5 C01         5.2440    1.1130    0.0660 c1        1 RF3     -0.455000
      6 C02         3.9050    0.5110    0.4300 c2        1 RF3     -0.096000
      7 C05         2.9900    0.5540   -0.7730 c2        1 RF3      0.302000
      8 O07         3.2960    1.2150   -1.7460 o         1 RF3     -0.366000
      9 N06         1.8040   -0.2230   -0.7890 n         1 RF3     -0.320000
     10 C19         1.3730   -1.0410    0.3430 c3        1 RF3     -0.032000
     11 C16        -0.0580   -0.7570    0.7450 c3        1 RF3     -0.184000
     12 C08         0.9030   -0.2770   -1.9390 c3        1 RF3     -0.032000
     13 C11        -0.5320    0.0140   -1.5580 c3        1 RF3     -0.184000
     14 C14        -0.9940   -0.8280   -0.4160 c3        1 RF3     -0.035000
     15 C22        -2.3970   -0.3360    0.0380 c2        1 RF3      0.022000
     16 N26        -3.5120   -1.0930    0.1310 n2        1 RF3     -0.163000
     17 O23        -2.7290    0.9310    0.3450 os        1 RF3     -0.085000
     18 N24        -4.0600    0.9600    0.6310 n2        1 RF3     -0.027000
     19 C25        -4.5390   -0.2860    0.4990 c2        1 RF3     -0.009000
     20 C27        -5.8600   -0.6710    0.6580 c2        1 RF3     -0.355000
     21 C28        -6.6160   -0.6360    1.8970 c1        1 RF3     -0.109000
     22 C30        -8.1110   -1.0870    1.5840 c1        1 RF3     -0.165000
     23 C32        -8.2110   -1.3800    0.1670 c1        1 RF3     -0.451000
     24 S34        -6.8180   -1.1350   -0.4720 ss        1 RF3      0.659000
     25 H40         6.1280    1.6790    1.9680 DU        1 RF3      0.160833
     26 H38         8.3280    2.4640    0.5450 DU        1 RF3      0.160833
     27 H36         7.8730    2.0170   -1.9720 DU        1 RF3      0.160833
     28 H02         4.0310   -0.4170    0.7110 ha        1 RF3      0.114500
     29 H02A        3.5060    1.0230    1.1620 ha        1 RF3      0.114500
     30 H19         1.9570   -0.8590    1.1060 h1        1 RF3      0.103250
     31 H19A        1.4530   -1.9850    0.1000 h1        1 RF3      0.103250
     32 H16        -0.3350   -1.4130    1.4160 hc        1 RF3      0.107000
     33 H16A       -0.1060    0.1380    1.1360 hc        1 RF3      0.107000
     34 H08         1.1940    0.3820   -2.6010 h1        1 RF3      0.103250
     35 H08A        0.9510   -1.1690   -2.3370 h1        1 RF3      0.103250
     36 H11        -1.1060   -0.1590   -2.3310 hc        1 RF3      0.107000
     37 H11A       -0.6100    0.9560   -1.3090 hc        1 RF3      0.107000
     38 H14        -1.0630   -1.7550   -0.7120 hc        1 RF3      0.127000
     39 H28        -6.2670   -0.3800    2.7720 DU        1 RF3      0.160833
     40 H30        -8.8350   -1.1540    2.2350 DU        1 RF3      0.160833
     41 H32        -9.0140   -1.6790   -0.3020 DU        1 RF3      0.160833
@<TRIPOS>BOND
     1    1    2 1   
     2    1    5 1   
     3    2    3 1   
     4    3    4 1   
     5    4    5 1   
     6    6    7 1   
     7    6   28 1   
     8    6   29 1   
     9    7    8 1   
    10    7    9 1   
    11    9   10 1   
    12    9   12 1   
    13   10   11 1   
    14   10   30 1   
    15   10   31 1   
    16   11   14 1   
    17   11   32 1   
    18   11   33 1   
    19   12   13 1   
    20   12   34 1   
    21   12   35 1   
    22   13   14 1   
    23   13   36 1   
    24   13   37 1   
    25   14   15 1   
    26   14   38 1   
    27   15   16 1   
    28   15   17 1   
    29   16   19 1   
    30   17   18 1   
    31   18   19 1   
    32   19   20 1   
    33   20   21 1   
    34   20   24 1   
    35   21   22 1   
    36   22   23 1   
    37   23   24 1   
@<TRIPOS>SUBSTRUCTURE
     1 RF3         1 TEMP              0 ****  ****    0 ROOT
