@<TRIPOS>MOLECULE
RF3
   41    44     1     0     0
SMALL
bcc


@<TRIPOS>ATOM
      1 C40         0.1150    0.0200    0.2350 cc        1 RF3     -0.141000
      2 C38         1.5270    0.0810    0.4350 cc        1 RF3     -0.156000
      3 C36         1.8500    0.0460    1.7750 cd        1 RF3     -0.169100
      4 S35         0.4940   -0.0650    2.7350 ss        1 RF3      0.046200
      5 C01        -0.5720   -0.0610    1.4340 cd        1 RF3     -0.118400
      6 C02        -2.0350   -0.1050    1.5720 c3        1 RF3     -0.063100
      7 C05        -2.5940   -1.5210    1.6150 c         1 RF3      0.652100
      8 O07        -1.8610   -2.5180    1.7360 o         1 RF3     -0.580100
      9 N06        -3.9740   -1.6940    1.4460 n         1 RF3     -0.465800
     10 C19        -4.5420   -3.0210    1.5850 c3        1 RF3      0.082000
     11 C16        -5.3410   -3.2280    2.8730 c3        1 RF3     -0.106400
     12 C08        -4.9240   -0.6280    1.6560 c3        1 RF3      0.082000
     13 C11        -5.7340   -0.7550    2.9510 c3        1 RF3     -0.106400
     14 C14        -6.3850   -2.1300    3.0340 c3        1 RF3     -0.090000
     15 C22        -7.0970   -2.2860    4.3290 cc        1 RF3      0.509700
     16 N26        -8.3500   -2.6010    4.6380 nd        1 RF3     -0.690000
     17 O23        -6.3460   -2.0760    5.5270 os        1 RF3     -0.143100
     18 N24        -7.1360   -2.2620    6.5590 nc        1 RF3     -0.363300
     19 C25        -8.3670   -2.5840    6.0700 cd        1 RF3      0.623500
     20 C27        -9.5470   -2.8740    6.8370 cd        1 RF3     -0.192600
     21 C28        -9.6240   -2.8710    8.2250 cc        1 RF3     -0.109000
     22 C30       -10.9360   -3.2010    8.6710 cc        1 RF3     -0.165000
     23 C32       -11.7870   -3.4380    7.6070 cd        1 RF3     -0.182100
     24 S34       -11.0260   -3.2670    6.1440 ss        1 RF3      0.119200
     25 H40        -0.3510    0.0340   -0.7530 ha        1 RF3      0.152000
     26 H38         2.2450    0.1470   -0.3850 ha        1 RF3      0.153000
     27 H36         2.8590    0.0800    2.1820 h4        1 RF3      0.171000
     28 H02        -2.3470    0.4160    2.5190 hc        1 RF3      0.072200
     29 H02A       -2.4930    0.4470    0.7040 hc        1 RF3      0.072200
     30 H19        -3.7180   -3.7890    1.5400 h1        1 RF3      0.062950
     31 H19A       -5.2260   -3.1840    0.7020 h1        1 RF3      0.062950
     32 H16        -5.8420   -4.2290    2.8240 hc        1 RF3      0.066200
     33 H16A       -4.6540   -3.2280    3.7600 hc        1 RF3      0.066200
     34 H08        -5.6430   -0.6450    0.7840 h1        1 RF3      0.062950
     35 H08A       -4.4130    0.3740    1.6550 h1        1 RF3      0.062950
     36 H11        -5.0720   -0.5990    3.8420 hc        1 RF3      0.066200
     37 H11A       -6.5190    0.0430    2.9600 hc        1 RF3      0.066200
     38 H14        -7.1440   -2.2250    2.2020 hc        1 RF3      0.087700
     39 H28        -8.7920   -2.6460    8.8970 ha        1 RF3      0.168000
     40 H30       -11.2150   -3.2550    9.7250 ha        1 RF3      0.158000
     41 H32       -12.8390   -3.7080    7.7000 h4        1 RF3      0.174000
@<TRIPOS>BOND
     1    1    2 1   
     2    1    5 2   
     3    1   25 1   
     4    2    3 2   
     5    2   26 1   
     6    3    4 1   
     7    3   27 1   
     8    4    5 1   
     9    5    6 1   
    10    6    7 1   
    11    6   28 1   
    12    6   29 1   
    13    7    8 2   
    14    7    9 1   
    15    9   10 1   
    16    9   12 1   
    17   10   11 1   
    18   10   30 1   
    19   10   31 1   
    20   11   14 1   
    21   11   32 1   
    22   11   33 1   
    23   12   13 1   
    24   12   34 1   
    25   12   35 1   
    26   13   14 1   
    27   13   36 1   
    28   13   37 1   
    29   14   15 1   
    30   14   38 1   
    31   15   16 2   
    32   15   17 1   
    33   16   19 1   
    34   17   18 1   
    35   18   19 2   
    36   19   20 1   
    37   20   21 2   
    38   20   24 1   
    39   21   22 1   
    40   21   39 1   
    41   22   23 2   
    42   22   40 1   
    43   23   24 1   
    44   23   41 1   
@<TRIPOS>SUBSTRUCTURE
     1 RF3         1 TEMP              0 ****  ****    0 ROOT
