@<TRIPOS>MOLECULE
RF4
   44    46     1     0     0
SMALL
bcc


@<TRIPOS>ATOM
      1 C01        -0.3990    0.0180    0.0750 ca        1 RF4     -0.081800
      2 C02         0.9470    0.0480   -0.3070 ca        1 RF4     -0.132500
      3 C03         1.9580    0.0070    0.6490 ca        1 RF4     -0.136000
      4 C04         1.6410   -0.0610    2.0040 ca        1 RF4     -0.132500
      5 C05         0.3070   -0.0950    2.4210 ca        1 RF4     -0.081800
      6 C06        -0.7070   -0.0550    1.4460 ca        1 RF4      0.096100
      7 O07        -2.0270    0.0190    1.8740 os        1 RF4     -0.346900
      8 C08        -2.7460   -1.2200    1.7190 c3        1 RF4      0.137400
      9 C09        -1.4620    0.0640   -0.9550 c3        1 RF4     -0.054300
     10 C10        -0.0270   -0.1490    3.8620 c3        1 RF4     -0.054300
     11 C11        -4.2140   -0.8650    1.7850 c3        1 RF4     -0.043300
     12 S12        -5.0830   -2.4050    1.8100 ss        1 RF4     -0.128300
     13 C13        -6.6880   -1.9490    1.4590 cc        1 RF4      0.377700
     14 N14        -7.6700   -2.9170    1.1650 na        1 RF4     -0.072300
     15 C15        -8.8540   -2.2080    0.9440 ca        1 RF4     -0.061200
     16 C16        -8.5220   -0.8000    1.1100 ca        1 RF4      0.059400
     17 N17        -7.1650   -0.6760    1.4300 nd        1 RF4     -0.618100
     18 C18       -10.1570   -2.6160    0.6150 ca        1 RF4     -0.095000
     19 C19       -11.1130   -1.6270    0.4660 ca        1 RF4     -0.153000
     20 C20       -10.8050   -0.2600    0.6280 ca        1 RF4     -0.161000
     21 C21        -9.5290    0.1670    0.9430 ca        1 RF4     -0.102000
     22 C22        -7.4770   -4.3370    1.2340 c3        1 RF4     -0.112700
     23 C23        -8.0450   -5.1610    0.0260 c         1 RF4      0.919600
     24 O24        -7.2250   -5.4910   -0.8650 o         1 RF4     -0.814300
     25 O25        -9.2610   -5.4860    0.0760 o         1 RF4     -0.814300
     26 H1          1.2020    0.1070   -1.3760 ha        1 RF4      0.128500
     27 H2          3.0110    0.0290    0.3330 ha        1 RF4      0.125000
     28 H3          2.4440   -0.0920    2.7550 ha        1 RF4      0.128500
     29 H4         -2.4470   -1.9010    2.5610 h1        1 RF4      0.048700
     30 H5         -2.4870   -1.6980    0.7370 h1        1 RF4      0.048700
     31 H6         -1.1820    0.7640   -1.7800 hc        1 RF4      0.049533
     32 H7         -1.6160   -0.9540   -1.3950 hc        1 RF4      0.049533
     33 H8         -2.4320    0.4060   -0.5110 hc        1 RF4      0.049533
     34 H9         -1.0020   -0.6750    4.0210 hc        1 RF4      0.049533
     35 H10        -0.1270    0.8890    4.2680 hc        1 RF4      0.049533
     36 H11         0.7690   -0.6800    4.4390 hc        1 RF4      0.049533
     37 H12        -4.5010   -0.2390    0.9040 h1        1 RF4      0.090700
     38 H13        -4.4340   -0.2630    2.7000 h1        1 RF4      0.090700
     39 H14       -10.3760   -3.6900    0.4630 ha        1 RF4      0.203000
     40 H15       -12.1430   -1.9100    0.2050 ha        1 RF4      0.117000
     41 H16       -11.6070    0.4810    0.4950 ha        1 RF4      0.108000
     42 H17        -9.2940    1.2330    1.0610 ha        1 RF4      0.124000
     43 H18        -7.9720   -4.7180    2.1710 h1        1 RF4      0.047700
     44 H19        -6.3690   -4.5330    1.2910 h1        1 RF4      0.047700
@<TRIPOS>BOND
     1    1    2 ar  
     2    1    6 ar  
     3    1    9 1   
     4    2    3 ar  
     5    2   26 1   
     6    3    4 ar  
     7    3   27 1   
     8    4    5 ar  
     9    4   28 1   
    10    5    6 ar  
    11    5   10 1   
    12    6    7 1   
    13    7    8 1   
    14    8   11 1   
    15    8   29 1   
    16    8   30 1   
    17    9   31 1   
    18    9   32 1   
    19    9   33 1   
    20   10   34 1   
    21   10   35 1   
    22   10   36 1   
    23   11   12 1   
    24   11   37 1   
    25   11   38 1   
    26   12   13 1   
    27   13   14 1   
    28   13   17 2   
    29   14   15 1   
    30   14   22 1   
    31   15   16 ar  
    32   15   18 ar  
    33   16   17 1   
    34   16   21 ar  
    35   18   19 ar  
    36   18   39 1   
    37   19   20 ar  
    38   19   40 1   
    39   20   21 ar  
    40   20   41 1   
    41   21   42 1   
    42   22   23 1   
    43   22   43 1   
    44   22   44 1   
    45   23   24 1   
    46   23   25 1   
@<TRIPOS>SUBSTRUCTURE
     1 RF4         1 TEMP              0 ****  ****    0 ROOT
