@<TRIPOS>MOLECULE
RF5
   22    22     1     0     0
SMALL
bcc


@<TRIPOS>ATOM
      1 P          -2.3380    1.1460   -0.0130 p5        1 RF5      1.333900
      2 C1          3.0340   -1.0030   -0.2850 c3        1 RF5      0.306900
      3 O1          3.6850   -1.7230    0.7410 oh        1 RF5     -0.653800
      4 C2          2.9770    0.5190    0.0310 c3        1 RF5      0.089600
      5 F2          3.5460    1.2610   -0.9880 f         1 RF5     -0.258300
      6 C3          1.4620    0.8170    0.2300 c3        1 RF5      0.144100
      7 O3          1.3190    1.4340    1.4860 oh        1 RF5     -0.680800
      8 C4          0.7750   -0.5630    0.2040 c3        1 RF5      0.062100
      9 O4          1.7270   -1.5190   -0.3340 os        1 RF5     -0.456600
     10 C5         -0.5110   -0.6090   -0.6560 c3        1 RF5      0.238400
     11 O5         -1.6180   -0.4340    0.1290 os        1 RF5     -0.561200
     12 OP1        -1.1480    1.9680    0.4430 o         1 RF5     -0.931167
     13 OP2        -2.6200    1.2280   -1.4860 o         1 RF5     -0.931167
     14 OP3        -3.5040    1.0790    0.9240 o         1 RF5     -0.931167
     15 H1          3.5720   -1.2460   -1.2370 h2        1 RF5      0.072700
     16 H3          1.0620    1.4850   -0.5810 h1        1 RF5      0.106700
     17 HO3         0.3950    1.7880    1.5000 ho        1 RF5      0.509000
     18 H4          0.5380   -0.8930    1.2510 h1        1 RF5      0.057700
     19 H5         -0.4550    0.1730   -1.4640 h1        1 RF5      0.002700
     20 H5A        -0.5420   -1.6320   -1.1370 h1        1 RF5      0.002700
     21 HO1         3.0580   -1.8090    1.4710 ho        1 RF5      0.414000
     22 H2          3.5400    0.7330    0.9810 h1        1 RF5      0.063700
@<TRIPOS>BOND
     1    1   11 1   
     2    1   12 1   
     3    1   13 1   
     4    1   14 1   
     5    2    3 1   
     6    2    4 1   
     7    2    9 1   
     8    2   15 1   
     9    3   21 1   
    10    4    5 1   
    11    4    6 1   
    12    4   22 1   
    13    6    7 1   
    14    6    8 1   
    15    6   16 1   
    16    7   17 1   
    17    8    9 1   
    18    8   10 1   
    19    8   18 1   
    20   10   11 1   
    21   10   19 1   
    22   10   20 1   
@<TRIPOS>SUBSTRUCTURE
     1 RF5         1 TEMP              0 ****  ****    0 ROOT
