@<TRIPOS>MOLECULE
RF5
   22    21     1     0     0
SMALL
bcc


@<TRIPOS>ATOM
      1 P          -3.4440   -0.1170    1.2410 p4        1 RF5      1.702200
      2 C1          1.8450   -0.5150    0.7010 c3        1 RF5      0.306900
      3 O1          3.0650   -0.3300    1.4560 oh        1 RF5     -0.653800
      4 C2          2.0470    0.0140   -0.7940 c3        1 RF5      0.089600
      5 F2          2.6260   -0.9950   -1.5860 f         1 RF5     -0.258300
      6 C3          0.8670    0.2960   -1.2370 c3        1 RF5      0.144100
      7 O3          0.9270    1.4850   -2.1480 oh        1 RF5     -0.680800
      8 C4          0.0530    0.6270    0.0010 c3        1 RF5      0.062100
      9 O4          0.9140    0.1810    1.2040 os        1 RF5     -0.456600
     10 C5         -1.1880   -0.0840   -0.0180 c3        1 RF5      0.238400
     11 O5         -1.9110    0.1780    1.2050 os        1 RF5     -0.561200
     12 OP1        -3.9770    0.0670    2.7030 o         1 RF5     -0.920000
     13 OP2        -4.1510    0.8240    0.3330 os        1 RF5     -1.273000
     14 OP3        -3.6890   -1.5150    0.7940 o         1 RF5     -0.968800
     15 H1          1.6030   -1.4240    0.6940 h2        1 RF5      0.072700
     16 HO1         3.3280   -1.1060    1.7880 ho        1 RF5      0.414000
     17 H2          2.6330    0.8430   -0.7980 h1        1 RF5      0.063700
     18 H3          0.4910   -0.4590   -1.6940 h1        1 RF5      0.106700
     19 HO3         0.8410    1.2200   -2.9820 ho        1 RF5      0.509000
     20 H4         -0.1070    1.5610    0.0450 h1        1 RF5      0.057700
     21 H5         -1.0260   -0.9810   -0.0900 h1        1 RF5      0.002700
     22 H5A        -1.7470    0.2280   -0.8200 h1        1 RF5      0.002700
@<TRIPOS>BOND
     1    1   11 1   
     2    1   12 1   
     3    1   14 2   
     4    2    3 1   
     5    2    4 1   
     6    2    9 1   
     7    2   15 1   
     8    3   16 1   
     9    4    5 1   
    10    4    6 1   
    11    4   17 1   
    12    6    7 1   
    13    6    8 1   
    14    6   18 1   
    15    7   19 1   
    16    8    9 1   
    17    8   10 1   
    18    8   20 1   
    19   10   11 1   
    20   10   21 1   
    21   10   22 1   
@<TRIPOS>SUBSTRUCTURE
     1 RF5         1 TEMP              0 ****  ****    0 ROOT
