@<TRIPOS>MOLECULE
RF7
   33    33     1     0     0
SMALL
bcc


@<TRIPOS>ATOM
      1 O6          0.0000    0.0000    0.0000 o         1 RF7     -0.558500
      2 P4          1.6100    0.0000    0.0000 p5        1 RF7      0.508700
      3 O5          2.1460    0.0000    1.5180 o         1 RF7     -0.558500
      4 O7          2.1040   -1.2080   -0.6980 o         1 RF7     -0.558500
      5 C1          2.2170    1.4890   -0.8590 c3        1 RF7     -0.034600
      6 C2          1.8130    1.4280   -2.3330 c3        1 RF7      0.043600
      7 C3          2.6190    2.4570   -3.1270 c3        1 RF7     -0.079400
      8 C8          4.0790    2.0820   -3.0980 c         1 RF7      0.272100
      9 N9          4.9840    2.8510   -3.7360 nx        1 RF7      0.194300
     10 O10         4.5650    4.0100   -4.4310 oh        1 RF7     -0.559300
     11 C11         6.4030    2.4860   -3.7070 c3        1 RF7     -0.001900
     12 O12         4.4380    1.0900   -2.5020 o         1 RF7     -0.514100
     13 C13         0.3430    1.7330   -2.4630 ca        1 RF7     -0.041300
     14 C15        -0.1510    2.9510   -2.0370 ca        1 RF7     -0.075000
     15 C16        -1.4990    3.2310   -2.1570 ca        1 RF7     -0.108000
     16 C18        -2.3550    2.2930   -2.7040 ca        1 RF7     -0.122000
     17 C17        -1.8610    1.0740   -3.1300 ca        1 RF7     -0.108000
     18 C14        -0.5120    0.7960   -3.0150 ca        1 RF7     -0.075000
     19 H3          1.7860    2.3710   -0.4020 hc        1 RF7      0.028200
     20 H4          3.2970    1.5340   -0.7820 hc        1 RF7      0.028200
     21 H5          2.0120    0.4370   -2.7210 hc        1 RF7      0.065700
     22 H6          2.2720    2.4750   -4.1530 hc        1 RF7      0.024700
     23 H7          2.4890    3.4370   -2.6840 hc        1 RF7      0.024700
     24 H8          4.9750    4.7690   -4.0520 ho        1 RF7      0.399000
     25 H9          6.7910    2.6250   -2.7050 hx        1 RF7      0.036367
     26 H10         6.9520    3.1150   -4.3980 hx        1 RF7      0.036367
     27 H11         6.5150    1.4480   -3.9960 hx        1 RF7      0.036367
     28 H12         0.5180    3.6870   -1.6090 ha        1 RF7      0.103000
     29 H13        -1.8860    4.1860   -1.8220 ha        1 RF7      0.084000
     30 H14        -3.4120    2.5120   -2.7960 ha        1 RF7      0.082000
     31 H15        -2.5290    0.3430   -3.5690 ha        1 RF7      0.084000
     32 H16        -0.1250   -0.1590   -3.3500 ha        1 RF7      0.103000
     33 H91         4.8600    2.3090   -4.5680 hn        1 RF7      0.237800
@<TRIPOS>BOND
     1    1    2 1   
     2    2    3 1   
     3    2    4 1   
     4    2    5 1   
     5    5    6 1   
     6    5   19 1   
     7    5   20 1   
     8    6    7 1   
     9    6   13 1   
    10    6   21 1   
    11    7    8 1   
    12    7   22 1   
    13    7   23 1   
    14    8    9 1   
    15    8   12 2   
    16    9   10 1   
    17    9   11 1   
    18    9   33 1   
    19   10   24 1   
    20   11   25 1   
    21   11   26 1   
    22   11   27 1   
    23   13   14 ar  
    24   13   18 ar  
    25   14   15 ar  
    26   14   28 1   
    27   15   16 ar  
    28   15   29 1   
    29   16   17 ar  
    30   16   30 1   
    31   17   18 ar  
    32   17   31 1   
    33   18   32 1   
@<TRIPOS>SUBSTRUCTURE
     1 RF7         1 TEMP              0 ****  ****    0 ROOT
