@<TRIPOS>MOLECULE
RFM
   55    59     1     0     0
SMALL
bcc


@<TRIPOS>ATOM
      1 O01        -0.0890    0.1140    0.1170 o         1 RFM     -0.564100
      2 C02         1.1510    0.0980    0.0790 c         1 RFM      0.639100
      3 N03         1.9230    0.1510    1.2440 n         1 RFM     -0.384000
      4 C04         1.2990    0.2860    2.5160 ca        1 RFM      0.018600
      5 C05         0.2240    1.1730    2.7240 ca        1 RFM     -0.109000
      6 C06        -0.3710    1.2880    3.9710 ca        1 RFM     -0.159000
      7 C07         0.0870    0.5220    5.0700 ca        1 RFM      0.064600
      8 N08        -0.5590    0.6680    6.3070 n         1 RFM     -0.469100
      9 C09        -0.1220    0.2060    7.5420 c         1 RFM      0.680700
     10 C10        -1.0160    0.5040    8.7010 ca        1 RFM     -0.148600
     11 C11        -0.4230    0.9060    9.9030 ca        1 RFM     -0.091500
     12 C12        -1.2220    1.1790   11.0130 ca        1 RFM     -0.136000
     13 C13        -2.6080    1.0400   10.9280 ca        1 RFM     -0.107000
     14 C14        -3.1960    0.6250    9.7340 ca        1 RFM     -0.136000
     15 C15        -2.4040    0.3560    8.6180 ca        1 RFM     -0.091500
     16 O16         0.9520   -0.4040    7.6960 o         1 RFM     -0.584100
     17 C17         1.1580   -0.3710    4.8590 ca        1 RFM     -0.159000
     18 C18         1.7450   -0.4890    3.6060 ca        1 RFM     -0.109000
     19 C19         3.3550    0.3540    1.1810 c3        1 RFM      0.161300
     20 C20         3.8000    1.7220    0.7910 cc        1 RFM     -0.164300
     21 C21         3.3850    2.9050    1.3710 cd        1 RFM     -0.154100
     22 S22         4.1630    4.2200    0.7100 ss        1 RFM      0.049200
     23 C23         5.0630    3.3000   -0.3540 cd        1 RFM     -0.175100
     24 C24         4.7850    1.9570   -0.2250 cc        1 RFM     -0.155000
     25 C25         1.9200   -0.0420   -1.2480 c3        1 RFM     -0.012700
     26 N26         1.1030   -0.0230   -2.4330 na        1 RFM      0.052900
     27 C27         0.6430    1.1580   -3.0710 ca        1 RFM     -0.063200
     28 C28         1.0510    2.4920   -3.0870 ca        1 RFM     -0.129000
     29 C29         0.3560    3.3540   -3.9300 ca        1 RFM     -0.097000
     30 C30        -0.7030    2.9130   -4.7390 ca        1 RFM     -0.156000
     31 C31        -1.1200    1.5850   -4.7450 ca        1 RFM     -0.044000
     32 C32        -0.4490    0.6980   -3.9040 ca        1 RFM      0.015400
     33 N33        -0.5780   -0.7070   -3.6520 nc        1 RFM     -0.198400
     34 N34         0.2750   -1.0580   -2.8020 nd        1 RFM     -0.115400
     35 H1         -0.1760    1.7630    1.8820 ha        1 RFM      0.146500
     36 H2         -1.2150    1.9850    4.0890 ha        1 RFM      0.153500
     37 H3         -1.3940    1.2130    6.2960 hn        1 RFM      0.320500
     38 H4          0.6730    0.9930    9.9640 ha        1 RFM      0.146000
     39 H5         -0.7560    1.4980   11.9570 ha        1 RFM      0.139000
     40 H6         -3.2360    1.2530   11.8060 ha        1 RFM      0.137000
     41 H7         -4.2880    0.5040    9.6710 ha        1 RFM      0.139000
     42 H8         -2.8780    0.0110    7.6870 ha        1 RFM      0.146000
     43 H9          1.5420   -0.9910    5.6870 ha        1 RFM      0.153500
     44 H10         2.5670   -1.2110    3.4790 ha        1 RFM      0.146500
     45 H11         3.7900    0.1270    2.2000 h1        1 RFM      0.064700
     46 H12         3.7900   -0.3960    0.4560 h1        1 RFM      0.064700
     47 H13         2.6420    2.9850    2.1660 h4        1 RFM      0.183000
     48 H14         5.7790    3.7320   -1.0520 h4        1 RFM      0.175000
     49 H15         5.2490    1.1560   -0.8040 ha        1 RFM      0.155000
     50 H16         2.4770   -1.0240   -1.2240 h1        1 RFM      0.095200
     51 H17         2.6590    0.8080   -1.3370 h1        1 RFM      0.095200
     52 H18         1.8800    2.8480   -2.4610 ha        1 RFM      0.142000
     53 H19         0.6450    4.4160   -3.9630 ha        1 RFM      0.135000
     54 H20        -1.2160    3.6410   -5.3860 ha        1 RFM      0.138000
     55 H21        -1.9450    1.2440   -5.3850 ha        1 RFM      0.154000
@<TRIPOS>BOND
     1    1    2 2   
     2    2    3 1   
     3    2   25 1   
     4    3    4 1   
     5    3   19 1   
     6    4    5 ar  
     7    4   18 ar  
     8    5    6 ar  
     9    5   35 1   
    10    6    7 ar  
    11    6   36 1   
    12    7    8 1   
    13    7   17 ar  
    14    8    9 1   
    15    8   37 1   
    16    9   10 1   
    17    9   16 2   
    18   10   11 ar  
    19   10   15 ar  
    20   11   12 ar  
    21   11   38 1   
    22   12   13 ar  
    23   12   39 1   
    24   13   14 ar  
    25   13   40 1   
    26   14   15 ar  
    27   14   41 1   
    28   15   42 1   
    29   17   18 ar  
    30   17   43 1   
    31   18   44 1   
    32   19   20 1   
    33   19   45 1   
    34   19   46 1   
    35   20   21 2   
    36   20   24 1   
    37   21   22 1   
    38   21   47 1   
    39   22   23 1   
    40   23   24 2   
    41   23   48 1   
    42   24   49 1   
    43   25   26 1   
    44   25   50 1   
    45   25   51 1   
    46   26   27 1   
    47   26   34 1   
    48   27   28 ar  
    49   27   32 ar  
    50   28   29 ar  
    51   28   52 1   
    52   29   30 ar  
    53   29   53 1   
    54   30   31 ar  
    55   30   54 1   
    56   31   32 ar  
    57   31   55 1   
    58   32   33 1   
    59   33   34 2   
@<TRIPOS>SUBSTRUCTURE
     1 RFM         1 TEMP              0 ****  ****    0 ROOT
