@<TRIPOS>MOLECULE
RFM
   55    59     1     0     0
SMALL
bcc


@<TRIPOS>ATOM
      1 O01        -0.0920    0.1180    0.1160 o         1 RFM     -0.564100
      2 C02         1.1490    0.1000    0.0770 c         1 RFM      0.639100
      3 N03         1.9200    0.1500    1.2420 n         1 RFM     -0.384000
      4 C04         1.2980    0.2840    2.5150 ca        1 RFM      0.018600
      5 C05         0.2240    1.1730    2.7240 ca        1 RFM     -0.109000
      6 C06        -0.3700    1.2880    3.9720 ca        1 RFM     -0.159000
      7 C07         0.0870    0.5200    5.0690 ca        1 RFM      0.064600
      8 N08        -0.5590    0.6660    6.3070 ns        1 RFM     -0.469100
      9 C09        -0.1210    0.2020    7.5410 c         1 RFM      0.680700
     10 C10        -1.0150    0.5000    8.7010 ca        1 RFM     -0.148600
     11 C11        -0.4210    0.9010    9.9030 ca        1 RFM     -0.091500
     12 C12        -1.2190    1.1740   11.0130 ca        1 RFM     -0.136000
     13 C13        -2.6050    1.0370   10.9290 ca        1 RFM     -0.107000
     14 C14        -3.1950    0.6230    9.7350 ca        1 RFM     -0.136000
     15 C15        -2.4030    0.3550    8.6180 ca        1 RFM     -0.091500
     16 O16         0.9520   -0.4090    7.6940 o         1 RFM     -0.584100
     17 C17         1.1560   -0.3750    4.8570 ca        1 RFM     -0.159000
     18 C18         1.7420   -0.4930    3.6040 ca        1 RFM     -0.109000
     19 C19         3.3520    0.3490    1.1790 c3        1 RFM      0.161300
     20 C20         3.8000    1.7170    0.7910 cc        1 RFM     -0.164300
     21 C21         3.3870    2.9000    1.3730 cd        1 RFM     -0.154100
     22 S22         4.1670    4.2150    0.7120 ss        1 RFM      0.049200
     23 C23         5.0660    3.2940   -0.3520 cd        1 RFM     -0.175100
     24 C24         4.7860    1.9520   -0.2250 cc        1 RFM     -0.155000
     25 C25         1.9160   -0.0400   -1.2500 c3        1 RFM     -0.012700
     26 N26         1.0990   -0.0180   -2.4350 na        1 RFM      0.052900
     27 C27         0.6410    1.1650   -3.0710 ca        1 RFM     -0.063200
     28 C28         1.0530    2.4980   -3.0850 ca        1 RFM     -0.129000
     29 C29         0.3600    3.3630   -3.9260 ca        1 RFM     -0.097000
     30 C30        -0.7010    2.9260   -4.7360 ca        1 RFM     -0.156000
     31 C31        -1.1210    1.5990   -4.7430 ca        1 RFM     -0.044000
     32 C32        -0.4520    0.7090   -3.9040 ca        1 RFM      0.015400
     33 N33        -0.5840   -0.6960   -3.6540 nc        1 RFM     -0.198400
     34 N34         0.2680   -1.0500   -2.8040 nd        1 RFM     -0.115400
     35 H1         -0.1750    1.7650    1.8830 ha        1 RFM      0.146500
     36 H2         -1.2130    1.9870    4.0910 ha        1 RFM      0.153500
     37 H3         -1.3930    1.2120    6.2960 hn        1 RFM      0.320500
     38 H4          0.6760    0.9860    9.9640 ha        1 RFM      0.146000
     39 H5         -0.7520    1.4920   11.9570 ha        1 RFM      0.139000
     40 H6         -3.2330    1.2500   11.8070 ha        1 RFM      0.137000
     41 H7         -4.2860    0.5040    9.6720 ha        1 RFM      0.139000
     42 H8         -2.8780    0.0100    7.6870 ha        1 RFM      0.146000
     43 H9          1.5380   -0.9970    5.6840 ha        1 RFM      0.153500
     44 H10         2.5620   -1.2170    3.4750 ha        1 RFM      0.146500
     45 H11         3.7880    0.1210    2.1970 h1        1 RFM      0.064700
     46 H12         3.7860   -0.4000    0.4530 h1        1 RFM      0.064700
     47 H13         2.6440    2.9810    2.1670 h4        1 RFM      0.183000
     48 H14         5.7820    3.7260   -1.0500 h4        1 RFM      0.175000
     49 H15         5.2490    1.1510   -0.8050 ha        1 RFM      0.155000
     50 H16         2.6570    0.8080   -1.3380 h1        1 RFM      0.095200
     51 H17         2.4700   -1.0240   -1.2270 h1        1 RFM      0.095200
     52 H18         1.8830    2.8510   -2.4590 ha        1 RFM      0.142000
     53 H19         0.6520    4.4240   -3.9580 ha        1 RFM      0.135000
     54 H20        -1.2130    3.6560   -5.3820 ha        1 RFM      0.138000
     55 H21        -1.9480    1.2610   -5.3830 ha        1 RFM      0.154000
@<TRIPOS>BOND
     1    1    2 2   
     2    2    3 1   
     3    2   25 1   
     4    3    4 1   
     5    3   19 1   
     6    4    5 ar  
     7    4   18 ar  
     8    5    6 ar  
     9    5   35 1   
    10    6    7 ar  
    11    6   36 1   
    12    7    8 1   
    13    7   17 ar  
    14    8    9 1   
    15    8   37 1   
    16    9   10 1   
    17    9   16 2   
    18   10   11 ar  
    19   10   15 ar  
    20   11   12 ar  
    21   11   38 1   
    22   12   13 ar  
    23   12   39 1   
    24   13   14 ar  
    25   13   40 1   
    26   14   15 ar  
    27   14   41 1   
    28   15   42 1   
    29   17   18 ar  
    30   17   43 1   
    31   18   44 1   
    32   19   20 1   
    33   19   45 1   
    34   19   46 1   
    35   20   21 2   
    36   20   24 1   
    37   21   22 1   
    38   21   47 1   
    39   22   23 1   
    40   23   24 2   
    41   23   48 1   
    42   24   49 1   
    43   25   26 1   
    44   25   50 1   
    45   25   51 1   
    46   26   27 1   
    47   26   34 1   
    48   27   28 ar  
    49   27   32 ar  
    50   28   29 ar  
    51   28   52 1   
    52   29   30 ar  
    53   29   53 1   
    54   30   31 ar  
    55   30   54 1   
    56   31   32 ar  
    57   31   55 1   
    58   32   33 1   
    59   33   34 2   
@<TRIPOS>SUBSTRUCTURE
     1 RFM         1 TEMP              0 ****  ****    0 ROOT
