@<TRIPOS>MOLECULE
RFN
   46    47     1     0     0
SMALL
bcc


@<TRIPOS>ATOM
      1 N1         -0.2430   -0.1220    0.1070 n         1 RFN     -0.353000
      2 C4          1.8230    0.9290    4.6700 ca        1 RFN     -0.102500
      3 C5          2.1140   -0.0260    3.6840 ca        1 RFN     -0.091800
      4 C6          3.1620   -0.9340    3.8950 ca        1 RFN     -0.102500
      5 C7          1.3390   -0.0710    2.4480 cc        1 RFN      0.096800
      6 C8         -0.0770    0.1770    2.4930 cc        1 RFN     -0.205000
      7 C10         1.1440   -0.3920    0.0130 c         1 RFN      0.703700
      8 C13        -1.2440   -1.4740   -1.7270 c3        1 RFN     -0.089400
      9 C15        -2.0890   -2.8300   -3.5530 c         1 RFN      0.569100
     10 C17        -3.0270   -0.5380   -3.2170 c3        1 RFN     -0.122100
     11 C1          3.9010   -0.8900    5.0750 ca        1 RFN     -0.128500
     12 C2          3.6090    0.0630    6.0500 ca        1 RFN     -0.102000
     13 C3          2.5710    0.9730    5.8450 ca        1 RFN     -0.128500
     14 C9         -0.8140    0.1450    1.3410 cd        1 RFN     -0.006400
     15 C11         1.9220   -0.3450    1.2420 cd        1 RFN     -0.252200
     16 O1          1.6160   -0.6620   -1.1170 o         1 RFN     -0.710500
     17 C12        -1.0420   -0.0870   -1.0960 c3        1 RFN      0.092000
     18 C14        -1.7890   -1.4160   -3.1560 c3        1 RFN     -0.241200
     19 S1         -0.6140   -0.6550   -4.3890 s6        1 RFN      1.346000
     20 C16         0.8210   -1.3530   -4.0300 c3        1 RFN     -0.461300
     21 O2         -1.1650   -1.2070   -5.5640 o         1 RFN     -0.635800
     22 O3         -0.6650    0.7100   -4.1930 o         1 RFN     -0.635800
     23 O4         -1.6290   -3.8690   -3.1090 o         1 RFN     -0.410100
     24 N2         -3.0640   -3.0280   -4.7220 n4        1 RFN     -0.465300
     25 O5         -3.4570   -4.3060   -4.9090 oh        1 RFN     -0.357300
     26 H4          1.0110    1.6550    4.5110 ha        1 RFN      0.136500
     27 H6          3.3950   -1.6890    3.1290 ha        1 RFN      0.136500
     28 H8         -0.5610    0.3840    3.4570 ha        1 RFN      0.168000
     29 H13        -0.2670   -2.0340   -1.7360 hc        1 RFN      0.085700
     30 H13A       -1.9570   -2.0610   -1.0880 hc        1 RFN      0.085700
     31 H17        -3.3950   -0.4140   -4.2670 hc        1 RFN      0.080033
     32 H17A       -2.7790    0.4910   -2.8430 hc        1 RFN      0.080033
     33 H17B       -3.8460   -0.9460   -2.5760 hc        1 RFN      0.080033
     34 H1          4.7200   -1.6090    5.2350 ha        1 RFN      0.144000
     35 H2          4.1960    0.0990    6.9810 ha        1 RFN      0.145000
     36 H3          2.3410    1.7280    6.6110 ha        1 RFN      0.144000
     37 H9         -1.9030    0.3390    1.3460 h4        1 RFN      0.156000
     38 H11         3.0000   -0.5320    1.1270 ha        1 RFN      0.177000
     39 H12        -0.5180    0.5860   -1.8390 h1        1 RFN      0.074200
     40 H12A       -2.0480    0.3600   -0.8560 h1        1 RFN      0.074200
     41 H16         0.7970   -2.4310   -3.7220 h1        1 RFN      0.179367
     42 H16A        1.3890   -0.8460   -3.1850 h1        1 RFN      0.179367
     43 H16B        1.5450   -1.3210   -4.8950 h1        1 RFN      0.179367
     44 HN2        -3.9370   -2.4920   -4.5390 hn        1 RFN      0.504300
     45 HO5        -2.7120   -4.9140   -4.6790 ho        1 RFN      0.483000
     46 H22        -2.6220   -2.6590   -5.6020 hn        1 RFN      0.504300
@<TRIPOS>BOND
     1    1    7 1   
     2    1   14 1   
     3    1   17 1   
     4    2    3 ar  
     5    2   13 ar  
     6    2   26 1   
     7    3    4 ar  
     8    3    5 1   
     9    4   11 ar  
    10    4   27 1   
    11    5    6 1   
    12    5   15 2   
    13    6   14 2   
    14    6   28 1   
    15    7   15 1   
    16    7   16 2   
    17    8   17 1   
    18    8   18 1   
    19    8   29 1   
    20    8   30 1   
    21    9   18 1   
    22    9   23 2   
    23    9   24 1   
    24   10   18 1   
    25   10   31 1   
    26   10   32 1   
    27   10   33 1   
    28   11   12 ar  
    29   11   34 1   
    30   12   13 ar  
    31   12   35 1   
    32   13   36 1   
    33   14   37 1   
    34   15   38 1   
    35   17   39 1   
    36   17   40 1   
    37   18   19 1   
    38   19   20 1   
    39   19   21 2   
    40   19   22 2   
    41   20   41 1   
    42   20   42 1   
    43   20   43 1   
    44   24   25 1   
    45   24   44 1   
    46   24   46 1   
    47   25   45 1   
@<TRIPOS>SUBSTRUCTURE
     1 RFN         1 TEMP              0 ****  ****    0 ROOT
