@<TRIPOS>MOLECULE
RFN
   46    47     1     0     0
SMALL
bcc


@<TRIPOS>ATOM
      1 N1         -0.2480   -0.1280    0.1100 n         1 RFN     -0.353000
      2 C4          1.8210    0.9290    4.6700 ca        1 RFN     -0.102500
      3 C5          2.1170   -0.0210    3.6810 ca        1 RFN     -0.091800
      4 C6          3.1730   -0.9220    3.8860 ca        1 RFN     -0.102500
      5 C7          1.3390   -0.0690    2.4460 cc        1 RFN      0.096800
      6 C8         -0.0780    0.1670    2.4950 cc        1 RFN     -0.205000
      7 C10         1.1410   -0.3850    0.0100 c         1 RFN      0.703700
      8 C13        -1.2430   -1.4830   -1.7260 c3        1 RFN     -0.089400
      9 C15        -2.0800   -2.8410   -3.5530 c         1 RFN      0.569100
     10 C17        -3.0390   -0.5600   -3.2080 c3        1 RFN     -0.122100
     11 C1          3.9150   -0.8740    5.0640 ca        1 RFN     -0.128500
     12 C2          3.6170    0.0740    6.0430 ca        1 RFN     -0.102000
     13 C3          2.5720    0.9760    5.8420 ca        1 RFN     -0.128500
     14 C9         -0.8180    0.1320    1.3460 cd        1 RFN     -0.006400
     15 C11         1.9210   -0.3350    1.2380 cd        1 RFN     -0.252200
     16 O1          1.6120   -0.6480   -1.1210 o         1 RFN     -0.710500
     17 C12        -1.0510   -0.0960   -1.0910 c3        1 RFN      0.092000
     18 C14        -1.7920   -1.4250   -3.1530 c3        1 RFN     -0.241200
     19 S1         -0.6270   -0.6500   -4.3870 s6        1 RFN      1.346000
     20 C16         0.8150   -1.3350   -4.0340 c3        1 RFN     -0.461300
     21 O2         -1.1770   -1.2040   -5.5620 o         1 RFN     -0.635800
     22 O3         -0.6910    0.7140   -4.1870 o         1 RFN     -0.635800
     23 O4         -1.6080   -3.8770   -3.1140 o         1 RFN     -0.410100
     24 N2         -3.0570   -3.0450   -4.7200 n4        1 RFN     -0.465300
     25 O5         -3.4370   -4.3260   -4.9100 oh        1 RFN     -0.357300
     26 H4          1.0040    1.6490    4.5140 ha        1 RFN      0.136500
     27 H6          3.4100   -1.6730    3.1180 ha        1 RFN      0.136500
     28 H8         -0.5620    0.3670    3.4620 ha        1 RFN      0.168000
     29 H13        -0.2600   -2.0340   -1.7390 hc        1 RFN      0.085700
     30 H13A       -1.9480   -2.0780   -1.0860 hc        1 RFN      0.085700
     31 H17        -2.8000    0.4710   -2.8310 hc        1 RFN      0.080033
     32 H17A       -3.8510   -0.9770   -2.5660 hc        1 RFN      0.080033
     33 H17B       -3.4100   -0.4350   -4.2560 hc        1 RFN      0.080033
     34 H1          4.7390   -1.5870    5.2210 ha        1 RFN      0.144000
     35 H2          4.2070    0.1120    6.9720 ha        1 RFN      0.145000
     36 H3          2.3380    1.7280    6.6110 ha        1 RFN      0.144000
     37 H9         -1.9080    0.3170    1.3540 h4        1 RFN      0.156000
     38 H11         3.0010   -0.5130    1.1200 ha        1 RFN      0.177000
     39 H12        -0.5350    0.5840   -1.8330 h1        1 RFN      0.074200
     40 H12A       -2.0600    0.3420   -0.8470 h1        1 RFN      0.074200
     41 H16         1.3800   -0.8250   -3.1900 h1        1 RFN      0.179367
     42 H16A        1.5360   -1.2940   -4.9010 h1        1 RFN      0.179367
     43 H16B        0.8020   -2.4140   -3.7280 h1        1 RFN      0.179367
     44 HN2        -2.6210   -2.6690   -5.6000 hn        1 RFN      0.504300
     45 HO5        -2.6860   -4.9280   -4.6840 ho        1 RFN      0.483000
     46 H22        -3.9340   -2.5180   -4.5330 hn        1 RFN      0.504300
@<TRIPOS>BOND
     1    1    7 1   
     2    1   14 1   
     3    1   17 1   
     4    2    3 ar  
     5    2   13 ar  
     6    2   26 1   
     7    3    4 ar  
     8    3    5 1   
     9    4   11 ar  
    10    4   27 1   
    11    5    6 1   
    12    5   15 2   
    13    6   14 2   
    14    6   28 1   
    15    7   15 1   
    16    7   16 2   
    17    8   17 1   
    18    8   18 1   
    19    8   29 1   
    20    8   30 1   
    21    9   18 1   
    22    9   23 2   
    23    9   24 1   
    24   10   18 1   
    25   10   31 1   
    26   10   32 1   
    27   10   33 1   
    28   11   12 ar  
    29   11   34 1   
    30   12   13 ar  
    31   12   35 1   
    32   13   36 1   
    33   14   37 1   
    34   15   38 1   
    35   17   39 1   
    36   17   40 1   
    37   18   19 1   
    38   19   20 1   
    39   19   21 2   
    40   19   22 2   
    41   20   41 1   
    42   20   42 1   
    43   20   43 1   
    44   24   25 1   
    45   24   44 1   
    46   24   46 1   
    47   25   45 1   
@<TRIPOS>SUBSTRUCTURE
     1 RFN         1 TEMP              0 ****  ****    0 ROOT
