@<TRIPOS>MOLECULE
RFN
   46    47     1     0     0
SMALL
bcc


@<TRIPOS>ATOM
      1 N1         -0.2480   -0.1240    0.1080 n         1 RFN     -0.353000
      2 C4          1.8160    0.9410    4.6680 ca        1 RFN     -0.102500
      3 C5          2.1130   -0.0110    3.6820 ca        1 RFN     -0.091800
      4 C6          3.1690   -0.9100    3.8900 ca        1 RFN     -0.102500
      5 C7          1.3370   -0.0610    2.4460 cc        1 RFN      0.096800
      6 C8         -0.0810    0.1740    2.4930 cc        1 RFN     -0.205000
      7 C10         1.1400   -0.3820    0.0110 c         1 RFN      0.703700
      8 C13        -1.2410   -1.4840   -1.7250 c3        1 RFN     -0.089400
      9 C15        -2.0770   -2.8460   -3.5510 c         1 RFN      0.569100
     10 C17        -3.0350   -0.5630   -3.2110 c3        1 RFN     -0.122100
     11 C1          3.9100   -0.8600    5.0680 ca        1 RFN     -0.128500
     12 C2          3.6110    0.0900    6.0450 ca        1 RFN     -0.102000
     13 C3          2.5650    0.9910    5.8420 ca        1 RFN     -0.128500
     14 C9         -0.8200    0.1370    1.3430 cd        1 RFN     -0.006400
     15 C11         1.9200   -0.3300    1.2390 cd        1 RFN     -0.252200
     16 O1          1.6130   -0.6470   -1.1190 o         1 RFN     -0.710500
     17 C12        -1.0500   -0.0960   -1.0940 c3        1 RFN      0.092000
     18 C14        -1.7890   -1.4290   -3.1540 c3        1 RFN     -0.241200
     19 S1         -0.6230   -0.6570   -4.3880 s6        1 RFN      1.346000
     20 C16         0.8190   -1.3410   -4.0320 c3        1 RFN     -0.461300
     21 O2         -1.1710   -1.2130   -5.5620 o         1 RFN     -0.635800
     22 O3         -0.6860    0.7070   -4.1910 o         1 RFN     -0.635800
     23 O4         -1.6060   -3.8810   -3.1090 o         1 RFN     -0.410100
     24 N2         -3.0520   -3.0510   -4.7190 ny        1 RFN     -0.465300
     25 O5         -3.4330   -4.3330   -4.9060 oh        1 RFN     -0.357300
     26 H4          0.9980    1.6600    4.5110 ha        1 RFN      0.136500
     27 H6          3.4070   -1.6630    3.1230 ha        1 RFN      0.136500
     28 H8         -0.5660    0.3770    3.4590 ha        1 RFN      0.168000
     29 H13        -0.2590   -2.0340   -1.7360 hc        1 RFN      0.085700
     30 H13A       -1.9470   -2.0770   -1.0860 hc        1 RFN      0.085700
     31 H17        -2.7960    0.4690   -2.8370 hc        1 RFN      0.080033
     32 H17A       -3.4060   -0.4410   -4.2600 hc        1 RFN      0.080033
     33 H17B       -3.8490   -0.9790   -2.5690 hc        1 RFN      0.080033
     34 H1          4.7350   -1.5720    5.2270 ha        1 RFN      0.144000
     35 H2          4.2000    0.1300    6.9740 ha        1 RFN      0.145000
     36 H3          2.3310    1.7440    6.6090 ha        1 RFN      0.144000
     37 H9         -1.9100    0.3220    1.3500 h4        1 RFN      0.156000
     38 H11         2.9990   -0.5070    1.1230 ha        1 RFN      0.177000
     39 H12        -2.0590    0.3430   -0.8510 h1        1 RFN      0.074200
     40 H12A       -0.5330    0.5830   -1.8370 h1        1 RFN      0.074200
     41 H16         1.3830   -0.8300   -3.1880 h1        1 RFN      0.179367
     42 H16A        1.5410   -1.3020   -4.8980 h1        1 RFN      0.179367
     43 H16B        0.8050   -2.4200   -3.7240 h1        1 RFN      0.179367
     44 HN2        -3.9290   -2.5240   -4.5340 hn        1 RFN      0.504300
     45 HO5        -2.6820   -4.9340   -4.6770 ho        1 RFN      0.483000
     46 H22        -2.6150   -2.6780   -5.5990 hn        1 RFN      0.504300
@<TRIPOS>BOND
     1    1    7 1   
     2    1   14 1   
     3    1   17 1   
     4    2    3 ar  
     5    2   13 ar  
     6    2   26 1   
     7    3    4 ar  
     8    3    5 1   
     9    4   11 ar  
    10    4   27 1   
    11    5    6 1   
    12    5   15 2   
    13    6   14 2   
    14    6   28 1   
    15    7   15 1   
    16    7   16 2   
    17    8   17 1   
    18    8   18 1   
    19    8   29 1   
    20    8   30 1   
    21    9   18 1   
    22    9   23 2   
    23    9   24 1   
    24   10   18 1   
    25   10   31 1   
    26   10   32 1   
    27   10   33 1   
    28   11   12 ar  
    29   11   34 1   
    30   12   13 ar  
    31   12   35 1   
    32   13   36 1   
    33   14   37 1   
    34   15   38 1   
    35   17   39 1   
    36   17   40 1   
    37   18   19 1   
    38   19   20 1   
    39   19   21 2   
    40   19   22 2   
    41   20   41 1   
    42   20   42 1   
    43   20   43 1   
    44   24   25 1   
    45   24   44 1   
    46   24   46 1   
    47   25   45 1   
@<TRIPOS>SUBSTRUCTURE
     1 RFN         1 TEMP              0 ****  ****    0 ROOT
