@<TRIPOS>MOLECULE
RFN
   45    46     1     0     0
SMALL
bcc


@<TRIPOS>ATOM
      1 N1          0.7660   -0.3740   -0.7510 n         1 RFN     -0.340000
      2 C4          5.8690   -0.0480   -0.9570 ca        1 RFN     -0.107500
      3 C5          4.9320    0.2340    0.0470 ca        1 RFN     -0.070800
      4 C6          5.3760    0.7210    1.2840 ca        1 RFN     -0.107500
      5 C7          3.5050    0.0210   -0.1910 cc        1 RFN      0.075800
      6 C8          2.9490    0.3520   -1.4720 cc        1 RFN     -0.238000
      7 C10         1.2580   -0.6910    0.5390 c         1 RFN      0.693700
      8 C13        -1.5520    0.4740   -0.4240 c3        1 RFN     -0.072400
      9 C15        -3.7910    1.3430    0.0500 c         1 RFN      0.602100
     10 C17        -3.4480   -0.1660   -1.9120 c3        1 RFN     -0.087100
     11 C1          6.7360    0.9240    1.5110 ca        1 RFN     -0.132500
     12 C2          7.6640    0.6390    0.5090 ca        1 RFN     -0.117000
     13 C3          7.2280    0.1510   -0.7230 ca        1 RFN     -0.132500
     14 C9          1.6130    0.1520   -1.7040 cd        1 RFN      0.012600
     15 C11         2.6840   -0.4850    0.7760 cd        1 RFN     -0.251200
     16 O1          0.4630   -1.1260    1.4000 o         1 RFN     -0.672500
     17 C12        -0.6380   -0.5840   -1.0490 c3        1 RFN      0.070000
     18 C14        -3.0380    0.1200   -0.4750 c3        1 RFN     -0.286200
     19 S1         -3.4740   -1.3250    0.4680 s6        1 RFN      1.320000
     20 C16        -2.7800   -0.9960    1.9450 c3        1 RFN     -0.409300
     21 O2         -4.8770   -1.3050    0.5690 o         1 RFN     -0.650300
     22 O3         -2.9040   -2.4500   -0.1360 o         1 RFN     -0.650300
     23 O4         -3.2030    2.2750    0.6240 o         1 RFN     -0.557100
     24 N2         -5.1800    1.4590   -0.2510 n         1 RFN     -0.341400
     25 O5         -5.8270    2.3540    0.4980 oh        1 RFN     -0.427100
     26 H4          5.5300   -0.4390   -1.9280 ha        1 RFN      0.138000
     27 H6          4.6460    0.9480    2.0760 ha        1 RFN      0.138000
     28 H8          3.5920    0.7740   -2.2540 ha        1 RFN      0.156000
     29 H13        -1.2610    0.6480    0.6490 hc        1 RFN      0.077700
     30 H13A       -1.4030    1.4510   -0.9590 hc        1 RFN      0.077700
     31 H17        -2.8620   -1.0330   -2.3100 hc        1 RFN      0.063367
     32 H17A       -4.5340   -0.4250   -1.9790 hc        1 RFN      0.063367
     33 H17B       -3.2550    0.7240   -2.5570 hc        1 RFN      0.063367
     34 H1          7.0770    1.3090    2.4830 ha        1 RFN      0.135500
     35 H2          8.7370    0.7980    0.6900 ha        1 RFN      0.135000
     36 H3          7.9580   -0.0780   -1.5140 ha        1 RFN      0.135500
     37 H9          1.1550    0.4010   -2.6790 h4        1 RFN      0.154000
     38 H11         3.0410   -0.7670    1.7760 ha        1 RFN      0.167000
     39 H12        -0.7740   -0.5820   -2.1670 h1        1 RFN      0.079700
     40 H12A       -0.9130   -1.6100   -0.6590 h1        1 RFN      0.079700
     41 H16        -2.8610    0.0740    2.2710 h1        1 RFN      0.148033
     42 H16A       -3.2450   -1.5980    2.7680 h1        1 RFN      0.148033
     43 H16B       -1.6770   -1.2350    1.9830 h1        1 RFN      0.148033
     44 HN2        -5.6860    0.5750   -0.1840 hn        1 RFN      0.336500
     45 HO5        -5.5270    3.2330    0.1890 ho        1 RFN      0.432000
@<TRIPOS>BOND
     1    1    7 1   
     2    1   14 1   
     3    1   17 1   
     4    2    3 ar  
     5    2   13 ar  
     6    2   26 1   
     7    3    4 ar  
     8    3    5 1   
     9    4   11 ar  
    10    4   27 1   
    11    5    6 1   
    12    5   15 2   
    13    6   14 2   
    14    6   28 1   
    15    7   15 1   
    16    7   16 2   
    17    8   17 1   
    18    8   18 1   
    19    8   29 1   
    20    8   30 1   
    21    9   18 1   
    22    9   23 2   
    23    9   24 1   
    24   10   18 1   
    25   10   31 1   
    26   10   32 1   
    27   10   33 1   
    28   11   12 ar  
    29   11   34 1   
    30   12   13 ar  
    31   12   35 1   
    32   13   36 1   
    33   14   37 1   
    34   15   38 1   
    35   17   39 1   
    36   17   40 1   
    37   18   19 1   
    38   19   20 1   
    39   19   21 2   
    40   19   22 2   
    41   20   41 1   
    42   20   42 1   
    43   20   43 1   
    44   24   25 1   
    45   24   44 1   
    46   25   45 1   
@<TRIPOS>SUBSTRUCTURE
     1 RFN         1 TEMP              0 ****  ****    0 ROOT
