@<TRIPOS>MOLECULE
RFW
   33    32     1     0     0
SMALL
bcc


@<TRIPOS>ATOM
      1 P           0.3190    0.1390    0.0790 p5        1 RFW      1.433800
      2 C1          8.6400   -2.3200    0.4800 c         1 RFW      0.589900
      3 O1          9.5790   -2.9450   -0.0160 o         1 RFW     -0.576100
      4 C2          7.2310   -2.8160    0.7290 c3        1 RFW     -0.033300
      5 N2          6.9300   -4.1020    0.1410 n         1 RFW     -0.508900
      6 C3          6.2410   -1.7100    0.2390 c3        1 RFW      0.068100
      7 O3          6.5400   -1.3890   -1.1020 oh        1 RFW     -0.650800
      8 C4          4.7520   -2.2230    0.3540 c3        1 RFW      0.363800
      9 O4          4.4690   -2.9780   -0.7040 o         1 RFW     -0.903500
     10 C5          3.8400   -0.9700    0.4800 c3        1 RFW      0.074100
     11 O5          4.2760   -0.2090    1.6060 oh        1 RFW     -0.646800
     12 C6          2.3700   -1.3790    0.6450 c3        1 RFW      0.168400
     13 O6          1.6080   -0.2630    1.0170 os        1 RFW     -0.605200
     14 C7          7.0850   -5.2660    0.8540 c         1 RFW      0.647100
     15 O7          7.7480   -5.3410    1.9180 o         1 RFW     -0.678100
     16 C8          6.4660   -6.5140    0.2610 c3        1 RFW     -0.171100
     17 O1P        -0.3610   -1.1050   -0.3480 o         1 RFW     -0.849000
     18 O2P        -0.3450    1.3000    0.7060 o         1 RFW     -0.849000
     19 O3P         1.1250    0.6180   -1.2620 oh        1 RFW     -0.786400
     20 H1          8.7780   -1.2610    0.8080 h4        1 RFW     -0.029800
     21 H2          7.1260   -2.8860    1.8570 h1        1 RFW      0.070700
     22 HN2         6.1670   -4.0610   -0.5290 hn        1 RFW      0.367500
     23 H3          6.4180   -0.7840    0.8440 h1        1 RFW      0.055700
     24 HO3         5.8800   -1.8570   -1.6500 ho        1 RFW      0.434000
     25 H4          4.6860   -2.7720    1.3460 h1        1 RFW     -0.060300
     26 HO4         1.3980   -0.1170   -1.7980 ho        1 RFW      0.424000
     27 H5          3.9500   -0.3300   -0.4390 h1        1 RFW      0.023700
     28 HO5         3.5330    0.3560    1.8530 ho        1 RFW      0.406000
     29 H6          2.2980   -2.1440    1.4690 h1        1 RFW      0.034700
     30 H6A         1.9840   -1.8270   -0.3090 h1        1 RFW      0.034700
     31 H8          6.6830   -7.3810    0.9290 hc        1 RFW      0.051700
     32 H8A         6.8920   -6.7160   -0.7510 hc        1 RFW      0.051700
     33 H8B         5.3600   -6.3850    0.1680 hc        1 RFW      0.051700
@<TRIPOS>BOND
     1    1   13 1   
     2    1   17 1   
     3    1   18 1   
     4    1   19 1   
     5    2    3 2   
     6    2    4 1   
     7    2   20 1   
     8    4    5 1   
     9    4    6 1   
    10    4   21 1   
    11    5   14 1   
    12    5   22 1   
    13    6    7 1   
    14    6    8 1   
    15    6   23 1   
    16    7   24 1   
    17    8    9 1   
    18    8   10 1   
    19    8   25 1   
    20   10   11 1   
    21   10   12 1   
    22   10   27 1   
    23   11   28 1   
    24   12   13 1   
    25   12   29 1   
    26   12   30 1   
    27   14   15 2   
    28   14   16 1   
    29   16   31 1   
    30   16   32 1   
    31   16   33 1   
    32   19   26 1   
@<TRIPOS>SUBSTRUCTURE
     1 RFW         1 TEMP              0 ****  ****    0 ROOT
