@<TRIPOS>MOLECULE
RFX
   41    42     1     0     0
SMALL
bcc


@<TRIPOS>ATOM
      1 F14         2.3830   -1.3500   -0.5540 f         1 RFX     -0.229300
      2 C12         3.4670   -0.5270   -0.7400 c3        1 RFX      0.689200
      3 F15         4.2090   -0.6770    0.4050 f         1 RFX     -0.229300
      4 F13         4.2060   -1.1520   -1.7140 f         1 RFX     -0.229300
      5 C9          3.0950    0.9170   -1.0620 ca        1 RFX     -0.171300
      6 C10         2.9050    1.8290   -0.0210 ca        1 RFX     -0.056000
      7 C11         2.5450    3.1440   -0.3050 ca        1 RFX     -0.155500
      8 C6          2.3830    3.5320   -1.6410 ca        1 RFX      0.120100
      9 C7          2.5820    2.6240   -2.6920 ca        1 RFX     -0.155500
     10 C8          2.9340    1.3100   -2.3930 ca        1 RFX     -0.056000
     11 O5          1.9120    4.7920   -1.9940 os        1 RFX     -0.372900
     12 C3          2.6310    5.9080   -1.4380 c3        1 RFX      0.212400
     13 C2          1.7870    7.1330   -1.8190 c3        1 RFX     -0.112400
     14 C1          0.3880    6.9870   -1.2380 c3        1 RFX      0.097800
     15 N4         -0.5580    8.0230   -1.7600 ny        1 RFX     -0.757000
     16 C22        -1.9160    7.8720   -1.1920 c3        1 RFX      0.078100
     17 C16         4.0100    6.0490   -2.0030 ca        1 RFX     -0.154300
     18 C21         4.2450    5.8510   -3.3680 ca        1 RFX     -0.108500
     19 C20         5.5310    5.9960   -3.8840 ca        1 RFX     -0.122500
     20 C19         6.5880    6.3400   -3.0400 ca        1 RFX     -0.099000
     21 C18         6.3570    6.5350   -1.6770 ca        1 RFX     -0.122500
     22 C17         5.0720    6.3880   -1.1570 ca        1 RFX     -0.108500
     23 H10         3.0440    1.5050    1.0240 ha        1 RFX      0.164500
     24 H11         2.3930    3.8580    0.5160 ha        1 RFX      0.147500
     25 H7          2.4540    2.9520   -3.7340 ha        1 RFX      0.147500
     26 H8          3.0960    0.5820   -3.2060 ha        1 RFX      0.164500
     27 H3          2.6710    5.8000   -0.3180 h1        1 RFX      0.060700
     28 H2          2.2970    8.0480   -1.4230 hc        1 RFX      0.081700
     29 H2A         1.7530    7.1980   -2.9390 hc        1 RFX      0.081700
     30 H1         -0.0290    5.9700   -1.5050 hx        1 RFX      0.117700
     31 H1A         0.4170    7.0820   -0.1150 hx        1 RFX      0.117700
     32 H22        -1.8710    7.9810   -0.0750 hx        1 RFX      0.111033
     33 H22A       -2.3210    6.8570   -1.4510 hx        1 RFX      0.111033
     34 H21         3.4110    5.5610   -4.0250 ha        1 RFX      0.134000
     35 H20         5.7140    5.8330   -4.9570 ha        1 RFX      0.148500
     36 H19         7.6050    6.4520   -3.4480 ha        1 RFX      0.151000
     37 H18         7.1920    6.7990   -1.0100 ha        1 RFX      0.148500
     38 H17         4.9000    6.5320   -0.0800 ha        1 RFX      0.134000
     39 H171       -0.6020    7.9420   -2.7840 hn        1 RFX      0.453800
     40 H181       -2.5870    8.6660   -1.6210 hx        1 RFX      0.111033
     41 H42        -0.1910    8.9560   -1.5350 hn        1 RFX      0.453800
@<TRIPOS>BOND
     1    1    2 1   
     2    2    3 1   
     3    2    4 1   
     4    2    5 1   
     5    5    6 ar  
     6    5   10 ar  
     7    6    7 ar  
     8    6   23 1   
     9    7    8 ar  
    10    7   24 1   
    11    8    9 ar  
    12    8   11 1   
    13    9   10 ar  
    14    9   25 1   
    15   10   26 1   
    16   11   12 1   
    17   12   13 1   
    18   12   17 1   
    19   12   27 1   
    20   13   14 1   
    21   13   28 1   
    22   13   29 1   
    23   14   15 1   
    24   14   30 1   
    25   14   31 1   
    26   15   16 1   
    27   15   39 1   
    28   15   41 1   
    29   16   32 1   
    30   16   33 1   
    31   16   40 1   
    32   17   18 ar  
    33   17   22 ar  
    34   18   19 ar  
    35   18   34 1   
    36   19   20 ar  
    37   19   35 1   
    38   20   21 ar  
    39   20   36 1   
    40   21   22 ar  
    41   21   37 1   
    42   22   38 1   
@<TRIPOS>SUBSTRUCTURE
     1 RFX         1 TEMP              0 ****  ****    0 ROOT
