@<TRIPOS>MOLECULE
RFX
   40    41     1     0     0
SMALL
bcc


@<TRIPOS>ATOM
      1 F14        -5.1810   -1.5110   -0.6380 f         1 RFX     -0.238300
      2 C12        -4.1540   -2.0580    0.0930 c3        1 RFX      0.690200
      3 F15        -4.5960   -1.9860    1.3920 f         1 RFX     -0.238300
      4 F13        -4.2110   -3.3980   -0.2060 f         1 RFX     -0.238300
      5 C9         -2.7980   -1.4110   -0.1520 ca        1 RFX     -0.193300
      6 C10        -2.4060   -0.3150    0.6200 ca        1 RFX     -0.059500
      7 C11        -1.1750    0.2910    0.3910 ca        1 RFX     -0.167500
      8 C6         -0.3360   -0.2140   -0.6140 ca        1 RFX      0.147100
      9 C7         -0.7280   -1.3160   -1.3930 ca        1 RFX     -0.167500
     10 C8         -1.9650   -1.9070   -1.1590 ca        1 RFX     -0.059500
     11 O5          0.8520    0.3990   -0.9640 os        1 RFX     -0.336900
     12 C3          1.7570    0.6870    0.1290 c3        1 RFX      0.192400
     13 C2          2.2760    2.1050   -0.1030 c3        1 RFX     -0.089400
     14 C1          1.1960    3.1280    0.2400 c3        1 RFX      0.160800
     15 N4          1.6130    4.4940   -0.0040 n3        1 RFX     -0.824200
     16 C22         0.6520    5.4750    0.4210 c3        1 RFX      0.153100
     17 C16         2.8820   -0.3060    0.1010 ca        1 RFX     -0.116300
     18 C21         3.4770   -0.6710   -1.1110 ca        1 RFX     -0.109500
     19 C20         4.5330   -1.5820   -1.1260 ca        1 RFX     -0.132500
     20 C19         5.0000   -2.1300    0.0690 ca        1 RFX     -0.121000
     21 C18         4.4070   -1.7700    1.2790 ca        1 RFX     -0.132500
     22 C17         3.3490   -0.8620    1.2970 ca        1 RFX     -0.109500
     23 H10        -3.0750    0.0680    1.4070 ha        1 RFX      0.152500
     24 H11        -0.8690    1.1680    0.9810 ha        1 RFX      0.153000
     25 H7         -0.0600   -1.6910   -2.1820 ha        1 RFX      0.153000
     26 H8         -2.2870   -2.7740   -1.7590 ha        1 RFX      0.152500
     27 H3          1.2170    0.6250    1.1140 h1        1 RFX      0.058700
     28 H2          3.1830    2.2580    0.5380 hc        1 RFX      0.067700
     29 H2A         2.5840    2.2120   -1.1760 hc        1 RFX      0.067700
     30 H1          0.2930    2.9260   -0.4060 h1        1 RFX      0.029700
     31 H1A         0.8780    2.9680    1.3150 h1        1 RFX      0.029700
     32 H22         0.4130    5.4310    1.5200 h1        1 RFX      0.030700
     33 H22A        1.0550    6.4950    0.1850 h1        1 RFX      0.030700
     34 H21         3.0980   -0.2380   -2.0500 ha        1 RFX      0.138000
     35 H20         4.9970   -1.8670   -2.0810 ha        1 RFX      0.134500
     36 H19         5.8330   -2.8480    0.0570 ha        1 RFX      0.133000
     37 H18         4.7720   -2.2030    2.2220 ha        1 RFX      0.134500
     38 H17         2.8810   -0.5850    2.2540 ha        1 RFX      0.138000
     39 H171        2.5100    4.6670    0.4110 hn        1 RFX      0.357800
     40 H181       -0.3020    5.3250   -0.1490 h1        1 RFX      0.030700
@<TRIPOS>BOND
     1    1    2 1   
     2    2    3 1   
     3    2    4 1   
     4    2    5 1   
     5    5    6 ar  
     6    5   10 ar  
     7    6    7 ar  
     8    6   23 1   
     9    7    8 ar  
    10    7   24 1   
    11    8    9 ar  
    12    8   11 1   
    13    9   10 ar  
    14    9   25 1   
    15   10   26 1   
    16   11   12 1   
    17   12   13 1   
    18   12   17 1   
    19   12   27 1   
    20   13   14 1   
    21   13   28 1   
    22   13   29 1   
    23   14   15 1   
    24   14   30 1   
    25   14   31 1   
    26   15   16 1   
    27   15   39 1   
    28   16   32 1   
    29   16   33 1   
    30   16   40 1   
    31   17   18 ar  
    32   17   22 ar  
    33   18   19 ar  
    34   18   34 1   
    35   19   20 ar  
    36   19   35 1   
    37   20   21 ar  
    38   20   36 1   
    39   21   22 ar  
    40   21   37 1   
    41   22   38 1   
@<TRIPOS>SUBSTRUCTURE
     1 RFX         1 TEMP              0 ****  ****    0 ROOT
