@<TRIPOS>MOLECULE
RFX
   41    42     1     0     0
SMALL
bcc


@<TRIPOS>ATOM
      1 F14         2.3890   -1.3430   -0.5170 f         1 RFX     -0.229300
      2 C12         3.4720   -0.5230   -0.7220 c3        1 RFX      0.689200
      3 F15         4.2290   -0.6680    0.4140 f         1 RFX     -0.229300
      4 F13         4.1980   -1.1540   -1.7020 f         1 RFX     -0.229300
      5 C9          3.0980    0.9200   -1.0470 ca        1 RFX     -0.171300
      6 C10         2.9250    1.8370   -0.0090 ca        1 RFX     -0.056000
      7 C11         2.5620    3.1520   -0.2950 ca        1 RFX     -0.155500
      8 C6          2.3820    3.5330   -1.6310 ca        1 RFX      0.120100
      9 C7          2.5640    2.6180   -2.6790 ca        1 RFX     -0.155500
     10 C8          2.9180    1.3060   -2.3780 ca        1 RFX     -0.056000
     11 O5          1.9070    4.7910   -1.9850 os        1 RFX     -0.372900
     12 C3          2.6350    5.9090   -1.4430 c3        1 RFX      0.212400
     13 C2          1.7870    7.1330   -1.8210 c3        1 RFX     -0.112400
     14 C1          0.3950    6.9920   -1.2220 c3        1 RFX      0.097800
     15 N4         -0.5550    8.0270   -1.7400 n4        1 RFX     -0.757000
     16 C22        -1.9070    7.8810   -1.1550 c3        1 RFX      0.078100
     17 C16         4.0070    6.0450   -2.0250 ca        1 RFX     -0.154300
     18 C21         4.2250    5.8400   -3.3920 ca        1 RFX     -0.108500
     19 C20         5.5060    5.9800   -3.9240 ca        1 RFX     -0.122500
     20 C19         6.5730    6.3280   -3.0940 ca        1 RFX     -0.099000
     21 C18         6.3580    6.5310   -1.7300 ca        1 RFX     -0.122500
     22 C17         5.0790    6.3880   -1.1940 ca        1 RFX     -0.108500
     23 H10         3.0780    1.5190    1.0360 ha        1 RFX      0.164500
     24 H11         2.4230    3.8710    0.5240 ha        1 RFX      0.147500
     25 H7          2.4220    2.9400   -3.7210 ha        1 RFX      0.147500
     26 H8          3.0680    0.5720   -3.1880 ha        1 RFX      0.164500
     27 H3          2.6880    5.8080   -0.3230 h1        1 RFX      0.060700
     28 H2          2.3030    8.0500   -1.4360 hc        1 RFX      0.081700
     29 H2A         1.7400    7.1920   -2.9420 hc        1 RFX      0.081700
     30 H1          0.4380    7.0930   -0.1010 hx        1 RFX      0.117700
     31 H1A        -0.0260    5.9740   -1.4790 hx        1 RFX      0.117700
     32 H22        -2.3160    6.8640   -1.4030 hx        1 RFX      0.111367
     33 H22A       -1.8490    7.9950   -0.0380 hx        1 RFX      0.111367
     34 H21         3.3840    5.5470   -4.0380 ha        1 RFX      0.134000
     35 H20         5.6750    5.8110   -4.9980 ha        1 RFX      0.148500
     36 H19         7.5850    6.4370   -3.5150 ha        1 RFX      0.151000
     37 H18         7.2010    6.7970   -1.0740 ha        1 RFX      0.148500
     38 H17         4.9200    6.5380   -0.1160 ha        1 RFX      0.134000
     39 H171       -0.6120    7.9400   -2.7620 hn        1 RFX      0.453800
     40 H181       -2.5820    8.6720   -1.5800 hx        1 RFX      0.111367
     41 H42        -0.1850    8.9600   -1.5240 hn        1 RFX      0.453800
@<TRIPOS>BOND
     1    1    2 1   
     2    2    3 1   
     3    2    4 1   
     4    2    5 1   
     5    5    6 ar  
     6    5   10 ar  
     7    6    7 ar  
     8    6   23 1   
     9    7    8 ar  
    10    7   24 1   
    11    8    9 ar  
    12    8   11 1   
    13    9   10 ar  
    14    9   25 1   
    15   10   26 1   
    16   11   12 1   
    17   12   13 1   
    18   12   17 1   
    19   12   27 1   
    20   13   14 1   
    21   13   28 1   
    22   13   29 1   
    23   14   15 1   
    24   14   30 1   
    25   14   31 1   
    26   15   16 1   
    27   15   39 1   
    28   15   41 1   
    29   16   32 1   
    30   16   33 1   
    31   16   40 1   
    32   17   18 ar  
    33   17   22 ar  
    34   18   19 ar  
    35   18   34 1   
    36   19   20 ar  
    37   19   35 1   
    38   20   21 ar  
    39   20   36 1   
    40   21   22 ar  
    41   21   37 1   
    42   22   38 1   
@<TRIPOS>SUBSTRUCTURE
     1 RFX         1 TEMP              0 ****  ****    0 ROOT
