@<TRIPOS>MOLECULE
RFX
   41    42     1     0     0
SMALL
bcc


@<TRIPOS>ATOM
      1 F14         2.3930   -1.3540   -0.5790 f         1 RFX     -0.229300
      2 C12         3.4770   -0.5270   -0.7560 c3        1 RFX      0.689200
      3 F15         4.2130   -0.6800    0.3930 f         1 RFX     -0.229300
      4 F13         4.2230   -1.1460   -1.7280 f         1 RFX     -0.229300
      5 C9          3.1020    0.9170   -1.0740 ca        1 RFX     -0.171300
      6 C10         2.9080    1.8250   -0.0300 ca        1 RFX     -0.056500
      7 C11         2.5450    3.1400   -0.3100 ca        1 RFX     -0.155500
      8 C6          2.3860    3.5330   -1.6450 ca        1 RFX      0.120100
      9 C7          2.5890    2.6280   -2.6990 ca        1 RFX     -0.155500
     10 C8          2.9430    1.3140   -2.4040 ca        1 RFX     -0.056500
     11 O5          1.9120    4.7920   -1.9960 os        1 RFX     -0.372900
     12 C3          2.6300    5.9080   -1.4360 c3        1 RFX      0.212400
     13 C2          1.7820    7.1330   -1.8110 c3        1 RFX     -0.112400
     14 C1          0.3850    6.9810   -1.2280 c3        1 RFX      0.097800
     15 N4         -0.5640    8.0180   -1.7450 n4        1 RFX     -0.757000
     16 C22        -1.9210    7.8620   -1.1750 c3        1 RFX      0.078100
     17 C16         4.0070    6.0540   -2.0030 ca        1 RFX     -0.154300
     18 C21         4.2400    5.8620   -3.3690 ca        1 RFX     -0.108500
     19 C20         5.5250    6.0120   -3.8870 ca        1 RFX     -0.122500
     20 C19         6.5830    6.3550   -3.0430 ca        1 RFX     -0.099000
     21 C18         6.3540    6.5440   -1.6800 ca        1 RFX     -0.122500
     22 C17         5.0700    6.3920   -1.1580 ca        1 RFX     -0.108500
     23 H10         3.0440    1.4980    1.0140 ha        1 RFX      0.164500
     24 H11         2.3900    3.8520    0.5120 ha        1 RFX      0.147500
     25 H7          2.4630    2.9590   -3.7400 ha        1 RFX      0.147500
     26 H8          3.1090    0.5890   -3.2180 ha        1 RFX      0.164500
     27 H3          2.6720    5.7960   -0.3160 h1        1 RFX      0.060700
     28 H2          2.2910    8.0480   -1.4120 hc        1 RFX      0.081700
     29 H2A         1.7460    7.2020   -2.9310 hc        1 RFX      0.081700
     30 H1          0.4160    7.0720   -0.1050 hx        1 RFX      0.117700
     31 H1A        -0.0310    5.9640   -1.4980 hx        1 RFX      0.117700
     32 H22        -2.3250    6.8460   -1.4380 hx        1 RFX      0.111033
     33 H22A       -2.5950    8.6550   -1.6000 hx        1 RFX      0.111033
     34 H21         3.4060    5.5730   -4.0260 ha        1 RFX      0.134000
     35 H20         5.7060    5.8540   -4.9610 ha        1 RFX      0.148500
     36 H19         7.5990    6.4710   -3.4530 ha        1 RFX      0.151000
     37 H18         7.1890    6.8060   -1.0120 ha        1 RFX      0.148500
     38 H17         4.9000    6.5310   -0.0800 ha        1 RFX      0.134000
     39 H171       -0.1990    8.9500   -1.5170 hn        1 RFX      0.453800
     40 H181       -1.8750    7.9660   -0.0580 hx        1 RFX      0.111033
     41 H42        -0.6100    7.9400   -2.7690 hn        1 RFX      0.453800
@<TRIPOS>BOND
     1    1    2 1   
     2    2    3 1   
     3    2    4 1   
     4    2    5 1   
     5    5    6 ar  
     6    5   10 ar  
     7    6    7 ar  
     8    6   23 1   
     9    7    8 ar  
    10    7   24 1   
    11    8    9 ar  
    12    8   11 1   
    13    9   10 ar  
    14    9   25 1   
    15   10   26 1   
    16   11   12 1   
    17   12   13 1   
    18   12   17 1   
    19   12   27 1   
    20   13   14 1   
    21   13   28 1   
    22   13   29 1   
    23   14   15 1   
    24   14   30 1   
    25   14   31 1   
    26   15   16 1   
    27   15   39 1   
    28   15   41 1   
    29   16   32 1   
    30   16   33 1   
    31   16   40 1   
    32   17   18 ar  
    33   17   22 ar  
    34   18   19 ar  
    35   18   34 1   
    36   19   20 ar  
    37   19   35 1   
    38   20   21 ar  
    39   20   36 1   
    40   21   22 ar  
    41   21   37 1   
    42   22   38 1   
@<TRIPOS>SUBSTRUCTURE
     1 RFX         1 TEMP              0 ****  ****    0 ROOT
