@<TRIPOS>MOLECULE
RFX
   40    37     1     0     0
SMALL
bcc


@<TRIPOS>ATOM
      1 F14         2.0590   -6.2590   -0.2370 f         1 RFX     -0.168000
      2 C12         1.3110   -5.7000    0.7280 c3        1 RFX      0.471000
      3 F15         0.2790   -6.5060    1.0180 f         1 RFX     -0.168000
      4 F13         2.0610   -5.5200    1.8260 f         1 RFX     -0.168000
      5 C9          0.7850   -4.3530    0.2470 c2        1 RFX     -0.201000
      6 C10        -0.5520   -4.2150   -0.0980 c1        1 RFX     -0.052000
      7 C11        -1.0370   -2.9830   -0.5250 c1        1 RFX     -0.165000
      8 C6         -0.1820   -1.8900   -0.6060 c1        1 RFX      0.115000
      9 C7          1.1540   -2.0280   -0.2620 c2        1 RFX     -0.206000
     10 C8          1.6390   -3.2620    0.1660 c2        1 RFX     -0.045000
     11 O5         -0.6590   -0.6430   -1.1650 o         1 RFX     -0.209000
     12 C3         -0.5180    0.4600   -0.3040 c3        1 RFX      0.071000
     13 C2         -1.7100    1.3970   -0.4750 c3        1 RFX     -0.162000
     14 C1         -1.9590    2.1530    0.8430 c3        1 RFX     -0.075000
     15 N4         -3.0410    3.0880    0.6660 n3        1 RFX     -0.302000
     16 C22        -3.2850    3.7840    1.9110 c3        1 RFX     -0.124000
     17 C16         0.7660    1.2050   -0.6380 c2        1 RFX     -0.118000
     18 C21         1.1690    1.3360   -1.9660 c2        1 RFX     -0.103000
     19 C20         2.3280    2.0440   -2.2750 c1        1 RFX     -0.129000
     20 C19         3.0820    2.6190   -1.2590 c1        1 RFX     -0.120000
     21 C18         2.6800    2.4890    0.0670 c1        1 RFX     -0.131000
     22 C17         1.5200    1.7800    0.3770 c2        1 RFX     -0.125000
     23 H10        -1.1550   -4.9860   -0.0420 ha        1 RFX      0.152000
     24 H11        -1.9790   -2.8860   -0.7680 ha        1 RFX      0.157000
     25 H7          1.7530   -1.2620   -0.3180 ha        1 RFX      0.153000
     26 H8          2.5790   -3.3600    0.4090 ha        1 RFX      0.151000
     27 H3         -0.4810    0.1480    0.6190 h1        1 RFX      0.100000
     28 H2         -1.5210    2.0390   -1.1900 hc        1 RFX      0.106500
     29 H2A        -2.5100    0.8720   -0.7070 hc        1 RFX      0.106500
     30 H1         -1.1490    2.6370    1.0980 h1        1 RFX      0.071500
     31 H1A        -2.1910    1.5150    1.5440 h1        1 RFX      0.071500
     32 H22        -2.4540    4.2150    2.2140 h1        1 RFX      0.070333
     33 H22A       -3.9760    4.4650    1.7750 h1        1 RFX      0.070333
     34 H21         0.6390    0.9310   -2.6810 ha        1 RFX      0.146000
     35 H20         2.6120    2.1370   -3.2090 ha        1 RFX      0.136000
     36 H19         3.9010    3.1200   -1.4780 ha        1 RFX      0.135000
     37 H18         3.2130    2.8950    0.7840 DU        1 RFX      0.135000
     38 H17         1.2380    1.6890    1.3060 ha        1 RFX      0.131000
     39 H171       -2.8180    3.6940    0.0150 hn        1 RFX      0.155000
     40 H181       -3.5880    3.1420    2.5900 h1        1 RFX      0.070333
@<TRIPOS>BOND
     1    1    2 1   
     2    2    3 1   
     3    2    4 1   
     4    2    5 1   
     5    5    6 1   
     6    5   10 1   
     7    6   23 1   
     8    7    8 1   
     9    7   24 1   
    10    8    9 1   
    11    9   10 1   
    12    9   25 1   
    13   10   26 1   
    14   11   12 1   
    15   12   13 1   
    16   12   17 1   
    17   12   27 1   
    18   13   14 1   
    19   13   28 1   
    20   13   29 1   
    21   14   15 1   
    22   14   30 1   
    23   14   31 1   
    24   15   16 1   
    25   15   39 1   
    26   16   32 1   
    27   16   33 1   
    28   16   40 1   
    29   17   18 1   
    30   17   22 1   
    31   18   19 1   
    32   18   34 1   
    33   19   35 1   
    34   20   21 1   
    35   20   36 1   
    36   21   22 1   
    37   22   38 1   
@<TRIPOS>SUBSTRUCTURE
     1 RFX         1 TEMP              0 ****  ****    0 ROOT
