@<TRIPOS>MOLECULE
RFZ
   32    34     1     0     0
SMALL
bcc


@<TRIPOS>ATOM
      1 C6          0.4510   -0.4750    0.1460 ca        1 RFZ     -0.066200
      2 C5          1.2640    0.6450   -0.0430 ca        1 RFZ     -0.125000
      3 C4          2.5910    0.4200   -0.4010 ca        1 RFZ      0.033400
      4 CL2         3.5950    1.7700   -0.6360 cl        1 RFZ     -0.068400
      5 C3          3.1020   -0.8880   -0.5660 ca        1 RFZ     -0.003600
      6 CL1         4.7270   -1.1200   -1.0050 cl        1 RFZ     -0.071400
      7 C2          2.3030   -2.0140   -0.3780 ca        1 RFZ     -0.057000
      8 C7          0.9660   -1.8250   -0.0180 ca        1 RFZ      0.072400
      9 N2         -0.0660   -2.7540    0.2420 nc        1 RFZ     -0.559100
     10 C1         -1.1420   -2.0150    0.5440 cd        1 RFZ      0.441700
     11 N1         -0.9010   -0.6240    0.4950 na        1 RFZ     -0.203300
     12 C1'        -1.8070    0.4490    0.8340 c3        1 RFZ      0.251800
     13 O4'        -3.0960   -0.0770    1.1660 os        1 RFZ     -0.411600
     14 C4'        -4.0570    0.2060    0.1380 c3        1 RFZ      0.055100
     15 C5'        -4.4580   -1.1070   -0.5350 c3        1 RFZ      0.112400
     16 O5'        -5.1550   -1.9440    0.3600 oh        1 RFZ     -0.586800
     17 C3'        -3.4340    1.2080   -0.8490 c3        1 RFZ      0.089100
     18 O3'        -4.1310    2.4380   -0.8740 oh        1 RFZ     -0.596800
     19 C2'        -2.0070    1.4810   -0.3280 c3        1 RFZ      0.121100
     20 O2'        -1.8120    2.7490    0.2560 oh        1 RFZ     -0.588800
     21 H5          0.8690    1.6640    0.0890 ha        1 RFZ      0.165000
     22 H2          2.7090   -3.0290   -0.5060 ha        1 RFZ      0.169000
     23 H1         -2.1320   -2.4060    0.8160 h5        1 RFZ      0.075800
     24 H1'        -1.4370    0.9700    1.7700 h2        1 RFZ      0.119700
     25 H4'        -4.9380    0.6520    0.6800 h1        1 RFZ      0.099700
     26 H5'        -5.1800   -0.9100   -1.3720 h1        1 RFZ      0.056200
     27 H5'A       -3.5470   -1.6320   -0.9300 h1        1 RFZ      0.056200
     28 HO5'       -4.5940   -2.0620    1.1390 ho        1 RFZ      0.412000
     29 H3'        -3.3940    0.7740   -1.8850 h1        1 RFZ      0.063700
     30 HO3'       -5.0260    2.2540   -1.1840 ho        1 RFZ      0.424000
     31 H2'        -1.2580    1.3500   -1.1550 h1        1 RFZ      0.077700
     32 HO2'       -2.3640    3.3920   -0.2100 ho        1 RFZ      0.440000
@<TRIPOS>BOND
     1    1    2 ar  
     2    1    8 ar  
     3    1   11 1   
     4    2    3 ar  
     5    2   21 1   
     6    3    4 1   
     7    3    5 ar  
     8    5    6 1   
     9    5    7 ar  
    10    7    8 ar  
    11    7   22 1   
    12    8    9 1   
    13    9   10 2   
    14   10   11 1   
    15   10   23 1   
    16   11   12 1   
    17   12   13 1   
    18   12   19 1   
    19   12   24 1   
    20   13   14 1   
    21   14   15 1   
    22   14   17 1   
    23   14   25 1   
    24   15   16 1   
    25   15   26 1   
    26   15   27 1   
    27   16   28 1   
    28   17   18 1   
    29   17   19 1   
    30   17   29 1   
    31   18   30 1   
    32   19   20 1   
    33   19   31 1   
    34   20   32 1   
@<TRIPOS>SUBSTRUCTURE
     1 RFZ         1 TEMP              0 ****  ****    0 ROOT
