@<TRIPOS>MOLECULE
RFZ
   32    34     1     0     0
SMALL
bcc


@<TRIPOS>ATOM
      1 C6         -0.0830    0.1040   -0.3040 ca        1 RFZ     -0.067200
      2 C5          1.1370   -0.5310   -0.0610 ca        1 RFZ     -0.125000
      3 C4          1.5150   -0.7080    1.2680 ca        1 RFZ      0.033400
      4 CL2         2.9950   -1.4770    1.5840 cl        1 RFZ     -0.067400
      5 C3          0.6980   -0.2640    2.3340 ca        1 RFZ     -0.002600
      6 CL1         1.1930   -0.5000    3.9430 cl        1 RFZ     -0.071400
      7 C2         -0.5200    0.3710    2.1060 ca        1 RFZ     -0.058000
      8 C7         -0.9300    0.5660    0.7830 ca        1 RFZ      0.072400
      9 N2         -2.0890    1.1700    0.2490 nc        1 RFZ     -0.559100
     10 C1         -1.9560    1.0820   -1.0810 cd        1 RFZ      0.441700
     11 N1         -0.7660    0.4350   -1.4850 na        1 RFZ     -0.201300
     12 C1'        -0.2640    0.2600   -2.8260 c3        1 RFZ      0.219800
     13 O4'        -1.2350    0.7000   -3.7810 os        1 RFZ     -0.413600
     14 C4'        -1.8130   -0.4150   -4.4780 c3        1 RFZ      0.052100
     15 C5'        -3.2310   -0.6530   -3.9580 c3        1 RFZ      0.111400
     16 O5'        -4.0890    0.4040   -4.3280 oh        1 RFZ     -0.586800
     17 C3'        -0.8940   -1.6320   -4.2750 c3        1 RFZ      0.089100
     18 O3'        -0.1410   -1.9020   -5.4420 oh        1 RFZ     -0.592800
     19 C2'         0.1030   -1.2260   -3.1670 c3        1 RFZ      0.121100
     20 O2'         1.4540   -1.3170   -3.5320 oh        1 RFZ     -0.570800
     21 H5          1.7740   -0.8780   -0.8910 ha        1 RFZ      0.169000
     22 H2         -1.1500    0.7150    2.9410 ha        1 RFZ      0.169000
     23 H1         -2.6710    1.4600   -1.8230 h5        1 RFZ      0.075800
     24 H1'         0.6350    0.9340   -2.9730 h2        1 RFZ      0.103700
     25 H4'        -1.8430   -0.0920   -5.5560 h1        1 RFZ      0.100700
     26 H5'        -3.2180   -0.7720   -2.8410 h1        1 RFZ      0.058200
     27 H5'A       -3.6750   -1.5670   -4.4360 h1        1 RFZ      0.058200
     28 HO5'       -3.6940    1.2210   -3.9960 ho        1 RFZ      0.410000
     29 H3'        -1.4800   -2.5390   -3.9690 h1        1 RFZ      0.069700
     30 HO3'       -0.7460   -2.2840   -6.0900 ho        1 RFZ      0.422000
     31 H2'         0.0040   -1.9030   -2.2730 h1        1 RFZ      0.108700
     32 HO2'        1.5540   -0.9900   -4.4380 ho        1 RFZ      0.430000
@<TRIPOS>BOND
     1    1    2 ar  
     2    1    8 ar  
     3    1   11 1   
     4    2    3 ar  
     5    2   21 1   
     6    3    4 1   
     7    3    5 ar  
     8    5    6 1   
     9    5    7 ar  
    10    7    8 ar  
    11    7   22 1   
    12    8    9 1   
    13    9   10 2   
    14   10   11 1   
    15   10   23 1   
    16   11   12 1   
    17   12   13 1   
    18   12   19 1   
    19   12   24 1   
    20   13   14 1   
    21   14   15 1   
    22   14   17 1   
    23   14   25 1   
    24   15   16 1   
    25   15   26 1   
    26   15   27 1   
    27   16   28 1   
    28   17   18 1   
    29   17   19 1   
    30   17   29 1   
    31   18   30 1   
    32   19   20 1   
    33   19   31 1   
    34   20   32 1   
@<TRIPOS>SUBSTRUCTURE
     1 RFZ         1 TEMP              0 ****  ****    0 ROOT
