@<TRIPOS>MOLECULE
RFZ
   32    34     1     0     0
SMALL
bcc


@<TRIPOS>ATOM
      1 C6         -0.0900    0.0910   -0.3220 ca        1 RFZ     -0.067200
      2 C5          1.1550   -0.4970   -0.0840 ca        1 RFZ     -0.128000
      3 C4          1.5380   -0.6740    1.2430 ca        1 RFZ      0.034400
      4 Cl2         3.0480   -1.3870    1.5500 cl        1 RFZ     -0.067400
      5 C3          0.7040   -0.2760    2.3140 ca        1 RFZ     -0.002600
      6 Cl1         1.2070   -0.5110    3.9200 cl        1 RFZ     -0.069400
      7 C2         -0.5380    0.3130    2.0920 ca        1 RFZ     -0.056000
      8 C7         -0.9540    0.5070    0.7710 ca        1 RFZ      0.074400
      9 N2         -2.1370    1.0710    0.2440 nc        1 RFZ     -0.558100
     10 C1         -2.0010    1.0040   -1.0870 cd        1 RFZ      0.443700
     11 N1         -0.7870    0.4080   -1.4980 na        1 RFZ     -0.202300
     12 C1'        -0.2780    0.2650   -2.8410 c3        1 RFZ      0.226800
     13 O4'        -1.2430    0.7150   -3.7970 os        1 RFZ     -0.417600
     14 C4'        -1.8500   -0.3920   -4.4870 c3        1 RFZ      0.087100
     15 C5'        -3.2840   -0.5680   -3.9900 c3        1 RFZ      0.113400
     16 O5'        -4.0790    0.5500   -4.3230 oh        1 RFZ     -0.585800
     17 C3'        -0.9880   -1.6390   -4.2370 c3        1 RFZ      0.088100
     18 O3'        -0.3910   -1.9920   -5.4710 oh        1 RFZ     -0.589800
     19 C2'         0.0900   -1.2090   -3.2170 c3        1 RFZ      0.072100
     20 O2'         1.3840   -1.2710   -3.7640 oh        1 RFZ     -0.580800
     21 H5          1.8070   -0.8060   -0.9150 ha        1 RFZ      0.163000
     22 H2         -1.1820    0.6220    2.9300 ha        1 RFZ      0.170000
     23 H1         -2.7320    1.3620   -1.8250 h5        1 RFZ      0.077800
     24 H1'         0.6180    0.9470   -2.9700 h2        1 RFZ      0.103700
     25 H4'        -1.8430   -0.0950   -5.5730 h1        1 RFZ      0.115700
     26 H5'        -3.7700   -1.4360   -4.5100 h1        1 RFZ      0.059200
     27 H5'A       -3.2930   -0.7300   -2.8780 h1        1 RFZ      0.059200
     28 HO5'       -3.6210    1.3360   -3.9980 ho        1 RFZ      0.409000
     29 H3'        -1.6000   -2.4930   -3.8420 h1        1 RFZ      0.070700
     30 HO3'        0.1780   -2.7550   -5.3000 ho        1 RFZ      0.423000
     31 H2'         0.1250   -1.8880   -2.3230 h1        1 RFZ      0.112700
     32 HO2'        1.3730   -0.7960   -4.6100 ho        1 RFZ      0.424000
@<TRIPOS>BOND
     1    1    2 ar  
     2    1    8 ar  
     3    1   11 1   
     4    2    3 ar  
     5    2   21 1   
     6    3    4 1   
     7    3    5 ar  
     8    5    6 1   
     9    5    7 ar  
    10    7    8 ar  
    11    7   22 1   
    12    8    9 1   
    13    9   10 2   
    14   10   11 1   
    15   10   23 1   
    16   11   12 1   
    17   12   13 1   
    18   12   19 1   
    19   12   24 1   
    20   13   14 1   
    21   14   15 1   
    22   14   17 1   
    23   14   25 1   
    24   15   16 1   
    25   15   26 1   
    26   15   27 1   
    27   16   28 1   
    28   17   18 1   
    29   17   19 1   
    30   17   29 1   
    31   18   30 1   
    32   19   20 1   
    33   19   31 1   
    34   20   32 1   
@<TRIPOS>SUBSTRUCTURE
     1 RFZ         1 TEMP              0 ****  ****    0 ROOT
