@<TRIPOS>MOLECULE
RG2
   36    38     1     0     0
SMALL
bcc


@<TRIPOS>ATOM
      1 ClAW       -0.0560   -0.2270   -0.1800 cl        1 RG2     -0.120400
      2 CAV         1.6410   -0.0900   -0.0750 ca        1 RG2      0.011400
      3 CAY         2.3280   -0.7780    0.9300 ca        1 RG2     -0.128000
      4 CAZ         3.7130   -0.6640    1.0110 ca        1 RG2     -0.111000
      5 CAU         2.3320    0.7070   -0.9900 ca        1 RG2     -0.128000
      6 CAT         3.7200    0.8100   -0.9040 ca        1 RG2     -0.111000
      7 CAS         4.4200    0.1260    0.0950 ca        1 RG2     -0.080300
      8 CAR         5.9180    0.1700    0.1950 c3        1 RG2      0.250100
      9 NAQ         6.4980    1.4240   -0.2120 nu        1 RG2     -0.844900
     10 CAP         7.8700    1.6230   -0.1290 ca        1 RG2      0.571900
     11 CAC         8.3830    3.0110   -0.3600 ca        1 RG2      0.288500
     12 CAB         7.3390    4.1350   -0.6090 c         1 RG2      0.827100
     13 OAA         7.4320    4.7900   -1.6690 o         1 RG2     -0.791800
     14 OBA         6.4480    4.2500    0.2770 o         1 RG2     -0.791800
     15 NAD         9.6680    3.2700   -0.3420 nb        1 RG2     -0.625000
     16 CAE        10.5510    2.2140   -0.1220 ca        1 RG2      0.274300
     17 CAF        11.9530    2.4510   -0.1070 ca        1 RG2     -0.143300
     18 CAG        12.8350    1.4170    0.1060 ca        1 RG2     -0.135000
     19 NAO         8.7100    0.5960    0.0990 nb        1 RG2     -0.770000
     20 CAN        10.0640    0.8810    0.0890 ca        1 RG2      0.319300
     21 CAM        11.0020   -0.1690    0.3070 ca        1 RG2     -0.127300
     22 CAH        12.3520    0.1080    0.3130 ca        1 RG2     -0.175300
     23 CAI        13.3580   -1.0050    0.5630 c3        1 RG2      0.688200
     24 FAL        14.5250   -0.9030   -0.1590 f         1 RG2     -0.249300
     25 FAJ        13.7950   -1.1010    1.8640 f         1 RG2     -0.249300
     26 FAK        12.9130   -2.2750    0.2790 f         1 RG2     -0.249300
     27 H1          1.7820   -1.4010    1.6530 ha        1 RG2      0.141000
     28 H2          4.2560   -1.1980    1.8060 ha        1 RG2      0.150000
     29 H3          1.7880    1.2560   -1.7740 ha        1 RG2      0.141000
     30 H4          4.2570    1.4410   -1.6320 ha        1 RG2      0.150000
     31 H5          6.3320   -0.6450   -0.4720 h1        1 RG2      0.052700
     32 H6          6.2200   -0.0870    1.2560 h1        1 RG2      0.052700
     33 H7          5.9460    2.2510   -0.0430 hn        1 RG2      0.476800
     34 H9         12.3240    3.4760   -0.2720 ha        1 RG2      0.149000
     35 H10        13.9200    1.5950    0.1130 ha        1 RG2      0.134000
     36 H11        10.6390   -1.1980    0.4650 ha        1 RG2      0.151000
@<TRIPOS>BOND
     1    1    2 1   
     2    2    3 ar  
     3    2    5 ar  
     4    3    4 ar  
     5    3   27 1   
     6    4    7 ar  
     7    4   28 1   
     8    5    6 ar  
     9    5   29 1   
    10    6    7 ar  
    11    6   30 1   
    12    7    8 1   
    13    8    9 1   
    14    8   31 1   
    15    8   32 1   
    16    9   10 1   
    17    9   33 1   
    18   10   11 ar  
    19   10   19 ar  
    20   11   12 1   
    21   11   15 ar  
    22   12   13 1   
    23   12   14 1   
    24   15   16 ar  
    25   16   17 ar  
    26   16   20 ar  
    27   17   18 ar  
    28   17   34 1   
    29   18   22 ar  
    30   18   35 1   
    31   19   20 ar  
    32   20   21 ar  
    33   21   22 ar  
    34   21   36 1   
    35   22   23 1   
    36   23   24 1   
    37   23   25 1   
    38   23   26 1   
@<TRIPOS>SUBSTRUCTURE
     1 RG2         1 TEMP              0 ****  ****    0 ROOT
