@<TRIPOS>MOLECULE
RG2
   36    38     1     0     0
SMALL
bcc


@<TRIPOS>ATOM
      1 CLAW       -0.0560   -0.2300   -0.1430 cl        1 RG2     -0.120400
      2 CAV         1.6410   -0.0920   -0.0440 ca        1 RG2      0.011400
      3 CAY         2.3310   -0.7700    0.9640 ca        1 RG2     -0.128000
      4 CAZ         3.7170   -0.6540    1.0400 ca        1 RG2     -0.111000
      5 CAU         2.3280    0.6960   -0.9700 ca        1 RG2     -0.128000
      6 CAT         3.7170    0.8000   -0.8900 ca        1 RG2     -0.111000
      7 CAS         4.4200    0.1260    0.1140 ca        1 RG2     -0.080300
      8 CAR         5.9190    0.1710    0.2080 c3        1 RG2      0.250100
      9 NAQ         6.4970    1.4210   -0.2130 nh        1 RG2     -0.844900
     10 CAP         7.8690    1.6210   -0.1370 ca        1 RG2      0.571900
     11 CAC         8.3820    3.0070   -0.3840 ca        1 RG2      0.288500
     12 CAB         7.3370    4.1290   -0.6400 c         1 RG2      0.827100
     13 OAA         7.4260    4.7730   -1.7070 o         1 RG2     -0.791800
     14 OBA         6.4490    4.2520    0.2480 o         1 RG2     -0.791800
     15 NAD         9.6660    3.2660   -0.3730 nb        1 RG2     -0.625000
     16 CAE        10.5500    2.2130   -0.1450 ca        1 RG2      0.274300
     17 CAF        11.9520    2.4500   -0.1380 ca        1 RG2     -0.143300
     18 CAG        12.8350    1.4180    0.0820 ca        1 RG2     -0.135000
     19 NAO         8.7100    0.5970    0.0980 nb        1 RG2     -0.770000
     20 CAN        10.0640    0.8820    0.0810 ca        1 RG2      0.319300
     21 CAM        11.0030   -0.1660    0.3050 ca        1 RG2     -0.127300
     22 CAH        12.3540    0.1110    0.3040 ca        1 RG2     -0.175300
     23 CAI        13.3600   -0.9990    0.5610 c3        1 RG2      0.688200
     24 FAL        14.5240   -0.9050   -0.1660 f         1 RG2     -0.249300
     25 FAJ        13.8030   -1.0810    1.8620 f         1 RG2     -0.249300
     26 FAK        12.9140   -2.2720    0.2930 f         1 RG2     -0.249300
     27 H1          1.7870   -1.3850    1.6960 ha        1 RG2      0.141000
     28 H2          4.2620   -1.1810    1.8380 ha        1 RG2      0.150000
     29 H3          1.7820    1.2370   -1.7580 ha        1 RG2      0.141000
     30 H4          4.2520    1.4240   -1.6260 ha        1 RG2      0.150000
     31 H5          6.2240   -0.0750    1.2700 h1        1 RG2      0.052700
     32 H6          6.3300   -0.6510   -0.4520 h1        1 RG2      0.052700
     33 H7          5.9450    2.2500   -0.0510 hn        1 RG2      0.476800
     34 H9         12.3230    3.4730   -0.3150 ha        1 RG2      0.149000
     35 H10        13.9210    1.5960    0.0830 ha        1 RG2      0.134000
     36 H11        10.6410   -1.1930    0.4750 ha        1 RG2      0.151000
@<TRIPOS>BOND
     1    1    2 1   
     2    2    3 ar  
     3    2    5 ar  
     4    3    4 ar  
     5    3   27 1   
     6    4    7 ar  
     7    4   28 1   
     8    5    6 ar  
     9    5   29 1   
    10    6    7 ar  
    11    6   30 1   
    12    7    8 1   
    13    8    9 1   
    14    8   31 1   
    15    8   32 1   
    16    9   10 1   
    17    9   33 1   
    18   10   11 ar  
    19   10   19 ar  
    20   11   12 1   
    21   11   15 ar  
    22   12   13 1   
    23   12   14 1   
    24   15   16 ar  
    25   16   17 ar  
    26   16   20 ar  
    27   17   18 ar  
    28   17   34 1   
    29   18   22 ar  
    30   18   35 1   
    31   19   20 ar  
    32   20   21 ar  
    33   21   22 ar  
    34   21   36 1   
    35   22   23 1   
    36   23   24 1   
    37   23   25 1   
    38   23   26 1   
@<TRIPOS>SUBSTRUCTURE
     1 RG2         1 TEMP              0 ****  ****    0 ROOT
