@<TRIPOS>MOLECULE
RGE
   33    32     1     0     0
SMALL
bcc


@<TRIPOS>ATOM
      1 OA2         1.9050    0.3930    3.9340 o         1 RGE     -0.787800
      2 C           1.8770    0.9500    2.8100 c         1 RGE      0.905600
      3 OA1         1.1530    1.9250    2.4750 o         1 RGE     -0.787800
      4 CA          2.8960    0.4380    1.7300 c3        1 RGE     -0.036500
      5 N           2.2180    0.4700    0.3960 nz        1 RGE     -0.827600
      6 CB          4.1400    1.3300    1.7640 c3        1 RGE     -0.087400
      7 CG          4.6520    1.5130    3.1820 c3        1 RGE     -0.092400
      8 CD          3.9540    2.6700    3.9050 c3        1 RGE      0.096800
      9 NE          3.4440    2.2990    5.2570 ny        1 RGE     -0.795000
     10 C1          2.3000    3.1870    5.7280 c2        1 RGE      0.570200
     11 NH          1.1540    3.2460    5.1850 n2        1 RGE     -0.689100
     12 C2          2.6450    3.9500    6.9810 c3        1 RGE     -0.153400
     13 S3          3.8700    5.2190    6.7440 s4        1 RGE      0.313600
     14 O4          4.9740    4.4690    6.0640 o         1 RGE     -0.548200
     15 C5          4.3730    5.4180    8.3820 c3        1 RGE     -0.146800
     16 HA          3.1770   -0.6290    1.9580 hx        1 RGE      0.115700
     17 HN1         1.6300   -0.3590    0.2930 hn        1 RGE      0.459133
     18 HN2         1.6110    1.3100    0.3800 hn        1 RGE      0.459133
     19 HB1C        3.9130    2.3340    1.3140 hc        1 RGE      0.066700
     20 HB2C        4.9520    0.8570    1.1490 hc        1 RGE      0.066700
     21 HG1C        5.7520    1.7400    3.1360 hc        1 RGE      0.083200
     22 HG2C        4.5370    0.5420    3.7360 hc        1 RGE      0.083200
     23 HD1C        3.0840    3.0420    3.2880 hx        1 RGE      0.119700
     24 HD2C        4.6820    3.5260    4.0490 hx        1 RGE      0.119700
     25 HH1N        0.8930    2.7090    4.3750 hn        1 RGE      0.505400
     26 H2A         2.9440    3.2220    7.7800 h1        1 RGE      0.126700
     27 H2B         1.7160    4.4570    7.3650 h1        1 RGE      0.126700
     28 H53C        4.9920    4.5820    8.7850 h1        1 RGE      0.108700
     29 H51C        5.0040    6.3400    8.4510 h1        1 RGE      0.108700
     30 H52C        3.5030    5.5580    9.0660 h1        1 RGE      0.108700
     31 H1          4.2250    2.3780    5.9210 hn        1 RGE      0.471800
     32 HN3         2.8940    0.5150   -0.3660 hn        1 RGE      0.459133
     33 HE3         3.1020    1.3200    5.2370 hn        1 RGE      0.471800
@<TRIPOS>BOND
     1    1    2 1   
     2    2    3 1   
     3    2    4 1   
     4    4    5 1   
     5    4    6 1   
     6    4   16 1   
     7    5   17 1   
     8    5   18 1   
     9    5   32 1   
    10    6    7 1   
    11    6   19 1   
    12    6   20 1   
    13    7    8 1   
    14    7   21 1   
    15    7   22 1   
    16    8    9 1   
    17    8   23 1   
    18    8   24 1   
    19    9   10 1   
    20    9   31 1   
    21    9   33 1   
    22   10   11 2   
    23   10   12 1   
    24   11   25 1   
    25   12   13 1   
    26   12   26 1   
    27   12   27 1   
    28   13   14 2   
    29   13   15 1   
    30   15   28 1   
    31   15   29 1   
    32   15   30 1   
@<TRIPOS>SUBSTRUCTURE
     1 RGE         1 TEMP              0 ****  ****    0 ROOT
