@<TRIPOS>MOLECULE
RGE
   33    32     1     0     0
SMALL
bcc


@<TRIPOS>ATOM
      1 OA2         1.8990    0.3940    3.9540 o         1 RGE     -0.787800
      2 C           1.8890    0.9290    2.8200 c         1 RGE      0.905600
      3 OA1         1.1750    1.9010    2.4570 o         1 RGE     -0.787800
      4 CA          2.9190    0.3920    1.7640 c3        1 RGE     -0.036500
      5 N           2.2600    0.4020    0.4200 n4        1 RGE     -0.827600
      6 CB          4.1670    1.2790    1.7970 c3        1 RGE     -0.087400
      7 CG          4.6610    1.4860    3.2180 c3        1 RGE     -0.092400
      8 CD          3.9600    2.6600    3.9100 c3        1 RGE      0.096800
      9 NE          3.4300    2.3170    5.2620 n4        1 RGE     -0.795000
     10 C1          2.2840    3.2190    5.7010 c2        1 RGE      0.570200
     11 NH          1.1460    3.2740    5.1410 n2        1 RGE     -0.689100
     12 C2          2.6160    4.0050    6.9440 c3        1 RGE     -0.153400
     13 S3          3.8510    5.2630    6.6980 s4        1 RGE      0.313600
     14 O4          4.9600    4.4950    6.0480 o         1 RGE     -0.548200
     15 C5          4.3320    5.4910    8.3390 c3        1 RGE     -0.146800
     16 HA          3.1920   -0.6720    2.0160 hx        1 RGE      0.115700
     17 HN1         1.6690   -0.4260    0.3250 hn        1 RGE      0.459133
     18 HN2         2.9460    0.4280   -0.3330 hn        1 RGE      0.459133
     19 HB1C        3.9510    2.2750    1.3250 hc        1 RGE      0.066700
     20 HB2C        4.9860    0.7900    1.2030 hc        1 RGE      0.066700
     21 HG1C        4.5340    0.5260    3.7900 hc        1 RGE      0.083200
     22 HG2C        5.7630    1.7070    3.1840 hc        1 RGE      0.083200
     23 HD1C        3.1000    3.0240    3.2750 hx        1 RGE      0.119700
     24 HD2C        4.6900    3.5150    4.0470 hx        1 RGE      0.119700
     25 HH1N        0.8930    2.7230    4.3380 hn        1 RGE      0.505400
     26 H2A         2.9010    3.2900    7.7600 h1        1 RGE      0.126700
     27 H2B         1.6850    4.5230    7.3050 h1        1 RGE      0.126700
     28 H53C        4.9420    4.6600    8.7670 h1        1 RGE      0.108700
     29 H51C        4.9670    6.4110    8.3990 h1        1 RGE      0.108700
     30 H52C        3.4540    5.6480    9.0090 h1        1 RGE      0.108700
     31 H1          4.2020    2.4050    5.9350 hn        1 RGE      0.471800
     32 HN3         1.6570    1.2440    0.3800 hn        1 RGE      0.459133
     33 HE3         3.0830    1.3390    5.2560 hn        1 RGE      0.471800
@<TRIPOS>BOND
     1    1    2 1   
     2    2    3 1   
     3    2    4 1   
     4    4    5 1   
     5    4    6 1   
     6    4   16 1   
     7    5   17 1   
     8    5   18 1   
     9    5   32 1   
    10    6    7 1   
    11    6   19 1   
    12    6   20 1   
    13    7    8 1   
    14    7   21 1   
    15    7   22 1   
    16    8    9 1   
    17    8   23 1   
    18    8   24 1   
    19    9   10 1   
    20    9   31 1   
    21    9   33 1   
    22   10   11 2   
    23   10   12 1   
    24   11   25 1   
    25   12   13 1   
    26   12   26 1   
    27   12   27 1   
    28   13   14 2   
    29   13   15 1   
    30   15   28 1   
    31   15   29 1   
    32   15   30 1   
@<TRIPOS>SUBSTRUCTURE
     1 RGE         1 TEMP              0 ****  ****    0 ROOT
