@<TRIPOS>MOLECULE
RGG
   35    35     1     0     0
SMALL
bcc


@<TRIPOS>ATOM
      1 O3'         5.6810    0.3250    0.1050 oh        1 RGG     -0.595800
      2 C3'         4.5050    0.5710   -0.6340 c3        1 RGG      0.138400
      3 C2'         3.2960   -0.1100    0.0170 c3        1 RGG      0.099100
      4 O2'         3.1420    0.4920    1.2930 oh        1 RGG     -0.610800
      5 C1'         2.0470    0.0960   -0.8410 c3        1 RGG      0.097400
      6 O1          1.0310   -0.7100   -0.2350 os        1 RGG     -0.431600
      7 C1         -0.2690   -0.4470   -0.7190 c3        1 RGG      0.311900
      8 C2         -1.1940   -1.5270   -0.1300 c3        1 RGG      0.086100
      9 O2         -0.9690   -2.7760   -0.7550 oh        1 RGG     -0.604800
     10 C3         -2.6530   -1.1410   -0.4150 c3        1 RGG      0.111100
     11 O3         -3.5450   -2.0240    0.2410 oh        1 RGG     -0.605800
     12 C4         -2.9360    0.2650    0.1430 c3        1 RGG      0.123100
     13 O4         -2.8810    0.2820    1.5580 oh        1 RGG     -0.590800
     14 C5         -1.8980    1.2600   -0.3950 c3        1 RGG      0.112100
     15 O5         -0.5510    0.8360   -0.1760 os        1 RGG     -0.441600
     16 C6         -2.0140    2.6170    0.3110 c3        1 RGG      0.142400
     17 O6         -1.1330    3.5570   -0.2630 oh        1 RGG     -0.598800
     18 HO3'        5.5160    0.6270    1.0080 ho        1 RGG      0.419000
     19 H3'         4.3210    1.6740   -0.7180 h1        1 RGG      0.052200
     20 H3'A        4.6960    0.1310   -1.6480 h1        1 RGG      0.052200
     21 H2'         3.4930   -1.2100    0.1490 h1        1 RGG      0.060700
     22 HO2'        2.3120    0.1600    1.6600 ho        1 RGG      0.426000
     23 H1'         1.7370    1.1730   -0.8390 h1        1 RGG      0.052700
     24 H1'A        2.2170   -0.2580   -1.8900 h1        1 RGG      0.052700
     25 H1         -0.3050   -0.4230   -1.8430 h2        1 RGG      0.052700
     26 H2         -1.0270   -1.6030    0.9810 h1        1 RGG      0.085700
     27 HO2        -0.0540   -3.0210   -0.5600 ho        1 RGG      0.425000
     28 H3         -2.8440   -1.1660   -1.5240 h1        1 RGG      0.058700
     29 HO3        -3.2780   -2.9210   -0.0020 ho        1 RGG      0.431000
     30 H4         -3.9630    0.5870   -0.1900 h1        1 RGG      0.058700
     31 HO4        -3.4350   -0.4490    1.8670 ho        1 RGG      0.426000
     32 H5         -2.0590    1.3780   -1.5040 h1        1 RGG      0.053700
     33 H6         -3.0420    3.0350    0.1520 h1        1 RGG      0.068700
     34 H6A        -1.8110    2.4880    1.4070 h1        1 RGG      0.068700
     35 HO6        -0.2350    3.2360   -0.1030 ho        1 RGG      0.412000
@<TRIPOS>BOND
     1    1    2 1   
     2    1   18 1   
     3    2    3 1   
     4    2   19 1   
     5    2   20 1   
     6    3    4 1   
     7    3    5 1   
     8    3   21 1   
     9    4   22 1   
    10    5    6 1   
    11    5   23 1   
    12    5   24 1   
    13    6    7 1   
    14    7    8 1   
    15    7   15 1   
    16    7   25 1   
    17    8    9 1   
    18    8   10 1   
    19    8   26 1   
    20    9   27 1   
    21   10   11 1   
    22   10   12 1   
    23   10   28 1   
    24   11   29 1   
    25   12   13 1   
    26   12   14 1   
    27   12   30 1   
    28   13   31 1   
    29   14   15 1   
    30   14   16 1   
    31   14   32 1   
    32   16   17 1   
    33   16   33 1   
    34   16   34 1   
    35   17   35 1   
@<TRIPOS>SUBSTRUCTURE
     1 RGG         1 TEMP              0 ****  ****    0 ROOT
