@<TRIPOS>MOLECULE
RGI
    9     7     1     0     0
SMALL
bcc


@<TRIPOS>ATOM
      1 C1         -0.9350    0.1920   -0.6040 c3        1 RGI      0.205100
      2 C           0.9840   -0.0520    0.9180 c1        1 RGI      0.852000
      3 O           2.1170   -0.5360    1.1760 o         1 RGI     -0.817000
      4 N           0.3460   -0.3560   -0.3120 n2        1 RGI     -0.769000
      5 OXT         0.4170    0.7020    1.7520 o         1 RGI     -0.817000
      6 H1C1       -1.2340   -0.1260   -1.4830 h1        1 RGI     -0.003300
      7 HA2        -1.5760   -0.0920    0.0820 h1        1 RGI     -0.003300
      8 HB3        -0.8770    1.1720   -0.6130 h1        1 RGI     -0.003300
      9 HA          0.7570   -0.9030   -0.9160 hn        1 RGI      0.354800
@<TRIPOS>BOND
     1    1    4 1   
     2    1    6 1   
     3    1    7 1   
     4    1    8 1   
     5    2    3 2   
     6    2    5 2   
     7    4    9 1   
@<TRIPOS>SUBSTRUCTURE
     1 RGI         1 TEMP              0 ****  ****    0 ROOT
