@<TRIPOS>MOLECULE
RGI
    9     8     1     0     0
SMALL
bcc


@<TRIPOS>ATOM
      1 C1          1.9620    0.0400    0.0000 c3        1 RGI      0.142300
      2 C          -0.5300   -0.0610    0.0000 c         1 RGI      1.014600
      3 O          -0.4810   -1.3280   -0.0000 o         1 RGI     -0.855800
      4 N           0.7000    0.6710    0.0000 n         1 RGI     -0.671900
      5 OXT        -1.5910    0.6360   -0.0000 o         1 RGI     -0.855800
      6 H1C1        2.0880   -0.6200    0.9040 h1        1 RGI     -0.012967
      7 HA2         2.0880   -0.6200   -0.9040 h1        1 RGI     -0.012967
      8 HB3         2.7900    0.8000   -0.0000 h1        1 RGI     -0.012967
      9 HA          0.6570    1.6560   -0.0000 hn        1 RGI      0.267500
@<TRIPOS>BOND
     1    1    4 1   
     2    1    6 1   
     3    1    7 1   
     4    1    8 1   
     5    2    3 1   
     6    2    4 1   
     7    2    5 1   
     8    4    9 1   
@<TRIPOS>SUBSTRUCTURE
     1 RGI         1 TEMP              0 ****  ****    0 ROOT
