@<TRIPOS>MOLECULE
RGK
   29    25     1     0     0
SMALL
bcc


@<TRIPOS>ATOM
      1 C          -2.3740    0.0150   -3.5460 c1        1 RGK      0.095000
      2 N          -3.0530    0.0320   -4.7770 n2        1 RGK     -0.339000
      3 O          -0.9460    0.0590    3.7680 o         1 RGK     -0.352000
      4 C1         -2.0710    1.2040   -2.9030 c1        1 RGK     -0.207000
      5 N1          1.1730   -0.0760    0.2190 n1        1 RGK     -0.196000
      6 C2         -1.4110    1.1820   -1.7430 c1        1 RGK     -0.034000
      7 N2         -1.0000   -0.0760    1.4630 n         1 RGK     -0.334000
      8 C3         -1.0180   -0.0730   -1.1660 c1        1 RGK     -0.121000
      9 C4         -1.3130   -1.2220   -1.7930 c1        1 RGK     -0.066000
     10 C5         -1.9870   -1.2030   -2.9790 c2        1 RGK     -0.204000
     11 C6         -0.2500   -0.1100    0.2060 c2        1 RGK      0.179000
     12 C7          1.9060   -0.0110    1.4950 c1        1 RGK      0.046000
     13 C8          3.3100   -0.0240    1.4850 c2        1 RGK     -0.126000
     14 C9          4.0210    0.0190    2.6860 c1        1 RGK     -0.095000
     15 C10         3.3350    0.0740    3.8980 c1        1 RGK     -0.107500
     16 C11         1.8910    0.0870    3.9050 c1        1 RGK     -0.107500
     17 C12         1.2000    0.0440    2.7170 c1        1 RGK     -0.172000
     18 C13        -0.3080   -0.0020    2.7040 c2        1 RGK      0.345000
     19 HN         -2.5610    0.1170   -5.5820 hn        1 RGK      0.198000
     20 HNA        -4.0210   -0.2050   -4.8100 hn        1 RGK      0.198000
     21 H1         -2.3550    2.1020   -3.3190 ha        1 RGK      0.139000
     22 H2         -1.1820    2.0720   -1.2590 ha        1 RGK      0.152000
     23 HN2        -1.8630   -0.1000    1.4500 hn        1 RGK      0.252000
     24 H4         -1.0520   -2.0480   -1.4110 ha        1 RGK      0.137000
     25 H5         -2.1960   -2.0330   -3.4280 ha        1 RGK      0.138000
     26 H8          3.8440   -0.0650    0.5400 ha        1 RGK      0.152000
     27 H9          5.0590    0.0100    2.6750 ha        1 RGK      0.136000
     28 H10         3.8280    0.1050    4.7400 ha        1 RGK      0.148500
     29 H11         1.3950    0.1260    4.7660 ha        1 RGK      0.148500
@<TRIPOS>BOND
     1    1    4 1   
     2    1   10 1   
     3    2   19 1   
     4    2   20 1   
     5    3   18 1   
     6    4   21 1   
     7    5   11 1   
     8    6    8 1   
     9    6   22 1   
    10    7   11 1   
    11    7   18 1   
    12    7   23 1   
    13    8   11 1   
    14    9   10 1   
    15    9   24 1   
    16   10   25 1   
    17   12   13 1   
    18   12   17 1   
    19   13   14 1   
    20   13   26 1   
    21   14   27 1   
    22   15   16 1   
    23   15   28 1   
    24   16   29 1   
    25   17   18 1   
@<TRIPOS>SUBSTRUCTURE
     1 RGK         1 TEMP              0 ****  ****    0 ROOT
