@<TRIPOS>MOLECULE
RGK
   29    31     1     0     0
SMALL
bcc


@<TRIPOS>ATOM
      1 C          -0.0430   -0.0480   -0.0640 ca        1 RGK      0.179600
      2 N          -0.7230   -0.1440   -1.2730 nv        1 RGK     -0.833200
      3 O           1.3990    0.6630    7.0380 o         1 RGK     -0.628500
      4 C1          1.2110    0.6070    0.0130 ca        1 RGK     -0.207000
      5 N1          3.4840   -0.1960    3.5980 nc        1 RGK     -0.622100
      6 C2          1.9250    0.6250    1.2040 ca        1 RGK     -0.049500
      7 N2          1.4540    0.3410    4.7810 ns        1 RGK     -0.494400
      8 C3          1.4090    0.0120    2.3510 ca        1 RGK     -0.205900
      9 C4          0.1720   -0.6410    2.2880 ca        1 RGK     -0.049500
     10 C5         -0.5510   -0.6700    1.1040 ca        1 RGK     -0.207000
     11 C6          2.1820    0.0440    3.6190 cd        1 RGK      0.557500
     12 C7          4.1840   -0.1530    4.8090 ca        1 RGK      0.185400
     13 C8          5.5800   -0.4040    4.8290 ca        1 RGK     -0.125000
     14 C9          6.2730   -0.3640    6.0270 ca        1 RGK     -0.095000
     15 C10         5.6190   -0.0790    7.2340 ca        1 RGK     -0.156000
     16 C11         4.2550    0.1710    7.2400 ca        1 RGK     -0.059000
     17 C12         3.5340    0.1350    6.0390 ca        1 RGK     -0.192600
     18 C13         2.0850    0.3990    6.0340 c         1 RGK      0.708100
     19 HN         -0.4770    0.5270   -1.9630 hn        1 RGK      0.404300
     20 HNA        -1.6930   -0.3460   -1.2110 hn        1 RGK      0.404300
     21 H1          1.6350    1.0950   -0.8770 ha        1 RGK      0.138500
     22 H2          2.9060    1.1260    1.2410 ha        1 RGK      0.144500
     23 HN2         0.4780    0.5260    4.7180 hn        1 RGK      0.337500
     24 H4         -0.2360   -1.1530    3.1740 ha        1 RGK      0.144500
     25 H5         -1.5180   -1.1930    1.0750 ha        1 RGK      0.138500
     26 H8          6.1040   -0.6310    3.8880 ha        1 RGK      0.152000
     27 H9          7.3560   -0.5610    6.0340 ha        1 RGK      0.136000
     28 H10         6.1900   -0.0530    8.1730 ha        1 RGK      0.139000
     29 H11         3.7190    0.3970    8.1770 ha        1 RGK      0.157000
@<TRIPOS>BOND
     1    1    2 1   
     2    1    4 ar  
     3    1   10 ar  
     4    2   19 1   
     5    2   20 1   
     6    3   18 2   
     7    4    6 ar  
     8    4   21 1   
     9    5   11 2   
    10    5   12 1   
    11    6    8 ar  
    12    6   22 1   
    13    7   11 1   
    14    7   18 1   
    15    7   23 1   
    16    8    9 ar  
    17    8   11 1   
    18    9   10 ar  
    19    9   24 1   
    20   10   25 1   
    21   12   13 ar  
    22   12   17 ar  
    23   13   14 ar  
    24   13   26 1   
    25   14   15 ar  
    26   14   27 1   
    27   15   16 ar  
    28   15   28 1   
    29   16   17 ar  
    30   16   29 1   
    31   17   18 1   
@<TRIPOS>SUBSTRUCTURE
     1 RGK         1 TEMP              0 ****  ****    0 ROOT
