@<TRIPOS>MOLECULE
RGK
   29    31     1     0     0
SMALL
bcc


@<TRIPOS>ATOM
      1 C          -4.4660    0.2260    0.0040 ca        1 RGK      0.176600
      2 N          -5.8540    0.2850   -0.0500 nh        1 RGK     -0.830200
      3 O           2.1620   -2.6710   -0.8270 o         1 RGK     -0.627500
      4 C1         -3.6720    1.2370   -0.5910 ca        1 RGK     -0.205500
      5 N1          0.5610    0.9690    0.2310 nc        1 RGK     -0.623100
      6 C2         -2.2890    1.1270   -0.6130 ca        1 RGK     -0.050000
      7 N2          0.3520   -1.3370   -0.4400 n         1 RGK     -0.494400
      8 C3         -1.6560    0.0140   -0.0470 ca        1 RGK     -0.204900
      9 C4         -2.4270   -0.9850    0.5580 ca        1 RGK     -0.050000
     10 C5         -3.8100   -0.8860    0.5900 ca        1 RGK     -0.205500
     11 C6         -0.1740   -0.0890   -0.0760 cd        1 RGK      0.557500
     12 C7          1.9540    0.8390    0.1880 ca        1 RGK      0.185400
     13 C8          2.7780    1.9480    0.5080 ca        1 RGK     -0.126000
     14 C9          4.1570    1.8210    0.4690 ca        1 RGK     -0.095000
     15 C10         4.7620    0.6060    0.1180 ca        1 RGK     -0.156000
     16 C11         3.9780   -0.4930   -0.1990 ca        1 RGK     -0.059000
     17 C12         2.5820   -0.3860   -0.1660 ca        1 RGK     -0.192600
     18 C13         1.7380   -1.5460   -0.5020 c         1 RGK      0.708100
     19 HN         -6.2410    1.1890   -0.1940 hn        1 RGK      0.402800
     20 HNA        -6.3360   -0.2690    0.6200 hn        1 RGK      0.402800
     21 H1         -4.1500    2.1170   -1.0470 ha        1 RGK      0.138500
     22 H2         -1.6870    1.9260   -1.0760 ha        1 RGK      0.144500
     23 HN2        -0.2640   -2.0820   -0.6770 hn        1 RGK      0.338500
     24 H4         -1.9430   -1.8530    1.0330 ha        1 RGK      0.144500
     25 H5         -4.3970   -1.6820    1.0720 ha        1 RGK      0.138500
     26 H8          2.3140    2.9070    0.7860 ha        1 RGK      0.152000
     27 H9          4.7890    2.6870    0.7190 ha        1 RGK      0.136000
     28 H10         5.8590    0.5280    0.0940 ha        1 RGK      0.139000
     29 H11         4.4320   -1.4580   -0.4780 ha        1 RGK      0.158000
@<TRIPOS>BOND
     1    1    2 1   
     2    1    4 ar  
     3    1   10 ar  
     4    2   19 1   
     5    2   20 1   
     6    3   18 2   
     7    4    6 ar  
     8    4   21 1   
     9    5   11 2   
    10    5   12 1   
    11    6    8 ar  
    12    6   22 1   
    13    7   11 1   
    14    7   18 1   
    15    7   23 1   
    16    8    9 ar  
    17    8   11 1   
    18    9   10 ar  
    19    9   24 1   
    20   10   25 1   
    21   12   13 ar  
    22   12   17 ar  
    23   13   14 ar  
    24   13   26 1   
    25   14   15 ar  
    26   14   27 1   
    27   15   16 ar  
    28   15   28 1   
    29   16   17 ar  
    30   16   29 1   
    31   17   18 1   
@<TRIPOS>SUBSTRUCTURE
     1 RGK         1 TEMP              0 ****  ****    0 ROOT
