@<TRIPOS>MOLECULE
RGK
   30    32     1     0     0
SMALL
bcc


@<TRIPOS>ATOM
      1 C          -0.0180   -0.0410   -0.0210 ca        1 RGK     -0.071400
      2 N          -0.7500   -0.1110   -1.2880 n4        1 RGK     -0.701000
      3 O           1.4410    0.7770    7.0610 o         1 RGK     -0.590500
      4 C1          1.2210    0.6210    0.0250 ca        1 RGK     -0.102000
      5 N1          3.4530   -0.1740    3.6050 nc        1 RGK     -0.585100
      6 C2          1.9190    0.6690    1.2290 ca        1 RGK     -0.075500
      7 N2          1.4520    0.4270    4.8120 n         1 RGK     -0.500400
      8 C3          1.3890    0.0650    2.3780 ca        1 RGK     -0.060900
      9 C4          0.1530   -0.5920    2.3200 ca        1 RGK     -0.075500
     10 C5         -0.5580   -0.6490    1.1250 ca        1 RGK     -0.102000
     11 C6          2.1630    0.1040    3.6520 cd        1 RGK      0.493500
     12 C7          4.1750   -0.1570    4.8080 ca        1 RGK      0.154400
     13 C8          5.5570   -0.4590    4.8060 ca        1 RGK     -0.106000
     14 C9          6.2680   -0.4410    5.9980 ca        1 RGK     -0.090000
     15 C10         5.6410   -0.1280    7.2090 ca        1 RGK     -0.126000
     16 C11         4.2840    0.1720    7.2350 ca        1 RGK     -0.060000
     17 C12         3.5490    0.1590    6.0450 ca        1 RGK     -0.170600
     18 C13         2.1090    0.4770    6.0600 c         1 RGK      0.712100
     19 HN         -1.7570   -0.1840   -1.1080 hn        1 RGK      0.465133
     20 HNA        -0.5650    0.7310   -1.8450 hn        1 RGK      0.465133
     21 H1          1.6540    1.1010   -0.8680 ha        1 RGK      0.162000
     22 H2          2.8990    1.1780    1.2710 ha        1 RGK      0.187000
     23 HN2         0.4860    0.6600    4.7650 hn        1 RGK      0.335500
     24 H4         -0.2630   -1.0870    3.2150 ha        1 RGK      0.187000
     25 H5         -1.5270   -1.1750    1.0990 ha        1 RGK      0.162000
     26 H8          6.0640   -0.7090    3.8610 ha        1 RGK      0.156000
     27 H9          7.3450   -0.6770    5.9900 ha        1 RGK      0.151000
     28 H10         6.2240   -0.1190    8.1440 ha        1 RGK      0.155000
     29 H11         3.7720    0.4210    8.1800 ha        1 RGK      0.169000
     30 HN3        -0.4420   -0.9370   -1.8150 hn        1 RGK      0.465133
@<TRIPOS>BOND
     1    1    2 1   
     2    1    4 ar  
     3    1   10 ar  
     4    2   19 1   
     5    2   20 1   
     6    2   30 1   
     7    3   18 2   
     8    4    6 ar  
     9    4   21 1   
    10    5   11 2   
    11    5   12 1   
    12    6    8 ar  
    13    6   22 1   
    14    7   11 1   
    15    7   18 1   
    16    7   23 1   
    17    8    9 ar  
    18    8   11 1   
    19    9   10 ar  
    20    9   24 1   
    21   10   25 1   
    22   12   13 ar  
    23   12   17 ar  
    24   13   14 ar  
    25   13   26 1   
    26   14   15 ar  
    27   14   27 1   
    28   15   16 ar  
    29   15   28 1   
    30   16   17 ar  
    31   16   29 1   
    32   17   18 1   
@<TRIPOS>SUBSTRUCTURE
     1 RGK         1 TEMP              0 ****  ****    0 ROOT
