@<TRIPOS>MOLECULE
RGK
   29    31     1     0     0
SMALL
bcc


@<TRIPOS>ATOM
      1 C          -0.0780    0.0060   -0.0410 ca        1 RGK      0.176600
      2 N          -0.8430    0.0640   -1.2010 nh        1 RGK     -0.830200
      3 O           1.4240    0.7100    7.0480 o         1 RGK     -0.627500
      4 C1          1.1870    0.6390    0.0260 ca        1 RGK     -0.205500
      5 N1          3.4720   -0.1980    3.5960 nc        1 RGK     -0.623100
      6 C2          1.9070    0.6550    1.2130 ca        1 RGK     -0.050000
      7 N2          1.4590    0.3800    4.7900 n         1 RGK     -0.494400
      8 C3          1.3920    0.0440    2.3630 ca        1 RGK     -0.204900
      9 C4          0.1500   -0.5990    2.3070 ca        1 RGK     -0.050000
     10 C5         -0.5770   -0.6250    1.1260 ca        1 RGK     -0.205500
     11 C6          2.1740    0.0670    3.6250 cd        1 RGK      0.557500
     12 C7          4.1800   -0.1630    4.8030 ca        1 RGK      0.185400
     13 C8          5.5710   -0.4380    4.8150 ca        1 RGK     -0.126000
     14 C9          6.2720   -0.4070    6.0090 ca        1 RGK     -0.095000
     15 C10         5.6310   -0.1050    7.2180 ca        1 RGK     -0.156000
     16 C11         4.2720    0.1680    7.2330 ca        1 RGK     -0.059000
     17 C12         3.5430    0.1410    6.0370 ca        1 RGK     -0.192600
     18 C13         2.0980    0.4310    6.0390 c         1 RGK      0.708100
     19 HN         -1.5540   -0.6260   -1.2840 hn        1 RGK      0.402800
     20 HNA        -0.3410    0.2450   -2.0400 hn        1 RGK      0.402800
     21 H1          1.6070    1.1300   -0.8650 ha        1 RGK      0.138500
     22 H2          2.8920    1.1480    1.2450 ha        1 RGK      0.144500
     23 HN2         0.4870    0.5870    4.7320 hn        1 RGK      0.338500
     24 H4         -0.2550   -1.1090    3.1950 ha        1 RGK      0.144500
     25 H5         -1.5510   -1.1370    1.1030 ha        1 RGK      0.138500
     26 H8          6.0860   -0.6770    3.8720 ha        1 RGK      0.152000
     27 H9          7.3530   -0.6220    6.0100 ha        1 RGK      0.136000
     28 H10         6.2090   -0.0860    8.1540 ha        1 RGK      0.139000
     29 H11         3.7460    0.4070    8.1720 ha        1 RGK      0.158000
@<TRIPOS>BOND
     1    1    2 1   
     2    1    4 ar  
     3    1   10 ar  
     4    2   19 1   
     5    2   20 1   
     6    3   18 2   
     7    4    6 ar  
     8    4   21 1   
     9    5   11 2   
    10    5   12 1   
    11    6    8 ar  
    12    6   22 1   
    13    7   11 1   
    14    7   18 1   
    15    7   23 1   
    16    8    9 ar  
    17    8   11 1   
    18    9   10 ar  
    19    9   24 1   
    20   10   25 1   
    21   12   13 ar  
    22   12   17 ar  
    23   13   14 ar  
    24   13   26 1   
    25   14   15 ar  
    26   14   27 1   
    27   15   16 ar  
    28   15   28 1   
    29   16   17 ar  
    30   16   29 1   
    31   17   18 1   
@<TRIPOS>SUBSTRUCTURE
     1 RGK         1 TEMP              0 ****  ****    0 ROOT
