@<TRIPOS>MOLECULE
RGL
   26    25     1     0     0
SMALL
bcc


@<TRIPOS>ATOM
      1 N           2.7830   -1.4570    0.5600 n3        1 RGL     -0.900800
      2 CA          2.6380   -0.3100   -0.3120 c3        1 RGL      0.051500
      3 C           3.7750    0.7090   -0.2640 c         1 RGL      0.520900
      4 O           4.7020    0.6320    0.5380 o         1 RGL     -0.497100
      5 CB          1.3310    0.4590   -0.0520 c3        1 RGL     -0.068400
      6 CG          0.1260   -0.4240   -0.2940 c3        1 RGL     -0.090400
      7 CD         -1.1510    0.3830   -0.0500 c3        1 RGL      0.015300
      8 NE         -2.3440   -0.4270   -0.2060 nh        1 RGL     -0.398100
      9 CZ         -3.6180    0.0570   -0.0080 cz        1 RGL      0.522300
     10 NH1        -3.8290    1.3760    0.3220 nh        1 RGL     -0.506200
     11 NH2        -4.6980   -0.7900   -0.1480 nh        1 RGL     -0.506200
     12 HX          3.7050    1.5240   -1.0170 h4        1 RGL      0.009200
     13 HN1         3.5680   -2.0090    0.2710 hn        1 RGL      0.367800
     14 HN2         2.9330   -1.1600    1.5060 hn        1 RGL      0.367800
     15 HA          2.6070   -0.7030   -1.3750 h1        1 RGL      0.080700
     16 HB1         1.3210    0.8420    1.0020 hc        1 RGL      0.054200
     17 HB2         1.3000    1.3440   -0.7400 hc        1 RGL      0.054200
     18 HG1         0.1460   -0.8090   -1.3480 hc        1 RGL      0.077200
     19 HG2         0.1610   -1.3110    0.3940 hc        1 RGL      0.077200
     20 HD1        -1.1230    0.8030    0.9980 h1        1 RGL      0.065700
     21 HD2        -1.1920    1.2410   -0.7830 h1        1 RGL      0.065700
     22 HE         -2.2150   -1.3930   -0.4280 hn        1 RGL      0.326700
     23 HH11       -3.0640    2.0030    0.4300 hn        1 RGL      0.327450
     24 HH12       -4.7500    1.7280    0.4580 hn        1 RGL      0.327450
     25 HH21       -5.6270   -0.4580   -0.0220 hn        1 RGL      0.327450
     26 HH22       -4.5700   -1.7470   -0.3850 hn        1 RGL      0.327450
@<TRIPOS>BOND
     1    1    2 1   
     2    1   13 1   
     3    1   14 1   
     4    2    3 1   
     5    2    5 1   
     6    2   15 1   
     7    3    4 2   
     8    3   12 1   
     9    5    6 1   
    10    5   16 1   
    11    5   17 1   
    12    6    7 1   
    13    6   18 1   
    14    6   19 1   
    15    7    8 1   
    16    7   20 1   
    17    7   21 1   
    18    8    9 2   
    19    8   22 1   
    20    9   10 1   
    21    9   11 1   
    22   10   23 1   
    23   10   24 1   
    24   11   25 1   
    25   11   26 1   
@<TRIPOS>SUBSTRUCTURE
     1 RGL         1 TEMP              0 ****  ****    0 ROOT
