@<TRIPOS>MOLECULE
RGP
   22    21     1     0     0
SMALL
bcc


@<TRIPOS>ATOM
      1 PA         -0.2100    0.7110    0.0540 p5        1 RGP      1.479800
      2 OA1         1.4040    0.8090    0.2370 oh        1 RGP     -0.794400
      3 OA2        -0.8160    1.9630    0.5340 o         1 RGP     -0.829500
      4 OA3        -0.6730   -0.6480    0.3710 o         1 RGP     -0.829500
      5 OE2        -0.1290    0.8630   -1.6180 os        1 RGP     -0.626500
      6 CD          0.0570    1.9250   -2.4070 c         1 RGP      0.732100
      7 OE1         1.2240    2.3080   -2.5980 o         1 RGP     -0.609000
      8 CG         -1.1670    2.4970   -3.0730 c3        1 RGP     -0.153400
      9 CB         -1.0250    2.6190   -4.5790 c3        1 RGP     -0.084400
     10 CA         -0.8410    4.0670   -5.0580 c3        1 RGP      0.040500
     11 C          -1.0270    4.0650   -6.6100 c         1 RGP      0.906600
     12 O          -0.0060    4.1170   -7.3560 o         1 RGP     -0.856300
     13 OXT        -2.2120    4.0060   -7.0490 o         1 RGP     -0.856300
     14 N           0.3860    4.7050   -4.6150 n3        1 RGP     -0.917800
     15 HG1        -1.3510    3.5030   -2.6090 hc        1 RGP      0.063700
     16 HG2        -2.0460    1.8460   -2.8270 hc        1 RGP      0.063700
     17 HB1        -1.9550    2.2260   -5.0680 hc        1 RGP      0.048700
     18 HB2        -0.1650    1.9960   -4.9370 hc        1 RGP      0.048700
     19 HA         -1.6890    4.6790   -4.6310 h1        1 RGP      0.035700
     20 HN1         1.0220    4.7600   -5.3930 hn        1 RGP      0.345800
     21 HN2         1.8380    1.3270   -0.4340 ho        1 RGP      0.446000
     22 HN3         0.8210    4.1530   -3.8980 hn        1 RGP      0.345800
@<TRIPOS>BOND
     1    1    2 1   
     2    1    3 1   
     3    1    4 1   
     4    1    5 1   
     5    2   21 1   
     6    5    6 1   
     7    6    7 2   
     8    6    8 1   
     9    8    9 1   
    10    8   15 1   
    11    8   16 1   
    12    9   10 1   
    13    9   17 1   
    14    9   18 1   
    15   10   11 1   
    16   10   14 1   
    17   10   19 1   
    18   11   12 1   
    19   11   13 1   
    20   14   20 1   
    21   14   22 1   
@<TRIPOS>SUBSTRUCTURE
     1 RGP         1 TEMP              0 ****  ****    0 ROOT
