@<TRIPOS>MOLECULE
RGP
   21    20     1     0     0
SMALL
bcc


@<TRIPOS>ATOM
      1 PA          3.3950   -0.0790    0.0160 p5        1 RGP      1.318900
      2 OA1         3.4710   -1.5350   -0.3380 o         1 RGP     -0.923167
      3 OA2         3.4130    0.9490   -1.0770 o         1 RGP     -0.923167
      4 OA3         4.2200    0.2970    1.2210 o         1 RGP     -0.923167
      5 OE2         1.8070    0.1520    0.7860 os        1 RGP     -0.501500
      6 CD          0.7460    0.0170    0.0350 c         1 RGP      0.661100
      7 OE1         0.8760   -0.4270   -1.1210 o         1 RGP     -0.632000
      8 CG         -0.5620    0.4690    0.6560 c3        1 RGP     -0.151400
      9 CB         -1.8040   -0.1630    0.0640 c3        1 RGP     -0.082400
     10 CA         -3.0760    0.6420    0.3880 c3        1 RGP      0.039500
     11 C          -4.3320   -0.2630    0.2020 c         1 RGP      0.909600
     12 O          -4.6900   -0.9900    1.1740 o         1 RGP     -0.871300
     13 OXT        -4.9740   -0.2210   -0.8920 o         1 RGP     -0.871300
     14 N          -3.1960    1.9040   -0.3340 n3        1 RGP     -0.913800
     15 HG1        -0.5920    1.5850    0.5330 hc        1 RGP      0.035200
     16 HG2        -0.5210    0.2620    1.7560 hc        1 RGP      0.035200
     17 HB1        -1.9350   -1.1940    0.4820 hc        1 RGP      0.049200
     18 HB2        -1.6790   -0.2680   -1.0450 hc        1 RGP      0.049200
     19 HA         -3.0330    0.9130    1.4840 h1        1 RGP      0.034700
     20 HN1        -2.3130    2.1350   -0.7500 hn        1 RGP      0.330800
     21 HN2        -3.8580    1.7820   -1.0830 hn        1 RGP      0.330800
@<TRIPOS>BOND
     1    1    2 1   
     2    1    3 1   
     3    1    4 1   
     4    1    5 1   
     5    5    6 1   
     6    6    7 2   
     7    6    8 1   
     8    8    9 1   
     9    8   15 1   
    10    8   16 1   
    11    9   10 1   
    12    9   17 1   
    13    9   18 1   
    14   10   11 1   
    15   10   14 1   
    16   10   19 1   
    17   11   12 1   
    18   11   13 1   
    19   14   20 1   
    20   14   21 1   
@<TRIPOS>SUBSTRUCTURE
     1 RGP         1 TEMP              0 ****  ****    0 ROOT
