@<TRIPOS>MOLECULE
RGP
   22    21     1     0     0
SMALL
bcc


@<TRIPOS>ATOM
      1 PA         -0.1130    0.8070    0.1010 p5        1 RGP      1.479800
      2 OA1         1.5110    0.8560    0.2060 oh        1 RGP     -0.794400
      3 OA2        -0.6540    2.0920    0.5690 o         1 RGP     -0.829500
      4 OA3        -0.6040   -0.5250    0.4810 o         1 RGP     -0.829500
      5 OE2        -0.1060    0.9060   -1.5770 os        1 RGP     -0.626500
      6 CD          0.0770    1.9380   -2.4070 c         1 RGP      0.732100
      7 OE1         1.2450    2.2760   -2.6640 o         1 RGP     -0.609000
      8 CG         -1.1580    2.5310   -3.0330 c3        1 RGP     -0.153400
      9 CB         -1.0830    2.6040   -4.5460 c3        1 RGP     -0.084400
     10 CA         -0.8760    4.0300   -5.0780 c3        1 RGP      0.040500
     11 C          -1.1350    3.9890   -6.6190 c         1 RGP      0.906600
     12 O          -0.1490    3.9860   -7.4120 o         1 RGP     -0.856300
     13 OXT        -2.3400    3.9560   -7.0010 o         1 RGP     -0.856300
     14 N           0.3900    4.6400   -4.7120 n8        1 RGP     -0.917800
     15 HG1        -1.2880    3.5560   -2.5920 hc        1 RGP      0.063700
     16 HG2        -2.0450    1.9170   -2.7260 hc        1 RGP      0.063700
     17 HB1        -2.0470    2.2280   -4.9800 hc        1 RGP      0.048700
     18 HB2        -0.2620    1.9420   -4.9250 hc        1 RGP      0.048700
     19 HA         -1.6830    4.6830   -4.6310 h1        1 RGP      0.035700
     20 HN1         0.9900    4.6510   -5.5190 hn        1 RGP      0.345800
     21 HN2         1.9290    1.3390   -0.5000 ho        1 RGP      0.446000
     22 HN3         0.8410    4.0950   -3.9990 hn        1 RGP      0.345800
@<TRIPOS>BOND
     1    1    2 1   
     2    1    3 1   
     3    1    4 1   
     4    1    5 1   
     5    2   21 1   
     6    5    6 1   
     7    6    7 2   
     8    6    8 1   
     9    8    9 1   
    10    8   15 1   
    11    8   16 1   
    12    9   10 1   
    13    9   17 1   
    14    9   18 1   
    15   10   11 1   
    16   10   14 1   
    17   10   19 1   
    18   11   12 1   
    19   11   13 1   
    20   14   20 1   
    21   14   22 1   
@<TRIPOS>SUBSTRUCTURE
     1 RGP         1 TEMP              0 ****  ****    0 ROOT
