@<TRIPOS>MOLECULE
RGP
   22    21     1     0     0
SMALL
bcc


@<TRIPOS>ATOM
      1 PA         -0.2690    0.6590    0.0260 p5        1 RGP      1.479800
      2 OA1         1.3520    0.6330    0.1670 oh        1 RGP     -0.794400
      3 OA2        -0.7650    1.9480    0.5360 o         1 RGP     -0.829500
      4 OA3        -0.8260   -0.6640    0.3420 o         1 RGP     -0.829500
      5 OE2        -0.2210    0.8260   -1.6450 os        1 RGP     -0.626500
      6 CD          0.0240    1.8810   -2.4290 c         1 RGP      0.732100
      7 OE1         1.2120    2.1760   -2.6470 o         1 RGP     -0.609000
      8 CG         -1.1690    2.5520   -3.0540 c3        1 RGP     -0.153400
      9 CB         -1.0580    2.6830   -4.5620 c3        1 RGP     -0.084400
     10 CA         -0.7780    4.1190   -5.0290 c3        1 RGP      0.040500
     11 C          -1.0040    4.1520   -6.5760 c         1 RGP      0.906600
     12 O          -0.0020    4.1390   -7.3480 o         1 RGP     -0.856300
     13 OXT        -2.2010    4.1870   -6.9830 o         1 RGP     -0.856300
     14 N           0.5040    4.6580   -4.6130 n3        1 RGP     -0.917800
     15 HG1        -1.2640    3.5630   -2.5740 hc        1 RGP      0.063700
     16 HG2        -2.0890    1.9660   -2.7920 hc        1 RGP      0.063700
     17 HB1        -2.0280    2.3670   -5.0300 hc        1 RGP      0.048700
     18 HB2        -0.2570    2.0020   -4.9500 hc        1 RGP      0.048700
     19 HA         -1.5660    4.7880   -4.5720 h1        1 RGP      0.035700
     20 HN1         1.1220    4.6760   -5.4060 hn        1 RGP      0.345800
     21 HN2         1.8070    1.1240   -0.5100 ho        1 RGP      0.446000
     22 HN3         0.9160    4.0640   -3.9140 hn        1 RGP      0.345800
@<TRIPOS>BOND
     1    1    2 1   
     2    1    3 1   
     3    1    4 1   
     4    1    5 1   
     5    2   21 1   
     6    5    6 1   
     7    6    7 2   
     8    6    8 1   
     9    8    9 1   
    10    8   15 1   
    11    8   16 1   
    12    9   10 1   
    13    9   17 1   
    14    9   18 1   
    15   10   11 1   
    16   10   14 1   
    17   10   19 1   
    18   11   12 1   
    19   11   13 1   
    20   14   20 1   
    21   14   22 1   
@<TRIPOS>SUBSTRUCTURE
     1 RGP         1 TEMP              0 ****  ****    0 ROOT
