@<TRIPOS>MOLECULE
RGS
   74    69     1     0     0
SMALL
bcc


@<TRIPOS>ATOM
      1 C1          1.7550    1.5760   -0.1020 c         1 RGS      0.926100
      2 O1A         0.7090    2.0970    0.3600 o         1 RGS     -0.814800
      3 O1B         2.7350    2.2200   -0.5670 o         1 RGS     -0.814800
      4 C2          1.8790    0.0170   -0.0870 c3        1 RGS     -0.013000
      5 N2          0.5700   -0.5960    0.3140 nz        1 RGS     -0.832100
      6 C3          2.4120   -0.5250   -1.4080 c3        1 RGS     -0.119400
      7 C4          1.7420    0.0680   -2.6440 c3        1 RGS      0.117800
      8 N4          2.5010    1.1770   -3.2800 ny        1 RGS     -0.673800
      9 C           3.5430    0.7480   -4.2730 c         1 RGS      0.484600
     10 O           3.7690   -0.4500   -4.3720 o         1 RGS     -0.444100
     11 CA          4.1870    1.8790   -5.1360 c3        1 RGS      0.183000
     12 N           5.1790    1.3990   -6.0340 n8        1 RGS     -0.905800
     13 C5          2.3380    0.2700   -8.4590 c1        1 RGS      0.551600
     14 O5          2.5610    0.5980   -7.3250 o         1 RGS     -0.515000
     15 C6          2.0920   -0.0840   -9.6870 c2        1 RGS     -0.440600
     16 C7          7.2060    5.7550   -6.7540 c1        1 RGS      0.890500
     17 O7A         6.4990    5.3670   -5.8730 o         1 RGS     -0.445250
     18 O7B         7.9050    6.1410   -7.6290 o         1 RGS     -0.445250
     19 CB          4.6780    2.9970   -4.2150 c3        1 RGS     -0.071300
     20 SG          5.5210    2.2130   -2.8630 ss        1 RGS     -0.138100
     21 SG'         6.5050    3.6610   -1.7200 ss        1 RGS     -0.138100
     22 CB'         5.5190    3.9210   -0.2840 c3        1 RGS     -0.071300
     23 CA'         5.0850    5.3720   -0.0530 c3        1 RGS      0.183000
     24 N'          6.1490    6.3010   -0.2390 n8        1 RGS     -0.905800
     25 C5'         2.8490    6.3900    3.3230 c1        1 RGS      0.551600
     26 O5'         2.7700    5.9840    2.1910 o         1 RGS     -0.515000
     27 C6'         2.9340    6.8300    4.5420 c2        1 RGS     -0.440600
     28 C7'         2.6510    4.7860    8.5370 c1        1 RGS      0.890500
     29 O11         2.6050    4.9570    7.3570 o         1 RGS     -0.445250
     30 O12         2.6960    4.6110    9.7090 o         1 RGS     -0.445250
     31 C'          3.8300    5.6990   -0.9100 c         1 RGS      0.484600
     32 O'          3.7710    6.5220   -1.8120 o         1 RGS     -0.444100
     33 N4'         2.5600    4.9740   -0.5560 ny        1 RGS     -0.673800
     34 C4'         1.3540    5.8430   -0.6240 c3        1 RGS      0.117800
     35 C3'         0.0420    5.0790   -0.7690 c3        1 RGS     -0.119400
     36 C2'        -0.3210    4.8480   -2.2390 c3        1 RGS     -0.013000
     37 N2'        -1.7830    4.5660   -2.4200 nz        1 RGS     -0.832100
     38 C1'         0.5020    3.6520   -2.8080 c         1 RGS      0.926100
     39 O13        -0.0780    2.5470   -2.9990 o         1 RGS     -0.814800
     40 O14         1.7260    3.8430   -3.0430 o         1 RGS     -0.814800
     41 H2          2.6200   -0.2330    0.7310 hx        1 RGS      0.121700
     42 HN21        0.0200   -0.8340   -0.5130 hn        1 RGS      0.463633
     43 HN22        0.7160   -1.4350    0.8770 hn        1 RGS      0.463633
     44 H31         3.5200   -0.3150   -1.4120 hc        1 RGS      0.104700
     45 H32         2.3060   -1.6430   -1.4510 hc        1 RGS      0.104700
     46 H41         0.7250    0.4910   -2.3860 hx        1 RGS      0.112200
     47 H42         1.6110   -0.7440   -3.4180 hx        1 RGS      0.112200
     48 HN4         2.9720    1.7520   -2.5460 hn        1 RGS      0.494550
     49 HA          3.3250    2.2810   -5.7640 h1        1 RGS      0.118700
     50 HN          4.8190    0.7430   -6.6970 hn        1 RGS      0.405300
     51 H61         1.8710   -1.1250   -9.9560 ha        1 RGS      0.203500
     52 H62         2.1060    0.6420  -10.5120 ha        1 RGS      0.203500
     53 HB1         5.3610    3.6870   -4.7800 h1        1 RGS      0.123700
     54 HB2         3.8100    3.6040   -3.8570 h1        1 RGS      0.123700
     55 HB'1        4.6410    3.2290   -0.2390 h1        1 RGS      0.123700
     56 HB'2        6.1990    3.6440    0.5720 h1        1 RGS      0.123700
     57 HA'         4.7330    5.4670    1.0270 h1        1 RGS      0.118700
     58 HN'         5.8950    7.2460   -0.0440 hn        1 RGS      0.405300
     59 H6'1        3.1750    7.8800    4.7660 ha        1 RGS      0.203500
     60 H6'2        2.7760    6.1720    5.4120 ha        1 RGS      0.203500
     61 HN4'        2.4530    4.1690   -1.2170 hn        1 RGS      0.494550
     62 H4'1        1.3260    6.4400    0.3360 hx        1 RGS      0.112200
     63 H4'2        1.4880    6.5570   -1.4890 hx        1 RGS      0.112200
     64 H3'1        0.0850    4.0880   -0.2290 hc        1 RGS      0.104700
     65 H3'2       -0.7440    5.7050   -0.2640 hc        1 RGS      0.104700
     66 H2'        -0.0760    5.7680   -2.8490 hx        1 RGS      0.121700
     67 H2'1       -2.3420    5.0060   -1.6870 hn        1 RGS      0.463633
     68 H2'2       -1.9120    3.5380   -2.3930 hn        1 RGS      0.463633
     69 H23         0.0490    0.1150    0.8630 hn        1 RGS      0.463633
     70 H421        1.8230    1.8090   -3.7550 hn        1 RGS      0.494550
     71 H21         6.0140    1.0770   -5.5900 hn        1 RGS      0.405300
     72 H'2         6.6200    6.2100   -1.1170 hn        1 RGS      0.405300
     73 H4'3        2.6420    4.5680    0.3860 hn        1 RGS      0.494550
     74 H2'3       -2.0880    4.9040   -3.3360 hn        1 RGS      0.463633
@<TRIPOS>BOND
     1    1    2 1   
     2    1    3 1   
     3    1    4 1   
     4    4    5 1   
     5    4    6 1   
     6    4   41 1   
     7    5   42 1   
     8    5   43 1   
     9    5   69 1   
    10    6    7 1   
    11    6   44 1   
    12    6   45 1   
    13    7    8 1   
    14    7   46 1   
    15    7   47 1   
    16    8    9 1   
    17    8   48 1   
    18    8   70 1   
    19    9   10 2   
    20    9   11 1   
    21   11   12 1   
    22   11   19 1   
    23   11   49 1   
    24   12   50 1   
    25   12   71 1   
    26   13   14 2   
    27   13   15 2   
    28   15   51 1   
    29   15   52 1   
    30   16   17 2   
    31   16   18 2   
    32   19   20 1   
    33   19   53 1   
    34   19   54 1   
    35   20   21 1   
    36   21   22 1   
    37   22   23 1   
    38   22   55 1   
    39   22   56 1   
    40   23   24 1   
    41   23   31 1   
    42   23   57 1   
    43   24   58 1   
    44   24   72 1   
    45   25   26 2   
    46   25   27 2   
    47   27   59 1   
    48   27   60 1   
    49   28   29 2   
    50   28   30 2   
    51   31   32 2   
    52   31   33 1   
    53   33   34 1   
    54   33   61 1   
    55   33   73 1   
    56   34   35 1   
    57   34   62 1   
    58   34   63 1   
    59   35   36 1   
    60   35   64 1   
    61   35   65 1   
    62   36   37 1   
    63   36   38 1   
    64   36   66 1   
    65   37   67 1   
    66   37   68 1   
    67   37   74 1   
    68   38   39 1   
    69   38   40 1   
@<TRIPOS>SUBSTRUCTURE
     1 RGS         1 TEMP              0 ****  ****    0 ROOT
