@<TRIPOS>MOLECULE
RGS
   68    66     1     0     0
SMALL
bcc


@<TRIPOS>ATOM
      1 C1         -4.5270   -9.0550    2.1540 c1        1 RGS      0.308000
      2 O1A        -4.8990   -8.9410    3.3520 o         1 RGS     -0.606000
      3 O1B        -5.3610   -9.3740    1.2640 os        1 RGS     -0.573000
      4 C2         -3.0660   -8.9060    1.8000 c3        1 RGS     -0.117000
      5 N2         -2.2970   -9.8120    2.5760 n3        1 RGS     -0.330000
      6 C3         -2.6170   -7.4830    2.0890 c3        1 RGS     -0.160000
      7 C4         -2.4290   -6.7280    0.7680 c3        1 RGS     -0.025000
      8 N4         -1.5890   -5.5680    0.9890 n         1 RGS     -0.363000
      9 C          -1.4890   -4.5490   -0.0230 c2        1 RGS      0.281000
     10 O          -2.3490   -4.4490   -0.8690 o         1 RGS     -0.413000
     11 CA         -0.3280   -3.5650    0.0000 c3        1 RGS      0.032000
     12 N           0.5220   -3.8090   -1.1100 n         1 RGS     -0.367000
     13 C5          1.7860   -4.4440   -0.9140 c2        1 RGS      0.326000
     14 O5          2.2500   -4.5430    0.2050 o         1 RGS     -0.454000
     15 C6          2.5400   -5.0170   -2.1020 c3        1 RGS     -0.246000
     16 C7          3.8680   -5.5770   -1.6340 c2        1 RGS      0.337000
     17 O7A         4.8760   -4.8260   -1.5560 o         1 RGS     -0.577500
     18 O7B         3.9680   -6.7980   -1.3440 o         1 RGS     -0.577500
     19 CB         -0.8630   -2.1510   -0.0740 c3        1 RGS     -0.267000
     20 SG          0.4990   -0.9920   -0.0010 ss        1 RGS     -0.017000
     21 SG'        -0.1890    0.9050   -0.4230 ss        1 RGS     -0.017000
     22 CB'         0.9970    2.1120    0.1550 c3        1 RGS     -0.267000
     23 CA'         0.6360    3.4810   -0.3950 c3        1 RGS      0.032000
     24 N'          0.9860    3.5460   -1.7720 n         1 RGS     -0.367000
     25 C5'        -0.0030    3.9030   -2.7460 c2        1 RGS      0.326000
     26 O5'        -1.1840    3.8230   -2.4710 o         1 RGS     -0.454000
     27 C6'         0.4260    4.3990   -4.1190 c3        1 RGS     -0.246000
     28 C7'        -0.7790    4.4360   -5.0440 c2        1 RGS      0.337000
     29 O11        -1.6390    5.3510   -4.9220 o         1 RGS     -0.577500
     30 O12        -0.8840    3.5930   -5.9750 o         1 RGS     -0.577500
     31 C'          1.3930    4.5480    0.3690 c2        1 RGS      0.281000
     32 O'          2.5520    4.3620    0.6850 o         1 RGS     -0.413000
     33 N4'         0.7600    5.7910    0.6790 n         1 RGS     -0.363000
     34 C4'         1.4940    6.8210    1.3550 c3        1 RGS     -0.025000
     35 C3'         0.7060    8.1200    1.3080 c3        1 RGS     -0.160000
     36 C2'         1.5870    9.2640    1.7690 c3        1 RGS     -0.117000
     37 N2'         1.9700   10.0460    0.6500 n3        1 RGS     -0.330000
     38 C1'         0.8230   10.1250    2.7470 c2        1 RGS      0.308000
     39 O13         1.2320   10.2490    3.9330 o         1 RGS     -0.589500
     40 O14        -0.2170   10.7280    2.3750 o         1 RGS     -0.589500
     41 H2         -2.9400   -9.1010    0.8510 h1        1 RGS      0.083000
     42 HN21       -2.8370  -10.4880    2.8820 hn        1 RGS      0.125500
     43 HN22       -1.6290  -10.1660    2.0590 hn        1 RGS      0.125500
     44 H31        -3.2930   -7.0310    2.6290 hc        1 RGS      0.092500
     45 H32        -1.7710   -7.5010    2.5760 hc        1 RGS      0.092500
     46 H41        -2.0050   -7.3180    0.1140 h1        1 RGS      0.085000
     47 H42        -3.3010   -6.4400    0.4310 h1        1 RGS      0.085000
     48 HN4        -1.1100   -5.4920    1.7620 hn        1 RGS      0.253000
     49 HA          0.1780   -3.6790    0.8290 h1        1 RGS      0.131000
     50 HN          0.2630   -3.5550   -1.9480 hn        1 RGS      0.280000
     51 H61         2.0110   -5.7290   -2.5110 hc        1 RGS      0.099000
     52 H62         2.6980   -4.3100   -2.7590 hc        1 RGS      0.099000
     53 HB1        -1.4680   -1.9910    0.6800 h1        1 RGS      0.129500
     54 HB2        -1.3490   -2.0300   -0.9140 h1        1 RGS      0.129500
     55 HB'1        0.9840    2.1400    1.1350 h1        1 RGS      0.129500
     56 HB'2        1.8920    1.8630   -0.1510 h1        1 RGS      0.129500
     57 HA'        -0.3220    3.6290   -0.2960 h1        1 RGS      0.131000
     58 HN'         1.8490    3.3900   -2.0320 hn        1 RGS      0.280000
     59 H6'1        1.1000    3.7950   -4.4870 hc        1 RGS      0.099000
     60 H6'2        0.8030    5.2980   -4.0380 hc        1 RGS      0.099000
     61 HN4'       -0.1020    5.9410    0.4180 hn        1 RGS      0.253000
     62 H4'1        1.6380    6.5600    2.2900 h1        1 RGS      0.085000
     63 H4'2        2.3600    6.9480    0.9150 h1        1 RGS      0.085000
     64 H3'1        0.4080    8.2870    0.3910 hc        1 RGS      0.092500
     65 H3'2       -0.0730    8.0500    1.8970 hc        1 RGS      0.092500
     66 H2'         2.3860    8.9060    2.2050 h1        1 RGS      0.083000
     67 H2'1        1.5890   10.8770    0.7130 hn        1 RGS      0.125500
     68 H2'2        2.8810   10.1290    0.6320 hn        1 RGS      0.125500
@<TRIPOS>BOND
     1    1    2 1   
     2    1    4 1   
     3    4    5 1   
     4    4    6 1   
     5    4   41 1   
     6    5   42 1   
     7    5   43 1   
     8    6    7 1   
     9    6   44 1   
    10    6   45 1   
    11    7    8 1   
    12    7   46 1   
    13    7   47 1   
    14    8    9 1   
    15    8   48 1   
    16    9   10 1   
    17    9   11 1   
    18   11   12 1   
    19   11   19 1   
    20   11   49 1   
    21   12   13 1   
    22   12   50 1   
    23   13   14 1   
    24   13   15 1   
    25   15   16 1   
    26   15   51 1   
    27   15   52 1   
    28   16   17 1   
    29   16   18 1   
    30   19   20 1   
    31   19   53 1   
    32   19   54 1   
    33   20   21 1   
    34   21   22 1   
    35   22   23 1   
    36   22   55 1   
    37   22   56 1   
    38   23   24 1   
    39   23   31 1   
    40   23   57 1   
    41   24   25 1   
    42   24   58 1   
    43   25   26 1   
    44   25   27 1   
    45   27   28 1   
    46   27   59 1   
    47   27   60 1   
    48   28   29 1   
    49   28   30 1   
    50   31   32 1   
    51   31   33 1   
    52   33   34 1   
    53   33   61 1   
    54   34   35 1   
    55   34   62 1   
    56   34   63 1   
    57   35   36 1   
    58   35   64 1   
    59   35   65 1   
    60   36   37 1   
    61   36   38 1   
    62   36   66 1   
    63   37   67 1   
    64   37   68 1   
    65   38   39 1   
    66   38   40 1   
@<TRIPOS>SUBSTRUCTURE
     1 RGS         1 TEMP              0 ****  ****    0 ROOT
