@<TRIPOS>MOLECULE
RGS
   68    67     1     0     0
SMALL
bcc


@<TRIPOS>ATOM
      1 C1         -0.4800    5.3470   -6.4830 c         1 RGS      0.886100
      2 O1A         0.5440    5.9280   -6.9500 o         1 RGS     -0.857300
      3 O1B        -1.4420    5.9670   -5.9430 o         1 RGS     -0.857300
      4 C2         -0.5900    3.7950   -6.6170 c3        1 RGS      0.031000
      5 N2          0.5480    3.1590   -7.2640 n3        1 RGS     -0.892800
      6 C3         -0.9120    3.1970   -5.2470 c3        1 RGS     -0.086900
      7 C4         -1.4890    1.7830   -5.3160 c3        1 RGS      0.092500
      8 N4         -0.5440    0.7180   -5.5230 n         1 RGS     -0.557400
      9 C          -0.2340   -0.1930   -4.5470 c         1 RGS      0.641100
     10 O          -0.6950   -0.0940   -3.3880 o         1 RGS     -0.622600
     11 CA          0.7730   -1.3180   -4.9100 c3        1 RGS      0.063200
     12 N           0.4010   -2.0590   -6.0800 n         1 RGS     -0.552400
     13 C5          1.3110   -2.3660   -7.0730 c         1 RGS      0.685100
     14 O5          2.4880   -1.9320   -7.0160 o         1 RGS     -0.690600
     15 C6          0.8730   -3.2820   -8.1880 c3        1 RGS     -0.269900
     16 C7         -0.4940   -2.9900   -8.8330 c         1 RGS      0.917100
     17 O7A        -1.4800   -2.7040   -8.0960 o         1 RGS     -0.843050
     18 O7B        -0.5670   -3.1120  -10.0900 o         1 RGS     -0.843050
     19 CB          1.0760   -2.1780   -3.6690 c3        1 RGS     -0.026300
     20 SG         -0.0110   -3.5700   -3.4500 ss        1 RGS     -0.160100
     21 SG'         1.0690   -4.8680   -2.1560 ss        1 RGS     -0.160100
     22 CB'         0.4990   -4.4660   -0.5230 c3        1 RGS     -0.026300
     23 CA'         0.6380   -5.5970    0.5120 c3        1 RGS      0.063200
     24 N'          0.0300   -6.8420    0.1330 n         1 RGS     -0.552400
     25 C5'        -1.2650   -7.1400    0.5210 c         1 RGS      0.685100
     26 O5'        -1.9430   -6.3090    1.1740 o         1 RGS     -0.690600
     27 C6'        -1.8600   -8.4500    0.0700 c3        1 RGS     -0.269900
     28 C7'        -1.0760   -9.7040    0.5020 c         1 RGS      0.917100
     29 O11        -1.7500  -10.6780    0.9450 o         1 RGS     -0.843050
     30 O12         0.1780   -9.7200    0.3510 o         1 RGS     -0.843050
     31 C'          2.1340   -5.7600    0.8910 c         1 RGS      0.641100
     32 O'          2.8920   -6.5370    0.2810 o         1 RGS     -0.622600
     33 N4'         2.5910   -4.9610    1.9210 n         1 RGS     -0.557400
     34 C4'         3.9310   -5.0460    2.4450 c3        1 RGS      0.092500
     35 C3'         4.0120   -4.9760    3.9710 c3        1 RGS     -0.086900
     36 C2'         5.4580   -4.8270    4.4500 c3        1 RGS      0.031000
     37 N2'         6.3170   -5.9470    4.0890 n3        1 RGS     -0.892800
     38 C1'         5.4490   -4.4910    5.9780 c         1 RGS      0.886100
     39 O13         6.1750   -5.1820    6.7530 o         1 RGS     -0.857300
     40 O14         4.7420   -3.5190    6.3670 o         1 RGS     -0.857300
     41 H2         -1.4760    3.6120   -7.2970 h1        1 RGS      0.042200
     42 HN21        0.8790    3.7810   -7.9830 hn        1 RGS      0.331800
     43 HN22        1.2950    3.0680   -6.5980 hn        1 RGS      0.331800
     44 H31        -0.0080    3.2220   -4.5870 hc        1 RGS      0.051450
     45 H32        -1.6910    3.8590   -4.7790 hc        1 RGS      0.051450
     46 H41        -2.0380    1.5830   -4.3490 h1        1 RGS      0.048200
     47 H42        -2.2390    1.7440   -6.1590 h1        1 RGS      0.048200
     48 HN4        -0.1290    0.6470   -6.4240 hn        1 RGS      0.320500
     49 HA          1.7530   -0.7810   -5.1390 h1        1 RGS      0.084200
     50 HN         -0.5550   -2.3270   -6.2170 hn        1 RGS      0.370000
     51 H61         1.6610   -3.2500   -8.9820 hc        1 RGS      0.058450
     52 H62         0.8240   -4.3220   -7.7740 hc        1 RGS      0.058450
     53 HB1         2.1220   -2.5610   -3.7610 h1        1 RGS      0.074200
     54 HB2         1.0120   -1.5220   -2.7660 h1        1 RGS      0.074200
     55 HB'1       -0.5820   -4.1810   -0.5780 h1        1 RGS      0.074200
     56 HB'2        1.0750   -3.5860   -0.1470 h1        1 RGS      0.074200
     57 HA'         0.0730   -5.2130    1.4250 h1        1 RGS      0.084200
     58 HN'         0.6180   -7.5930   -0.1780 hn        1 RGS      0.370000
     59 H6'1       -2.9010   -8.5110    0.4740 hc        1 RGS      0.058450
     60 H6'2       -1.9070   -8.4570   -1.0490 hc        1 RGS      0.058450
     61 HN4'        1.9300   -4.4580    2.4630 hn        1 RGS      0.320500
     62 H4'1        4.5280   -4.1900    2.0130 h1        1 RGS      0.048200
     63 H4'2        4.4030   -6.0040    2.0820 h1        1 RGS      0.048200
     64 H3'1        3.5500   -5.8920    4.4200 hc        1 RGS      0.051450
     65 H3'2        3.4470   -4.0870    4.3600 hc        1 RGS      0.051450
     66 H2'         5.9030   -3.9210    3.9400 h1        1 RGS      0.042200
     67 H2'1        5.7820   -6.7960    4.1170 hn        1 RGS      0.331800
     68 H2'2        7.0280   -6.0290    4.7990 hn        1 RGS      0.331800
@<TRIPOS>BOND
     1    1    2 1   
     2    1    3 1   
     3    1    4 1   
     4    4    5 1   
     5    4    6 1   
     6    4   41 1   
     7    5   42 1   
     8    5   43 1   
     9    6    7 1   
    10    6   44 1   
    11    6   45 1   
    12    7    8 1   
    13    7   46 1   
    14    7   47 1   
    15    8    9 1   
    16    8   48 1   
    17    9   10 2   
    18    9   11 1   
    19   11   12 1   
    20   11   19 1   
    21   11   49 1   
    22   12   13 1   
    23   12   50 1   
    24   13   14 2   
    25   13   15 1   
    26   15   16 1   
    27   15   51 1   
    28   15   52 1   
    29   16   17 1   
    30   16   18 1   
    31   19   20 1   
    32   19   53 1   
    33   19   54 1   
    34   20   21 1   
    35   21   22 1   
    36   22   23 1   
    37   22   55 1   
    38   22   56 1   
    39   23   24 1   
    40   23   31 1   
    41   23   57 1   
    42   24   25 1   
    43   24   58 1   
    44   25   26 2   
    45   25   27 1   
    46   27   28 1   
    47   27   59 1   
    48   27   60 1   
    49   28   29 1   
    50   28   30 1   
    51   31   32 2   
    52   31   33 1   
    53   33   34 1   
    54   33   61 1   
    55   34   35 1   
    56   34   62 1   
    57   34   63 1   
    58   35   36 1   
    59   35   64 1   
    60   35   65 1   
    61   36   37 1   
    62   36   38 1   
    63   36   66 1   
    64   37   67 1   
    65   37   68 1   
    66   38   39 1   
    67   38   40 1   
@<TRIPOS>SUBSTRUCTURE
     1 RGS         1 TEMP              0 ****  ****    0 ROOT
