@<TRIPOS>MOLECULE
RGS
   74    69     1     0     0
SMALL
bcc


@<TRIPOS>ATOM
      1 C1          1.1760    1.7150   -0.0900 c         1 RGS      0.926100
      2 O1A         0.0300    2.2120    0.0550 o         1 RGS     -0.814550
      3 O1B         2.2390    2.3830   -0.2140 o         1 RGS     -0.814550
      4 C2          1.3160    0.1580   -0.0960 c3        1 RGS     -0.013000
      5 N2         -0.0410   -0.4780   -0.1390 n4        1 RGS     -0.832100
      6 C3          2.2390   -0.3280   -1.2070 c3        1 RGS     -0.119900
      7 C4          1.9680    0.3010   -2.5700 c3        1 RGS      0.118300
      8 N4          2.8550    1.4450   -2.9060 n4        1 RGS     -0.673800
      9 C           4.1770    1.0680   -3.5140 c         1 RGS      0.485600
     10 O           4.4630   -0.1210   -3.5500 o         1 RGS     -0.445100
     11 CA          5.0210    2.2390   -4.1060 c3        1 RGS      0.183500
     12 N           6.2440    1.8080   -4.6890 n3        1 RGS     -0.905300
     13 C5          4.1500    0.6210   -7.7370 c1        1 RGS      0.552600
     14 O5          4.0380    0.9540   -6.5880 o         1 RGS     -0.516500
     15 C6          4.2700    0.2660   -8.9830 c2        1 RGS     -0.440600
     16 C7          5.7590    2.9220  -12.3530 c1        1 RGS      0.891000
     17 O7A         5.2980    2.5180  -11.3290 o         1 RGS     -0.445000
     18 O7B         6.2170    3.3270  -13.3690 o         1 RGS     -0.445000
     19 CB          5.1950    3.3210   -3.0370 c3        1 RGS     -0.071800
     20 SG          5.6150    2.4910   -1.5250 ss        1 RGS     -0.138600
     21 SG'         6.1490    3.9120   -0.0870 ss        1 RGS     -0.138600
     22 CB'         4.7630    4.0960    0.9850 c3        1 RGS     -0.071800
     23 CA'         4.2440    5.5290    1.1240 c3        1 RGS      0.183500
     24 N'          5.2870    6.4820    1.3080 n3        1 RGS     -0.905300
     25 C5'         1.0220    6.2980    3.7120 c1        1 RGS      0.552600
     26 O5'         1.3130    5.9960    2.5830 o         1 RGS     -0.516500
     27 C6'         0.7070    6.6270    4.9290 c2        1 RGS     -0.440600
     28 C7'         6.2660    3.1500    5.0950 c1        1 RGS      0.891000
     29 O11         5.4730    3.2330    4.2070 o         1 RGS     -0.445000
     30 O12         7.0510    3.0660    5.9790 o         1 RGS     -0.445000
     31 C'          3.3070    5.8750   -0.0680 c         1 RGS      0.485600
     32 O'          3.5150    6.7240   -0.9230 o         1 RGS     -0.445100
     33 N4'         2.0030    5.1290   -0.1440 n4        1 RGS     -0.673800
     34 C4'         0.8580    5.9900   -0.5440 c3        1 RGS      0.118300
     35 C3'        -0.3230    5.2260   -1.1340 c3        1 RGS     -0.119900
     36 C2'        -0.1930    5.0620   -2.6510 c3        1 RGS     -0.013000
     37 N2'        -1.5170    4.7900   -3.3030 n4        1 RGS     -0.832100
     38 C1'         0.7840    3.8910   -2.9770 c         1 RGS      0.926100
     39 O13         0.3090    2.7930   -3.3790 o         1 RGS     -0.814550
     40 O14         2.0170    4.0950   -2.8080 o         1 RGS     -0.814550
     41 H2          1.7760   -0.1200    0.9010 hx        1 RGS      0.122200
     42 HN21       -0.7170    0.2060    0.2510 hn        1 RGS      0.463633
     43 HN22       -0.3070   -0.6850   -1.1030 hn        1 RGS      0.463633
     44 H31         3.2910   -0.1040   -0.8650 hc        1 RGS      0.104700
     45 H32         2.1770   -1.4450   -1.3150 hc        1 RGS      0.104700
     46 H41         0.9100    0.6980   -2.6260 hx        1 RGS      0.111950
     47 H42         2.1040   -0.4830   -3.3720 hx        1 RGS      0.111950
     48 HN4         3.0440    2.0120   -2.0500 hn        1 RGS      0.494300
     49 HA          4.3760    2.6620   -4.9440 h1        1 RGS      0.118700
     50 HN          6.9150    1.4660   -4.0330 hn        1 RGS      0.405550
     51 H61         4.1230   -0.7730   -9.3070 ha        1 RGS      0.203250
     52 H62         4.5370    0.9920   -9.7670 ha        1 RGS      0.203250
     53 HB1         4.2470    3.9050   -2.9330 h1        1 RGS      0.123700
     54 HB2         6.0010    4.0340   -3.3460 h1        1 RGS      0.123700
     55 HB'1        3.9320    3.3910    0.7350 h1        1 RGS      0.123700
     56 HB'2        5.1530    3.7900    2.0020 h1        1 RGS      0.123700
     57 HA'         3.5740    5.5720    2.0460 h1        1 RGS      0.118700
     58 HN'         4.9610    7.4150    1.4430 hn        1 RGS      0.405550
     59 H6'1        0.2450    5.9120    5.6250 ha        1 RGS      0.203250
     60 H6'2        0.8900    7.6380    5.3220 ha        1 RGS      0.203250
     61 HN4'        1.8040    4.6840    0.7620 hn        1 RGS      0.494300
     62 H4'1        1.2380    6.7520   -1.2870 hx        1 RGS      0.111950
     63 H4'2        0.5150    6.5340    0.3860 hx        1 RGS      0.111950
     64 H3'1       -0.4330    4.2110   -0.6500 hc        1 RGS      0.104700
     65 H3'2       -1.2420    5.8230   -0.8800 hc        1 RGS      0.104700
     66 H2'         0.2220    6.0080   -3.1110 hx        1 RGS      0.122200
     67 H2'1       -1.6370    3.7610   -3.3560 hn        1 RGS      0.463633
     68 H2'2       -2.2860    5.2030   -2.7740 hn        1 RGS      0.463633
     69 H23        -0.0590   -1.3390    0.4100 hn        1 RGS      0.463633
     70 H421        2.3480    2.0710   -3.5630 hn        1 RGS      0.494300
     71 H21         6.1090    1.1870   -5.4610 hn        1 RGS      0.405550
     72 H'2         6.0110    6.4310    0.6190 hn        1 RGS      0.405550
     73 H4'3        2.1180    4.3500   -0.8360 hn        1 RGS      0.494300
     74 H2'3       -1.5130    5.1620   -4.2550 hn        1 RGS      0.463633
@<TRIPOS>BOND
     1    1    2 1   
     2    1    3 1   
     3    1    4 1   
     4    4    5 1   
     5    4    6 1   
     6    4   41 1   
     7    5   42 1   
     8    5   43 1   
     9    5   69 1   
    10    6    7 1   
    11    6   44 1   
    12    6   45 1   
    13    7    8 1   
    14    7   46 1   
    15    7   47 1   
    16    8    9 1   
    17    8   48 1   
    18    8   70 1   
    19    9   10 2   
    20    9   11 1   
    21   11   12 1   
    22   11   19 1   
    23   11   49 1   
    24   12   50 1   
    25   12   71 1   
    26   13   14 2   
    27   13   15 2   
    28   15   51 1   
    29   15   52 1   
    30   16   17 2   
    31   16   18 2   
    32   19   20 1   
    33   19   53 1   
    34   19   54 1   
    35   20   21 1   
    36   21   22 1   
    37   22   23 1   
    38   22   55 1   
    39   22   56 1   
    40   23   24 1   
    41   23   31 1   
    42   23   57 1   
    43   24   58 1   
    44   24   72 1   
    45   25   26 2   
    46   25   27 2   
    47   27   59 1   
    48   27   60 1   
    49   28   29 2   
    50   28   30 2   
    51   31   32 2   
    52   31   33 1   
    53   33   34 1   
    54   33   61 1   
    55   33   73 1   
    56   34   35 1   
    57   34   62 1   
    58   34   63 1   
    59   35   36 1   
    60   35   64 1   
    61   35   65 1   
    62   36   37 1   
    63   36   38 1   
    64   36   66 1   
    65   37   67 1   
    66   37   68 1   
    67   37   74 1   
    68   38   39 1   
    69   38   40 1   
@<TRIPOS>SUBSTRUCTURE
     1 RGS         1 TEMP              0 ****  ****    0 ROOT
