@<TRIPOS>MOLECULE
RGZ
   44    46     1     0     0
SMALL
bcc


@<TRIPOS>ATOM
      1 N16        -0.0820   -0.2920   -0.1170 nh        1 RGZ     -0.754300
      2 C16         1.2980    0.1250   -0.1170 c3        1 RGZ      0.182100
      3 C15        -0.7770   -0.1300    1.1380 c3        1 RGZ      0.203800
      4 C14        -0.8440    1.2940    1.7120 c3        1 RGZ      0.091400
      5 O13        -1.7990    2.0080    0.9230 os        1 RGZ     -0.312900
      6 C10        -2.0280    3.3170    1.2900 ca        1 RGZ      0.135100
      7 C9         -2.9680    3.9950    0.4870 ca        1 RGZ     -0.180500
      8 C8         -3.2730    5.3180    0.7720 ca        1 RGZ     -0.086000
      9 C11        -1.4070    3.9690    2.3620 ca        1 RGZ     -0.180500
     10 C12        -1.7280    5.2990    2.6300 ca        1 RGZ     -0.086000
     11 C7         -2.6590    5.9820    1.8450 ca        1 RGZ     -0.139300
     12 C6         -2.9860    7.4070    2.1210 c3        1 RGZ     -0.014100
     13 C5         -4.3510    7.5610    2.7610 c3        1 RGZ     -0.079600
     14 S1         -4.3460    7.1740    4.5190 ss        1 RGZ     -0.172700
     15 C2         -4.9790    8.7410    5.0040 c         1 RGZ      0.714100
     16 O2         -5.2260    9.1250    6.1510 o         1 RGZ     -0.552500
     17 N3         -5.1880    9.5540    3.8780 n         1 RGZ     -0.616500
     18 C4         -4.8600    8.9900    2.6400 c         1 RGZ      0.699500
     19 O4         -4.9890    9.6040    1.5750 o         1 RGZ     -0.572500
     20 C21        -0.7930    0.1270   -3.7520 ca        1 RGZ     -0.063000
     21 C20        -2.1620   -0.1280   -3.7580 ca        1 RGZ     -0.293300
     22 C19        -2.7800   -0.3890   -2.5220 ca        1 RGZ      0.432200
     23 N18        -2.1450   -0.4120   -1.3440 nb        1 RGZ     -0.709000
     24 C22        -0.0920    0.1150   -2.5500 ca        1 RGZ     -0.301300
     25 C17        -0.7900   -0.1710   -1.3360 ca        1 RGZ      0.654200
     26 H22         0.9850    0.3240   -2.5570 ha        1 RGZ      0.140000
     27 H19        -3.8650   -0.5940   -2.4660 h4        1 RGZ      0.019100
     28 H20        -2.7450   -0.1240   -4.6860 ha        1 RGZ      0.142000
     29 H161        1.7190    0.0110    0.9170 h1        1 RGZ      0.040033
     30 H162        1.4290    1.1940   -0.4400 h1        1 RGZ      0.040033
     31 H163        1.8810   -0.5390   -0.8100 h1        1 RGZ      0.040033
     32 H151       -0.2250   -0.7540    1.9010 h1        1 RGZ      0.079200
     33 H152       -1.8270   -0.5280    1.0550 h1        1 RGZ      0.079200
     34 H141        0.1500    1.8120    1.6620 h1        1 RGZ      0.043200
     35 H142       -1.1950    1.2470    2.7760 h1        1 RGZ      0.043200
     36 H9         -3.4430    3.4650   -0.3510 ha        1 RGZ      0.147500
     37 H11        -0.6730    3.4520    2.9940 ha        1 RGZ      0.147500
     38 H8         -4.0020    5.8560    0.1450 ha        1 RGZ      0.137000
     39 H12        -1.2390    5.8120    3.4730 ha        1 RGZ      0.137000
     40 H61C       -2.2030    7.8640    2.7840 hc        1 RGZ      0.074200
     41 H62C       -2.9860    7.9840    1.1530 hc        1 RGZ      0.074200
     42 H5         -5.0840    6.8780    2.2550 h1        1 RGZ      0.126700
     43 H3         -5.5400   10.4800    3.9560 hn        1 RGZ      0.354500
     44 H21        -0.2620    0.3430   -4.6920 ha        1 RGZ      0.134000
@<TRIPOS>BOND
     1    1    2 1   
     2    1    3 1   
     3    1   25 1   
     4    2   29 1   
     5    2   30 1   
     6    2   31 1   
     7    3    4 1   
     8    3   32 1   
     9    3   33 1   
    10    4    5 1   
    11    4   34 1   
    12    4   35 1   
    13    5    6 1   
    14    6    7 ar  
    15    6    9 ar  
    16    7    8 ar  
    17    7   36 1   
    18    8   11 ar  
    19    8   38 1   
    20    9   10 ar  
    21    9   37 1   
    22   10   11 ar  
    23   10   39 1   
    24   11   12 1   
    25   12   13 1   
    26   12   40 1   
    27   12   41 1   
    28   13   14 1   
    29   13   18 1   
    30   13   42 1   
    31   14   15 1   
    32   15   16 2   
    33   15   17 1   
    34   17   18 1   
    35   17   43 1   
    36   18   19 2   
    37   20   21 ar  
    38   20   24 ar  
    39   20   44 1   
    40   21   22 ar  
    41   21   28 1   
    42   22   23 ar  
    43   22   27 1   
    44   23   25 ar  
    45   24   25 ar  
    46   24   26 1   
@<TRIPOS>SUBSTRUCTURE
     1 RGZ         1 TEMP              0 ****  ****    0 ROOT
