@<TRIPOS>MOLECULE
RGZ
   45    47     1     0     0
SMALL
bcc


@<TRIPOS>ATOM
      1 N16        -0.2860   -0.4390    0.0180 n4        1 RGZ     -0.659100
      2 C16         0.9020    0.4520   -0.0260 c3        1 RGZ      0.086100
      3 C15        -1.3340   -0.0360    1.0170 c3        1 RGZ      0.104800
      4 C14        -1.1810    1.3450    1.6530 c3        1 RGZ      0.113400
      5 O13        -1.3040    2.3100    0.6100 os        1 RGZ     -0.372900
      6 C10        -1.7320    3.5730    1.0190 ca        1 RGZ      0.086100
      7 C9         -2.4160    4.3190    0.0490 ca        1 RGZ     -0.157000
      8 C8         -2.8120    5.6180    0.3560 ca        1 RGZ     -0.087500
      9 C11        -1.4500    4.1030    2.2820 ca        1 RGZ     -0.157000
     10 C12        -1.8600    5.4030    2.5710 ca        1 RGZ     -0.087500
     11 C7         -2.5410    6.1670    1.6160 ca        1 RGZ     -0.091300
     12 C6         -2.9500    7.5650    1.9290 c3        1 RGZ     -0.028100
     13 C5         -4.0730    7.6190    2.9430 c3        1 RGZ     -0.078600
     14 S1         -3.5270    7.2430    4.6150 ss        1 RGZ     -0.216700
     15 C2         -4.1110    8.7670    5.2930 c         1 RGZ      0.729100
     16 O2         -4.0380    9.1240    6.4700 o         1 RGZ     -0.528500
     17 N3         -4.6890    9.5530    4.2860 n         1 RGZ     -0.608500
     18 C4         -4.6910    9.0110    2.9980 c         1 RGZ      0.700500
     19 O4         -5.1540    9.6040    2.0180 o         1 RGZ     -0.560500
     20 C21        -1.9930    0.3580   -3.2610 ca        1 RGZ     -0.078000
     21 C20        -1.8850   -0.8870   -3.8720 ca        1 RGZ     -0.188300
     22 C19        -1.2550   -1.9360   -3.1630 ca        1 RGZ      0.431200
     23 N18        -0.7520   -1.7970   -1.9310 nb        1 RGZ     -0.660000
     24 C22        -1.4790    0.5420   -1.9690 ca        1 RGZ     -0.191300
     25 C17        -0.8680   -0.5660   -1.3500 ca        1 RGZ      0.447200
     26 H19        -1.1470   -2.9470   -3.6070 h4        1 RGZ      0.063100
     27 H20        -2.2770   -1.0650   -4.8860 ha        1 RGZ      0.182000
     28 H161        1.6220    0.0550   -0.7920 hx        1 RGZ      0.109033
     29 H162        1.3910    0.4590    0.9850 hx        1 RGZ      0.109033
     30 H163        0.5900    1.4950   -0.3080 hx        1 RGZ      0.109033
     31 H151       -1.3100   -0.7980    1.8500 hx        1 RGZ      0.114700
     32 H152       -2.3400   -0.0880    0.5060 hx        1 RGZ      0.114700
     33 H141       -2.0020    1.4640    2.4130 h1        1 RGZ      0.079700
     34 H142       -0.1860    1.4750    2.1550 h1        1 RGZ      0.079700
     35 H9         -2.6240    3.8830   -0.9380 ha        1 RGZ      0.142500
     36 H11        -0.9100    3.5170    3.0380 ha        1 RGZ      0.142500
     37 H8         -3.3450    6.2150   -0.4020 ha        1 RGZ      0.159500
     38 H12        -1.6480    5.8360    3.5660 ha        1 RGZ      0.159500
     39 H61C       -2.0600    8.1340    2.3160 hc        1 RGZ      0.085200
     40 H62C       -3.2990    8.0860    0.9930 hc        1 RGZ      0.085200
     41 H5         -4.8790    6.8900    2.6640 h1        1 RGZ      0.123700
     42 H3         -5.0730   10.4520    4.4770 hn        1 RGZ      0.364500
     43 H21        -2.4770    1.2020   -3.7790 ha        1 RGZ      0.176000
     44 H164        0.0490   -1.3780    0.2990 hn        1 RGZ      0.465800
     45 H22        -1.5600    1.5200   -1.4650 ha        1 RGZ      0.188000
@<TRIPOS>BOND
     1    1    2 1   
     2    1    3 1   
     3    1   25 1   
     4    1   44 1   
     5    2   28 1   
     6    2   29 1   
     7    2   30 1   
     8    3    4 1   
     9    3   31 1   
    10    3   32 1   
    11    4    5 1   
    12    4   33 1   
    13    4   34 1   
    14    5    6 1   
    15    6    7 ar  
    16    6    9 ar  
    17    7    8 ar  
    18    7   35 1   
    19    8   11 ar  
    20    8   37 1   
    21    9   10 ar  
    22    9   36 1   
    23   10   11 ar  
    24   10   38 1   
    25   11   12 1   
    26   12   13 1   
    27   12   39 1   
    28   12   40 1   
    29   13   14 1   
    30   13   18 1   
    31   13   41 1   
    32   14   15 1   
    33   15   16 2   
    34   15   17 1   
    35   17   18 1   
    36   17   42 1   
    37   18   19 2   
    38   20   21 ar  
    39   20   24 ar  
    40   20   43 1   
    41   21   22 ar  
    42   21   27 1   
    43   22   23 ar  
    44   22   26 1   
    45   23   25 ar  
    46   24   25 ar  
    47   24   45 1   
@<TRIPOS>SUBSTRUCTURE
     1 RGZ         1 TEMP              0 ****  ****    0 ROOT
