@<TRIPOS>MOLECULE
RGZ
   44    46     1     0     0
SMALL
bcc


@<TRIPOS>ATOM
      1 N16         5.0430    1.4180   -0.0450 nh        1 RGZ     -0.754300
      2 C16         5.2030    1.9080   -1.3900 c3        1 RGZ      0.182100
      3 C15         4.0340    2.0870    0.7430 c3        1 RGZ      0.203800
      4 C14         2.6000    2.0620    0.1900 c3        1 RGZ      0.091400
      5 O13         2.1020    0.7400    0.4070 os        1 RGZ     -0.312900
      6 C10         0.8050    0.5080   -0.0030 ca        1 RGZ      0.135100
      7 C9          0.3480   -0.8080    0.2150 ca        1 RGZ     -0.180500
      8 C8         -0.9440   -1.1470   -0.1600 ca        1 RGZ     -0.086000
      9 C11        -0.0310    1.4630   -0.5920 ca        1 RGZ     -0.180500
     10 C12        -1.3260    1.1010   -0.9610 ca        1 RGZ     -0.086000
     11 C7         -1.7930   -0.1980   -0.7480 ca        1 RGZ     -0.139300
     12 C6         -3.1680   -0.5870   -1.1610 c3        1 RGZ     -0.014100
     13 C5         -4.0960   -0.7320    0.0290 c3        1 RGZ     -0.079600
     14 S1         -4.6830    0.8500    0.6550 ss        1 RGZ     -0.172700
     15 C2         -6.3830    0.4460    0.4700 c         1 RGZ      0.714100
     16 O2         -7.3540    1.1560    0.7490 o         1 RGZ     -0.552500
     17 N3         -6.5250   -0.8470   -0.0600 n         1 RGZ     -0.616500
     18 C4         -5.3380   -1.5350   -0.3330 c         1 RGZ      0.699500
     19 O4         -5.3250   -2.6760   -0.8090 o         1 RGZ     -0.572500
     20 C21         6.3060   -2.0520   -0.5600 ca        1 RGZ     -0.063000
     21 C20         6.0260   -2.5950    0.6910 ca        1 RGZ     -0.293300
     22 C19         5.3870   -1.7680    1.6310 ca        1 RGZ      0.432200
     23 N18         5.0320   -0.4960    1.4090 nb        1 RGZ     -0.709000
     24 C22         5.9540   -0.7340   -0.8370 ca        1 RGZ     -0.301300
     25 C17         5.3160    0.0470    0.1770 ca        1 RGZ      0.654200
     26 H22         6.1730   -0.3190   -1.8290 ha        1 RGZ      0.140000
     27 H19         5.1360   -2.1480    2.6390 h4        1 RGZ      0.019100
     28 H20         6.2880   -3.6300    0.9420 ha        1 RGZ      0.142000
     29 H161        6.2820    1.8180   -1.6880 h1        1 RGZ      0.040033
     30 H162        4.5730    1.3490   -2.1350 h1        1 RGZ      0.040033
     31 H163        4.9180    2.9930   -1.4260 h1        1 RGZ      0.040033
     32 H151        4.0190    1.6710    1.7890 h1        1 RGZ      0.079200
     33 H152        4.3340    3.1740    0.8020 h1        1 RGZ      0.079200
     34 H141        1.9730    2.7980    0.7590 h1        1 RGZ      0.043200
     35 H142        2.5690    2.3030   -0.9050 h1        1 RGZ      0.043200
     36 H9          1.0230   -1.5430    0.6770 ha        1 RGZ      0.147500
     37 H11         0.3130    2.4910   -0.7670 ha        1 RGZ      0.147500
     38 H8         -1.3050   -2.1740    0.0020 ha        1 RGZ      0.137000
     39 H12        -1.9840    1.8530   -1.4240 ha        1 RGZ      0.137000
     40 H61C       -3.5880    0.1680   -1.8780 hc        1 RGZ      0.074200
     41 H62C       -3.1300   -1.5780   -1.6980 hc        1 RGZ      0.074200
     42 H5         -3.5610   -1.2620    0.8620 h1        1 RGZ      0.126700
     43 H3         -7.4170   -1.2480   -0.2380 hn        1 RGZ      0.354500
     44 H21         6.8000   -2.6590   -1.3340 ha        1 RGZ      0.134000
@<TRIPOS>BOND
     1    1    2 1   
     2    1    3 1   
     3    1   25 1   
     4    2   29 1   
     5    2   30 1   
     6    2   31 1   
     7    3    4 1   
     8    3   32 1   
     9    3   33 1   
    10    4    5 1   
    11    4   34 1   
    12    4   35 1   
    13    5    6 1   
    14    6    7 ar  
    15    6    9 ar  
    16    7    8 ar  
    17    7   36 1   
    18    8   11 ar  
    19    8   38 1   
    20    9   10 ar  
    21    9   37 1   
    22   10   11 ar  
    23   10   39 1   
    24   11   12 1   
    25   12   13 1   
    26   12   40 1   
    27   12   41 1   
    28   13   14 1   
    29   13   18 1   
    30   13   42 1   
    31   14   15 1   
    32   15   16 2   
    33   15   17 1   
    34   17   18 1   
    35   17   43 1   
    36   18   19 2   
    37   20   21 ar  
    38   20   24 ar  
    39   20   44 1   
    40   21   22 ar  
    41   21   28 1   
    42   22   23 ar  
    43   22   27 1   
    44   23   25 ar  
    45   24   25 ar  
    46   24   26 1   
@<TRIPOS>SUBSTRUCTURE
     1 RGZ         1 TEMP              0 ****  ****    0 ROOT
