@<TRIPOS>MOLECULE
RH0
   33    33     1     0     0
SMALL
bcc


@<TRIPOS>ATOM
      1 N          -1.6060    1.1520   -1.3060 n3        1 RH0     -0.904800
      2 C1         -2.4210    0.4400   -0.3370 c3        1 RH0      0.139500
      3 C2         -1.7190   -0.8370    0.2180 c3        1 RH0      0.142100
      4 O1         -2.5730   -1.6620    0.9760 oh        1 RH0     -0.633800
      5 C3         -3.8150    0.0830   -0.8640 c3        1 RH0     -0.205400
      6 C          -4.9150    0.3750    0.1720 c         1 RH0      0.913600
      7 O          -4.6250    0.2990    1.4070 o         1 RH0     -0.847300
      8 OXT        -6.0650    0.6610   -0.2580 o         1 RH0     -0.847300
      9 C5         -0.5160   -0.4600    1.0860 c3        1 RH0     -0.040300
     10 S1          0.9460   -0.5290    0.0840 ss        1 RH0     -0.325200
     11 C6          2.1450    0.1670    1.1950 c3        1 RH0      0.032000
     12 C7          3.4500    0.2410    0.5030 ca        1 RH0     -0.059300
     13 C8          3.7910    1.3760   -0.2450 ca        1 RH0     -0.115500
     14 C9          5.0260    1.4490   -0.8860 ca        1 RH0     -0.134500
     15 C10         5.9320    0.3930   -0.7870 ca        1 RH0     -0.136000
     16 C11         5.5970   -0.7400   -0.0450 ca        1 RH0     -0.134500
     17 C12         4.3630   -0.8170    0.5970 ca        1 RH0     -0.115500
     18 H          -0.6410    1.1310   -1.0260 hn        1 RH0      0.334300
     19 H1         -2.5660    1.1420    0.5420 h1        1 RH0      0.088700
     20 H3         -4.0570    0.6600   -1.7920 hc        1 RH0      0.041700
     21 H4         -3.8600   -1.0070   -1.1130 hc        1 RH0      0.041700
     22 H6         -0.6410    0.5610    1.5180 h1        1 RH0      0.067700
     23 H7         -0.4320   -1.1850    1.9320 h1        1 RH0      0.067700
     24 H8          1.8080    1.1850    1.5170 h1        1 RH0      0.064700
     25 H9          2.2160   -0.4690    2.1120 h1        1 RH0      0.064700
     26 H10         3.0750    2.2070   -0.3310 ha        1 RH0      0.138500
     27 H11         5.2850    2.3410   -1.4740 ha        1 RH0      0.126000
     28 H12         6.9050    0.4510   -1.2950 ha        1 RH0      0.123000
     29 H13         6.3060   -1.5770    0.0310 ha        1 RH0      0.126000
     30 H14         4.0980   -1.7150    1.1760 ha        1 RH0      0.138500
     31 H2         -1.6790    0.7190   -2.2070 hn        1 RH0      0.334300
     32 H16        -1.3710   -1.4900   -0.6360 h1        1 RH0      0.044700
     33 H17        -3.2650   -1.1010    1.3810 ho        1 RH0      0.469000
@<TRIPOS>BOND
     1    1    2 1   
     2    1   18 1   
     3    1   31 1   
     4    2    3 1   
     5    2    5 1   
     6    2   19 1   
     7    3    4 1   
     8    3    9 1   
     9    3   32 1   
    10    4   33 1   
    11    5    6 1   
    12    5   20 1   
    13    5   21 1   
    14    6    7 1   
    15    6    8 1   
    16    9   10 1   
    17    9   22 1   
    18    9   23 1   
    19   10   11 1   
    20   11   12 1   
    21   11   24 1   
    22   11   25 1   
    23   12   13 ar  
    24   12   17 ar  
    25   13   14 ar  
    26   13   26 1   
    27   14   15 ar  
    28   14   27 1   
    29   15   16 ar  
    30   15   28 1   
    31   16   17 ar  
    32   16   29 1   
    33   17   30 1   
@<TRIPOS>SUBSTRUCTURE
     1 RH0         1 TEMP              0 ****  ****    0 ROOT
