@<TRIPOS>MOLECULE
RH1
   31    33     1     0     0
SMALL
bcc


@<TRIPOS>ATOM
      1 O1          2.4570   -0.9540    0.7760 o         1 RH1     -0.503100
      2 O2         -2.2730   -0.4610   -0.9400 o         1 RH1     -0.532100
      3 N1          0.8360    0.6600    2.5330 nh        1 RH1     -0.568400
      4 N2         -0.3020    0.4560   -2.8810 nh        1 RH1     -0.558400
      5 C1          1.4780   -0.3340    0.3490 c         1 RH1      0.568500
      6 C2          0.4170    0.1990    1.2800 cc        1 RH1      0.080800
      7 C3         -0.8540    0.2980    0.8030 cd        1 RH1     -0.258400
      8 C4         -1.1510   -0.0670   -0.5940 c         1 RH1      0.578500
      9 C5         -0.0130    0.0610   -1.5660 cc        1 RH1      0.033800
     10 C6          1.2560   -0.0850   -1.0900 cd        1 RH1     -0.180400
     11 C7          1.6400   -0.1450    3.4430 cx        1 RH1      0.089800
     12 C8          0.2290    0.2210    3.7840 cx        1 RH1      0.089800
     13 C9         -1.3980   -0.1100   -3.6560 cx        1 RH1      0.084800
     14 C10         0.0240   -0.3700   -4.0400 cx        1 RH1      0.084800
     15 C11        -2.0380    0.7570    1.5970 c3        1 RH1      0.184600
     16 O3         -2.8810   -0.3190    1.9560 oh        1 RH1     -0.601800
     17 C12         2.4680    0.0050   -1.9330 c3        1 RH1     -0.053900
     18 HC71        1.9000   -1.1920    3.1770 h1        1 RH1      0.095700
     19 HC72        2.4960    0.3940    3.9000 h1        1 RH1      0.095700
     20 HC81        0.0100    1.0360    4.5060 h1        1 RH1      0.095700
     21 HC82       -0.5680   -0.5540    3.7720 h1        1 RH1      0.095700
     22 HC91       -2.0220   -0.9280   -3.2360 h1        1 RH1      0.091950
     23 HC92       -2.0080    0.6410   -4.2020 h1        1 RH1      0.091950
     24 H101        0.5020    0.1760   -4.8800 h1        1 RH1      0.091950
     25 H102        0.4490   -1.3860   -3.9050 h1        1 RH1      0.091950
     26 H111       -1.7440    1.2250    2.5760 h1        1 RH1      0.059700
     27 H112       -2.6110    1.5120    0.9900 h1        1 RH1      0.059700
     28 HO3        -3.2110   -0.7120    1.1350 ho        1 RH1      0.419000
     29 H121        3.3530   -0.4340   -1.4070 hc        1 RH1      0.057700
     30 H122        2.3270   -0.5370   -2.9020 hc        1 RH1      0.057700
     31 H123        2.6870    1.0790   -2.1660 hc        1 RH1      0.057700
@<TRIPOS>BOND
     1    1    5 2   
     2    2    8 2   
     3    3    6 1   
     4    3   11 1   
     5    3   12 1   
     6    4    9 1   
     7    4   13 1   
     8    4   14 1   
     9    5    6 1   
    10    5   10 1   
    11    6    7 2   
    12    7    8 1   
    13    7   15 1   
    14    8    9 1   
    15    9   10 2   
    16   10   17 1   
    17   11   12 1   
    18   11   18 1   
    19   11   19 1   
    20   12   20 1   
    21   12   21 1   
    22   13   14 1   
    23   13   22 1   
    24   13   23 1   
    25   14   24 1   
    26   14   25 1   
    27   15   16 1   
    28   15   26 1   
    29   15   27 1   
    30   16   28 1   
    31   17   29 1   
    32   17   30 1   
    33   17   31 1   
@<TRIPOS>SUBSTRUCTURE
     1 RH1         1 TEMP              0 ****  ****    0 ROOT
