@<TRIPOS>MOLECULE
RH1
   31    33     1     0     0
SMALL
bcc


@<TRIPOS>ATOM
      1 O1         -0.0710   -0.7690   -0.2010 o         1 RH1     -0.489100
      2 O2          5.0740   -1.0780   -0.0080 o         1 RH1     -0.520100
      3 N1          0.9930   -0.7260    2.4150 nh        1 RH1     -0.566400
      4 N2          4.0950    0.7080   -2.0570 nh        1 RH1     -0.562400
      5 C1          1.1080   -0.4360   -0.0490 c         1 RH1      0.560500
      6 C2          1.8010   -0.5360    1.2890 cc        1 RH1      0.092800
      7 C3          3.1630   -0.5950    1.3180 cd        1 RH1     -0.271400
      8 C4          3.9410   -0.5880    0.0690 c         1 RH1      0.575500
      9 C5          3.2790    0.0600   -1.1150 cc        1 RH1      0.034800
     10 C6          1.9170    0.1090   -1.1580 cd        1 RH1     -0.187400
     11 C7         -0.1000    0.1680    2.7710 cx        1 RH1      0.092800
     12 C8          1.1120    0.0460    3.6430 cx        1 RH1      0.092800
     13 C9          5.3240    0.1270   -2.5790 cx        1 RH1      0.085800
     14 C10         4.1350    0.3210   -3.4640 cx        1 RH1      0.085800
     15 C11         3.9550   -0.7100    2.5840 c3        1 RH1      0.173600
     16 O3          4.0810    0.5390    3.2440 oh        1 RH1     -0.603800
     17 C12         1.1630    0.7100   -2.2810 c3        1 RH1     -0.054900
     18 HC71       -0.2740    1.0960    2.1880 h1        1 RH1      0.094700
     19 HC72       -1.0500   -0.3440    3.0320 h1        1 RH1      0.094700
     20 HC81        1.0850   -0.5590    4.5740 h1        1 RH1      0.094700
     21 HC82        1.8510    0.8760    3.7080 h1        1 RH1      0.094700
     22 HC91        6.1840    0.8300   -2.6150 h1        1 RH1      0.091950
     23 HC92        5.6360   -0.8970   -2.2790 h1        1 RH1      0.091950
     24 H101        3.5680   -0.5650   -3.8200 h1        1 RH1      0.091950
     25 H102        4.0820    1.1680   -4.1800 h1        1 RH1      0.091950
     26 H111        3.4390   -1.3700    3.3340 h1        1 RH1      0.070700
     27 H112        4.9730   -1.1330    2.3600 h1        1 RH1      0.070700
     28 HO3         4.6030    1.1160    2.6730 ho        1 RH1      0.404000
     29 H121        1.5630    0.3590   -3.2660 hc        1 RH1      0.057033
     30 H122        1.2570    1.8250   -2.2470 hc        1 RH1      0.057033
     31 H123        0.0780    0.4400   -2.2260 hc        1 RH1      0.057033
@<TRIPOS>BOND
     1    1    5 2   
     2    2    8 2   
     3    3    6 1   
     4    3   11 1   
     5    3   12 1   
     6    4    9 1   
     7    4   13 1   
     8    4   14 1   
     9    5    6 1   
    10    5   10 1   
    11    6    7 2   
    12    7    8 1   
    13    7   15 1   
    14    8    9 1   
    15    9   10 2   
    16   10   17 1   
    17   11   12 1   
    18   11   18 1   
    19   11   19 1   
    20   12   20 1   
    21   12   21 1   
    22   13   14 1   
    23   13   22 1   
    24   13   23 1   
    25   14   24 1   
    26   14   25 1   
    27   15   16 1   
    28   15   26 1   
    29   15   27 1   
    30   16   28 1   
    31   17   29 1   
    32   17   30 1   
    33   17   31 1   
@<TRIPOS>SUBSTRUCTURE
     1 RH1         1 TEMP              0 ****  ****    0 ROOT
