@<TRIPOS>MOLECULE
RH1
   31    33     1     0     0
SMALL
bcc


@<TRIPOS>ATOM
      1 O1         -0.0100    0.9860    0.2000 o         1 RH1     -0.500100
      2 O2          5.1450    0.6630    0.2650 o         1 RH1     -0.523100
      3 N1          1.0080   -0.7270    2.2560 nh        1 RH1     -0.571400
      4 N2          3.9830    0.6120   -2.3470 nh        1 RH1     -0.550400
      5 C1          1.1180    0.4930    0.0980 c         1 RH1      0.567500
      6 C2          1.8150   -0.1230    1.2860 cc        1 RH1      0.082800
      7 C3          3.1760   -0.1560    1.2890 cd        1 RH1     -0.263400
      8 C4          3.9520    0.3530    0.1430 c         1 RH1      0.569500
      9 C5          3.2310    0.4380   -1.1700 cc        1 RH1      0.028800
     10 C6          1.8680    0.4870   -1.1720 cd        1 RH1     -0.172400
     11 C7         -0.1150   -0.0470    2.8890 cx        1 RH1      0.090800
     12 C8          1.1030   -0.4140    3.6780 cx        1 RH1      0.090800
     13 C9          5.2500   -0.0710   -2.5650 cx        1 RH1      0.084300
     14 C10         4.0440   -0.4210   -3.3780 cx        1 RH1      0.084300
     15 C11         4.0120   -0.6890    2.4130 c3        1 RH1      0.185600
     16 O3          4.6150    0.3500    3.1590 oh        1 RH1     -0.600800
     17 C12         1.0690    0.5930   -2.4130 c3        1 RH1     -0.052900
     18 HC71       -0.3280    1.0160    2.6480 h1        1 RH1      0.095700
     19 HC72       -1.0430   -0.6540    2.9540 h1        1 RH1      0.095700
     20 HC81        1.8030    0.3760    4.0260 h1        1 RH1      0.095700
     21 HC82        1.1020   -1.2980    4.3500 h1        1 RH1      0.095700
     22 HC91        6.0540    0.5730   -2.9810 h1        1 RH1      0.089450
     23 HC92        5.6400   -0.7830   -1.8070 h1        1 RH1      0.089450
     24 H101        3.9240   -0.0480   -4.4170 h1        1 RH1      0.089450
     25 H102        3.5390   -1.3980   -3.2240 h1        1 RH1      0.089450
     26 H111        4.8040   -1.3650    1.9860 h1        1 RH1      0.058200
     27 H112        3.4100   -1.2650    3.1660 h1        1 RH1      0.058200
     28 HO3         5.2050    0.8290    2.5610 ho        1 RH1      0.419000
     29 H121        1.3580   -0.2120   -3.1350 hc        1 RH1      0.058033
     30 H122        1.2560    1.5830   -2.9040 hc        1 RH1      0.058033
     31 H123       -0.0250    0.5090   -2.1960 hc        1 RH1      0.058033
@<TRIPOS>BOND
     1    1    5 2   
     2    2    8 2   
     3    3    6 1   
     4    3   11 1   
     5    3   12 1   
     6    4    9 1   
     7    4   13 1   
     8    4   14 1   
     9    5    6 1   
    10    5   10 1   
    11    6    7 2   
    12    7    8 1   
    13    7   15 1   
    14    8    9 1   
    15    9   10 2   
    16   10   17 1   
    17   11   12 1   
    18   11   18 1   
    19   11   19 1   
    20   12   20 1   
    21   12   21 1   
    22   13   14 1   
    23   13   22 1   
    24   13   23 1   
    25   14   24 1   
    26   14   25 1   
    27   15   16 1   
    28   15   26 1   
    29   15   27 1   
    30   16   28 1   
    31   17   29 1   
    32   17   30 1   
    33   17   31 1   
@<TRIPOS>SUBSTRUCTURE
     1 RH1         1 TEMP              0 ****  ****    0 ROOT
