@<TRIPOS>MOLECULE
RH1
   31    33     1     0     0
SMALL
bcc


@<TRIPOS>ATOM
      1 O1         -0.0540    0.8590    0.1660 o         1 RH1     -0.500100
      2 O2          5.1100    0.7840    0.2530 o         1 RH1     -0.523100
      3 N1          1.0380   -0.7460    2.2730 nh        1 RH1     -0.571400
      4 N2          3.9620    0.6040   -2.3600 nh        1 RH1     -0.550400
      5 C1          1.0970    0.4180    0.0810 c         1 RH1      0.567500
      6 C2          1.8190   -0.1310    1.2870 cc        1 RH1      0.082800
      7 C3          3.1790   -0.1000    1.2940 cd        1 RH1     -0.263400
      8 C4          3.9340    0.4140    0.1360 c         1 RH1      0.569500
      9 C5          3.2150    0.4270   -1.1800 cc        1 RH1      0.028800
     10 C6          1.8510    0.4110   -1.1870 cd        1 RH1     -0.172400
     11 C7         -0.1190   -0.1020    2.8820 cx        1 RH1      0.090800
     12 C8          1.1120   -0.3890    3.6850 cx        1 RH1      0.090800
     13 C9          5.2610   -0.0240   -2.5560 cx        1 RH1      0.084300
     14 C10         4.0750   -0.4540   -3.3610 cx        1 RH1      0.084300
     15 C11         4.0350   -0.5600    2.4350 c3        1 RH1      0.185600
     16 O3          4.5850    0.5270    3.1530 oh        1 RH1     -0.600800
     17 C12         1.0520    0.4440   -2.4330 c3        1 RH1     -0.052900
     18 HC71       -0.3820    0.9430    2.6110 h1        1 RH1      0.095700
     19 HC72       -1.0170   -0.7500    2.9630 h1        1 RH1      0.095700
     20 HC81        1.7720    0.4430    4.0120 h1        1 RH1      0.095700
     21 HC82        1.1500   -1.2520    4.3820 h1        1 RH1      0.095700
     22 HC91        5.6820   -0.6950   -1.7770 h1        1 RH1      0.089450
     23 HC92        6.0350    0.6450   -2.9880 h1        1 RH1      0.089450
     24 H101        3.6180   -1.4490   -3.1800 h1        1 RH1      0.089450
     25 H102        3.9420   -0.1170   -4.4100 h1        1 RH1      0.089450
     26 H111        4.8600   -1.2100    2.0290 h1        1 RH1      0.058200
     27 H112        3.4580   -1.1430    3.2030 h1        1 RH1      0.058200
     28 HO3         5.1540    1.0170    2.5430 ho        1 RH1      0.419000
     29 H121        1.1940    1.4270   -2.9510 hc        1 RH1      0.058033
     30 H122        1.3820   -0.3660   -3.1310 hc        1 RH1      0.058033
     31 H123       -0.0370    0.3140   -2.2160 hc        1 RH1      0.058033
@<TRIPOS>BOND
     1    1    5 2   
     2    2    8 2   
     3    3    6 1   
     4    3   11 1   
     5    3   12 1   
     6    4    9 1   
     7    4   13 1   
     8    4   14 1   
     9    5    6 1   
    10    5   10 1   
    11    6    7 2   
    12    7    8 1   
    13    7   15 1   
    14    8    9 1   
    15    9   10 2   
    16   10   17 1   
    17   11   12 1   
    18   11   18 1   
    19   11   19 1   
    20   12   20 1   
    21   12   21 1   
    22   13   14 1   
    23   13   22 1   
    24   13   23 1   
    25   14   24 1   
    26   14   25 1   
    27   15   16 1   
    28   15   26 1   
    29   15   27 1   
    30   16   28 1   
    31   17   29 1   
    32   17   30 1   
    33   17   31 1   
@<TRIPOS>SUBSTRUCTURE
     1 RH1         1 TEMP              0 ****  ****    0 ROOT
