@<TRIPOS>MOLECULE
RH2
   47    48     1     0     0
SMALL
bcc


@<TRIPOS>ATOM
      1 N01         0.0850   -0.5100    0.0520 nz        1 RH2     -0.745400
      2 C02         1.4010    0.2040    0.0760 c         1 RH2      0.503100
      3 C03         2.2220    0.1670    1.3760 c3        1 RH2      0.065500
      4 C04         1.8350    1.4170    2.1940 c3        1 RH2     -0.113400
      5 C05         2.4110    1.4150    3.6000 c3        1 RH2     -0.085400
      6 C06         1.8770    2.6020    4.3900 c3        1 RH2     -0.109400
      7 C07         2.4940    2.6160    5.7880 c3        1 RH2      0.101800
      8 N08         2.0320    3.7550    6.6310 nz        1 RH2     -0.837600
      9 N09         3.6780    0.1030    1.0460 ny        1 RH2     -0.814000
     10 C10         4.1520   -1.2610    0.4610 c3        1 RH2      0.274100
     11 C11         5.5840   -1.2460    0.3260 cc        1 RH2     -0.370400
     12 C12         6.4740   -1.6310    1.3550 cd        1 RH2     -0.059000
     13 C13         7.8030   -1.6440    0.9270 cd        1 RH2     -0.181000
     14 C14         7.9280   -1.2810   -0.4320 cc        1 RH2      0.103900
     15 C15         9.1510   -1.2120   -1.1670 ca        1 RH2     -0.231300
     16 C16         9.1630   -1.1570   -2.5790 ca        1 RH2     -0.059000
     17 C17        10.3770   -1.1000   -3.2490 ca        1 RH2     -0.234300
     18 C18        11.5700   -1.0990   -2.4900 ca        1 RH2      0.474200
     19 N19        11.5840   -1.1470   -1.1430 nb        1 RH2     -0.642000
     20 C20        10.4060   -1.2050   -0.5020 ca        1 RH2      0.471200
     21 S21         6.4360   -0.9430   -1.0940 ss        1 RH2      0.139200
     22 O22         1.7260    0.7880   -0.9440 o         1 RH2     -0.334100
     23 H1         -0.3990   -0.3170   -0.8480 hn        1 RH2      0.497467
     24 H2         -0.5210   -0.1950    0.8200 hn        1 RH2      0.497467
     25 H3          1.9790   -0.7650    1.9740 hx        1 RH2      0.135700
     26 H4          2.1620    2.3460    1.6500 hc        1 RH2      0.095200
     27 H5          0.7130    1.4470    2.2620 hc        1 RH2      0.095200
     28 H6          2.1380    0.4610    4.1260 hc        1 RH2      0.070700
     29 H7          3.5310    1.4770    3.5640 hc        1 RH2      0.070700
     30 H8          2.1260    3.5540    3.8470 hc        1 RH2      0.083700
     31 H9          0.7580    2.5320    4.4620 hc        1 RH2      0.083700
     32 H10         3.6200    2.6860    5.7130 hx        1 RH2      0.121700
     33 H11         2.2310    1.6610    6.3350 hx        1 RH2      0.121700
     34 H12         2.2760    4.6540    6.1950 hn        1 RH2      0.478133
     35 H13         1.0140    3.7220    6.7630 hn        1 RH2      0.478133
     36 H15         4.2180    0.2760    1.9050 hn        1 RH2      0.461800
     37 H17         3.8000   -2.0370    1.1980 hx        1 RH2      0.090700
     38 H18         3.6140   -1.3670   -0.5210 hx        1 RH2      0.090700
     39 H20         6.1610   -1.9220    2.3620 ha        1 RH2      0.158000
     40 H22         8.6490   -1.9330    1.5620 ha        1 RH2      0.199000
     41 H25         8.2170   -1.1730   -3.1440 ha        1 RH2      0.138000
     42 H26        10.4220   -1.0640   -4.3480 ha        1 RH2      0.178000
     43 H27        12.5620   -1.0610   -2.9830 h4        1 RH2      0.064100
     44 H28        10.4680   -1.2410    0.6020 h4        1 RH2      0.034100
     45 H013        0.2200   -1.5280    0.1300 hn        1 RH2      0.497467
     46 H083        2.4850    3.7070    7.5560 hn        1 RH2      0.478133
     47 H092        3.9230    0.8480    0.3780 hn        1 RH2      0.461800
@<TRIPOS>BOND
     1    1    2 1   
     2    1   23 1   
     3    1   24 1   
     4    1   45 1   
     5    2    3 1   
     6    2   22 2   
     7    3    4 1   
     8    3    9 1   
     9    3   25 1   
    10    4    5 1   
    11    4   26 1   
    12    4   27 1   
    13    5    6 1   
    14    5   28 1   
    15    5   29 1   
    16    6    7 1   
    17    6   30 1   
    18    6   31 1   
    19    7    8 1   
    20    7   32 1   
    21    7   33 1   
    22    8   34 1   
    23    8   35 1   
    24    8   46 1   
    25    9   10 1   
    26    9   36 1   
    27    9   47 1   
    28   10   11 1   
    29   10   37 1   
    30   10   38 1   
    31   11   12 2   
    32   11   21 1   
    33   12   13 1   
    34   12   39 1   
    35   13   14 2   
    36   13   40 1   
    37   14   15 1   
    38   14   21 1   
    39   15   16 ar  
    40   15   20 ar  
    41   16   17 ar  
    42   16   41 1   
    43   17   18 ar  
    44   17   42 1   
    45   18   19 ar  
    46   18   43 1   
    47   19   20 ar  
    48   20   44 1   
@<TRIPOS>SUBSTRUCTURE
     1 RH2         1 TEMP              0 ****  ****    0 ROOT
