@<TRIPOS>MOLECULE
RH2
   47    48     1     0     0
SMALL
bcc


@<TRIPOS>ATOM
      1 N01         0.0840   -0.5170    0.0580 n4        1 RH2     -0.745400
      2 C02         1.4000    0.1970    0.0780 c         1 RH2      0.503100
      3 C03         2.2220    0.1650    1.3780 c3        1 RH2      0.065500
      4 C04         1.8350    1.4180    2.1920 c3        1 RH2     -0.113400
      5 C05         2.4120    1.4210    3.5970 c3        1 RH2     -0.085400
      6 C06         1.8780    2.6100    4.3840 c3        1 RH2     -0.109400
      7 C07         2.4960    2.6290    5.7810 c3        1 RH2      0.101800
      8 N08         2.0340    3.7710    6.6210 n4        1 RH2     -0.837600
      9 N09         3.6780    0.1010    1.0470 n4        1 RH2     -0.814000
     10 C10         4.1530   -1.2650    0.4660 c3        1 RH2      0.274100
     11 C11         5.5840   -1.2490    0.3300 cc        1 RH2     -0.370400
     12 C12         6.4750   -1.6300    1.3600 cd        1 RH2     -0.059000
     13 C13         7.8030   -1.6440    0.9310 cd        1 RH2     -0.181000
     14 C14         7.9280   -1.2850   -0.4290 cc        1 RH2      0.103900
     15 C15         9.1500   -1.2170   -1.1650 ca        1 RH2     -0.231300
     16 C16         9.1610   -1.1660   -2.5780 ca        1 RH2     -0.059000
     17 C17        10.3740   -1.1100   -3.2480 ca        1 RH2     -0.234300
     18 C18        11.5680   -1.1070   -2.4900 ca        1 RH2      0.474200
     19 N19        11.5830   -1.1510   -1.1440 nb        1 RH2     -0.642000
     20 C20        10.4060   -1.2080   -0.5010 ca        1 RH2      0.471200
     21 S21         6.4350   -0.9500   -1.0910 ss        1 RH2      0.139200
     22 O22         1.7240    0.7770   -0.9440 o         1 RH2     -0.334100
     23 H1         -0.4000   -0.3290   -0.8430 hn        1 RH2      0.497467
     24 H2          0.2200   -1.5360    0.1400 hn        1 RH2      0.497467
     25 H3          1.9800   -0.7650    1.9790 hx        1 RH2      0.135700
     26 H4          0.7130    1.4470    2.2610 hc        1 RH2      0.095200
     27 H5          2.1600    2.3450    1.6450 hc        1 RH2      0.095200
     28 H6          3.5320    1.4840    3.5610 hc        1 RH2      0.070700
     29 H7          2.1410    0.4680    4.1270 hc        1 RH2      0.070700
     30 H8          0.7590    2.5390    4.4580 hc        1 RH2      0.083700
     31 H9          2.1240    3.5610    3.8380 hc        1 RH2      0.083700
     32 H10         3.6220    2.7010    5.7040 hx        1 RH2      0.121700
     33 H11         2.2350    1.6770    6.3320 hx        1 RH2      0.121700
     34 H12         1.0160    3.7370    6.7550 hn        1 RH2      0.478133
     35 H13         2.4880    3.7260    7.5450 hn        1 RH2      0.478133
     36 H15         3.9220    0.8440    0.3770 hn        1 RH2      0.461800
     37 H17         3.6130   -1.3740   -0.5150 hx        1 RH2      0.090700
     38 H18         3.8010   -2.0390    1.2060 hx        1 RH2      0.090700
     39 H20         6.1630   -1.9190    2.3680 ha        1 RH2      0.158000
     40 H22         8.6510   -1.9300    1.5660 ha        1 RH2      0.199000
     41 H25         8.2140   -1.1840   -3.1410 ha        1 RH2      0.138000
     42 H26        10.4190   -1.0770   -4.3480 ha        1 RH2      0.178000
     43 H27        12.5600   -1.0700   -2.9840 h4        1 RH2      0.064100
     44 H28        10.4690   -1.2420    0.6030 h4        1 RH2      0.034100
     45 H013       -0.5220   -0.2000    0.8250 hn        1 RH2      0.497467
     46 H083        2.2760    4.6680    6.1810 hn        1 RH2      0.478133
     47 H092        4.2180    0.2770    1.9060 hn        1 RH2      0.461800
@<TRIPOS>BOND
     1    1    2 1   
     2    1   23 1   
     3    1   24 1   
     4    1   45 1   
     5    2    3 1   
     6    2   22 2   
     7    3    4 1   
     8    3    9 1   
     9    3   25 1   
    10    4    5 1   
    11    4   26 1   
    12    4   27 1   
    13    5    6 1   
    14    5   28 1   
    15    5   29 1   
    16    6    7 1   
    17    6   30 1   
    18    6   31 1   
    19    7    8 1   
    20    7   32 1   
    21    7   33 1   
    22    8   34 1   
    23    8   35 1   
    24    8   46 1   
    25    9   10 1   
    26    9   36 1   
    27    9   47 1   
    28   10   11 1   
    29   10   37 1   
    30   10   38 1   
    31   11   12 2   
    32   11   21 1   
    33   12   13 1   
    34   12   39 1   
    35   13   14 2   
    36   13   40 1   
    37   14   15 1   
    38   14   21 1   
    39   15   16 ar  
    40   15   20 ar  
    41   16   17 ar  
    42   16   41 1   
    43   17   18 ar  
    44   17   42 1   
    45   18   19 ar  
    46   18   43 1   
    47   19   20 ar  
    48   20   44 1   
@<TRIPOS>SUBSTRUCTURE
     1 RH2         1 TEMP              0 ****  ****    0 ROOT
