@<TRIPOS>MOLECULE
RHA
   26    26     1     0     0
SMALL
bcc


@<TRIPOS>ATOM
      1 C1         -0.3900   -0.6340    0.3190 c3        1 RHA      0.394900
      2 O1          0.2900    0.2870    1.0210 os        1 RHA     -0.545200
      3 C2         -1.3740    0.0000   -0.7130 c3        1 RHA      0.040100
      4 O2         -2.0420   -0.9960   -1.4800 oh        1 RHA     -0.645800
      5 C3         -0.6010    0.9270   -1.6630 c3        1 RHA      0.093100
      6 O3         -1.4430    1.4560   -2.6780 oh        1 RHA     -0.624800
      7 C4          0.5870    0.1920   -2.3130 c3        1 RHA      0.084100
      8 O4          1.4190    1.0930   -3.0340 oh        1 RHA     -0.625800
      9 C5          1.4130   -0.5590   -1.2480 c3        1 RHA      0.128100
     10 O5          0.5650   -1.3880   -0.4740 os        1 RHA     -0.489600
     11 C6          2.4500   -1.4530   -1.9030 c3        1 RHA     -0.081100
     12 P          -0.2860    0.4720    2.6940 p5        1 RHA      1.309900
     13 O1P         0.8190    1.2630    3.3220 o         1 RHA     -0.919167
     14 O2P        -1.5750    1.1810    2.3940 o         1 RHA     -0.919167
     15 O3P        -0.4280   -0.9710    3.0890 o         1 RHA     -0.919167
     16 H1         -0.9010   -1.4120    0.9590 h2        1 RHA      0.108700
     17 H2         -2.1750    0.5710   -0.1700 h1        1 RHA      0.126700
     18 HO2        -1.4170   -1.7250   -1.5790 ho        1 RHA      0.397000
     19 H3         -0.2330    1.8140   -1.0750 h1        1 RHA      0.104700
     20 HO3        -2.0370    0.7410   -2.9380 ho        1 RHA      0.394000
     21 H4          0.2080   -0.5220   -3.0950 h1        1 RHA      0.046700
     22 HO4         1.6420    1.8050   -2.4230 ho        1 RHA      0.397000
     23 H5          1.9120    0.1970   -0.5760 h1        1 RHA      0.081700
     24 H61         3.0980   -1.9140   -1.1200 hc        1 RHA      0.021367
     25 H62         1.9560   -2.2700   -2.4800 hc        1 RHA      0.021367
     26 H63         3.0760   -0.8440   -2.5970 hc        1 RHA      0.021367
@<TRIPOS>BOND
     1    1    2 1   
     2    1    3 1   
     3    1   10 1   
     4    1   16 1   
     5    2   12 1   
     6    3    4 1   
     7    3    5 1   
     8    3   17 1   
     9    4   18 1   
    10    5    6 1   
    11    5    7 1   
    12    5   19 1   
    13    6   20 1   
    14    7    8 1   
    15    7    9 1   
    16    7   21 1   
    17    8   22 1   
    18    9   10 1   
    19    9   11 1   
    20    9   23 1   
    21   11   24 1   
    22   11   25 1   
    23   11   26 1   
    24   12   13 1   
    25   12   14 1   
    26   12   15 1   
@<TRIPOS>SUBSTRUCTURE
     1 RHA         1 TEMP              0 ****  ****    0 ROOT
