@<TRIPOS>MOLECULE
RHB
   63    67     1     0     0
SMALL
bcc


@<TRIPOS>ATOM
      1 O2         -0.2850   -4.2060   -2.2630 o         1 RHB     -0.565500
      2 C26        -0.1990   -3.4760   -1.2830 c         1 RHB      0.727200
      3 C19        -0.1500   -3.7110    0.1720 ca        1 RHB     -0.178600
      4 C14        -0.0460   -2.4470    0.8040 ca        1 RHB     -0.076300
      5 C15         0.0190   -2.3550    2.1820 ca        1 RHB     -0.099000
      6 C16        -0.0200   -3.5440    2.9280 ca        1 RHB     -0.100000
      7 C17        -0.1210   -4.7850    2.3040 ca        1 RHB     -0.144000
      8 C18        -0.1880   -4.8820    0.9050 ca        1 RHB     -0.053000
      9 C9         -0.0280   -1.3630   -0.2650 c3        1 RHB      0.331700
     10 C8         -1.2100   -0.4520   -0.1610 ca        1 RHB     -0.193800
     11 C13        -2.5020   -0.8850   -0.4780 ca        1 RHB     -0.031500
     12 C12        -3.5970   -0.0480   -0.3480 ca        1 RHB     -0.223500
     13 C11        -3.4440    1.2930    0.1030 ca        1 RHB      0.227100
     14 N1         -4.5620    2.1080    0.2900 nh        1 RHB     -0.686000
     15 C35        -4.4300    3.4100    0.8990 c3        1 RHB      0.214550
     16 C36        -3.9920    4.5460   -0.0150 c3        1 RHB     -0.119850
     17 C22        -5.7510    1.8850   -0.5050 c3        1 RHB      0.214550
     18 C23        -6.8580    1.1420    0.2300 c3        1 RHB     -0.119850
     19 C10        -2.1390    1.7480    0.3970 ca        1 RHB     -0.229500
     20 C7         -1.0540    0.8740    0.2610 ca        1 RHB      0.171100
     21 O1          0.1760    1.4290    0.5980 os        1 RHB     -0.239200
     22 C1          1.2980    0.7340    0.1570 ca        1 RHB      0.171100
     23 C2          1.2580   -0.6000   -0.2690 ca        1 RHB     -0.193800
     24 C6          2.4870    1.4680    0.2020 ca        1 RHB     -0.229500
     25 C5          3.6990    0.8660   -0.2110 ca        1 RHB      0.227100
     26 C4          3.6500   -0.4780   -0.6730 ca        1 RHB     -0.223500
     27 C3          2.4570   -1.1820   -0.6940 ca        1 RHB     -0.031500
     28 N2          4.9000    1.5690   -0.1220 nh        1 RHB     -0.686000
     29 C24         4.8940    3.0150   -0.1790 c3        1 RHB      0.214550
     30 C25         5.0070    3.6920    1.1800 c3        1 RHB     -0.119850
     31 C33         6.1600    0.9170   -0.3880 c3        1 RHB      0.214550
     32 C34         6.5670    0.8050   -1.8500 c3        1 RHB     -0.119850
     33 O3         -0.1280   -2.1120   -1.5340 os        1 RHB     -0.403900
     34 H1          0.1000   -1.3810    2.6860 ha        1 RHB      0.153000
     35 H2          0.0320   -3.4890    4.0260 ha        1 RHB      0.138000
     36 H3         -0.1500   -5.7030    2.9090 ha        1 RHB      0.139000
     37 H4         -0.2690   -5.8600    0.4080 ha        1 RHB      0.153000
     38 H5         -2.6420   -1.9170   -0.8410 ha        1 RHB      0.143000
     39 H6         -4.5960   -0.4430   -0.5860 ha        1 RHB      0.139500
     40 H7         -5.4390    3.6700    1.3350 h1        1 RHB      0.048825
     41 H8         -3.7050    3.3290    1.7590 h1        1 RHB      0.048825
     42 H9         -3.9230    5.4850    0.5850 hc        1 RHB      0.042367
     43 H10        -2.9940    4.3380   -0.4700 hc        1 RHB      0.042367
     44 H11        -4.7270    4.7050   -0.8400 hc        1 RHB      0.042367
     45 H12        -6.1550    2.8860   -0.8380 h1        1 RHB      0.048825
     46 H13        -5.4860    1.3110   -1.4400 h1        1 RHB      0.048825
     47 H14        -7.1810    1.7020    1.1400 hc        1 RHB      0.042367
     48 H15        -7.7340    1.0350   -0.4550 hc        1 RHB      0.042367
     49 H16        -6.5220    0.1250    0.5440 hc        1 RHB      0.042367
     50 H17        -1.9380    2.7780    0.7230 ha        1 RHB      0.153000
     51 H18         2.4510    2.5020    0.5760 ha        1 RHB      0.153000
     52 H19         4.5600   -0.9790   -1.0330 ha        1 RHB      0.139500
     53 H20         5.7620    3.3520   -0.8180 h1        1 RHB      0.048825
     54 H21         3.9530    3.3740   -0.6880 h1        1 RHB      0.048825
     55 H22         4.1460    3.4240    1.8370 hc        1 RHB      0.042367
     56 H23         5.9510    3.3970    1.6980 hc        1 RHB      0.042367
     57 H24         5.0130    4.7990    1.0290 hc        1 RHB      0.042367
     58 H25         6.9540    1.5040    0.1610 h1        1 RHB      0.048825
     59 H26         6.1320   -0.1140    0.0680 h1        1 RHB      0.048825
     60 H27         6.6750    1.8140   -2.3160 hc        1 RHB      0.042367
     61 H28         7.5500    0.2780   -1.9110 hc        1 RHB      0.042367
     62 H29         5.8150    0.2260   -2.4380 hc        1 RHB      0.042367
     63 H31         2.4400   -2.2190   -1.0660 ha        1 RHB      0.143000
@<TRIPOS>BOND
     1    1    2 2   
     2    2    3 1   
     3    2   33 1   
     4    3    4 ar  
     5    3    8 ar  
     6    4    5 ar  
     7    4    9 1   
     8    5    6 ar  
     9    5   34 1   
    10    6    7 ar  
    11    6   35 1   
    12    7    8 ar  
    13    7   36 1   
    14    8   37 1   
    15    9   10 1   
    16    9   23 1   
    17    9   33 1   
    18   10   11 ar  
    19   10   20 ar  
    20   11   12 ar  
    21   11   38 1   
    22   12   13 ar  
    23   12   39 1   
    24   13   14 1   
    25   13   19 ar  
    26   14   15 1   
    27   14   17 1   
    28   15   16 1   
    29   15   40 1   
    30   15   41 1   
    31   16   42 1   
    32   16   43 1   
    33   16   44 1   
    34   17   18 1   
    35   17   45 1   
    36   17   46 1   
    37   18   47 1   
    38   18   48 1   
    39   18   49 1   
    40   19   20 ar  
    41   19   50 1   
    42   20   21 1   
    43   21   22 1   
    44   22   23 ar  
    45   22   24 ar  
    46   23   27 ar  
    47   24   25 ar  
    48   24   51 1   
    49   25   26 ar  
    50   25   28 1   
    51   26   27 ar  
    52   26   52 1   
    53   27   63 1   
    54   28   29 1   
    55   28   31 1   
    56   29   30 1   
    57   29   53 1   
    58   29   54 1   
    59   30   55 1   
    60   30   56 1   
    61   30   57 1   
    62   31   32 1   
    63   31   58 1   
    64   31   59 1   
    65   32   60 1   
    66   32   61 1   
    67   32   62 1   
@<TRIPOS>SUBSTRUCTURE
     1 RHB         1 TEMP              0 ****  ****    0 ROOT
