@<TRIPOS>MOLECULE
RHB
   63    67     1     0     0
SMALL
bcc


@<TRIPOS>ATOM
      1 O2          0.2420   -0.6730    0.9760 o         1 RHB     -0.565500
      2 C26         1.4450   -0.4400    0.9740 c         1 RHB      0.727200
      3 C19         2.4330   -0.1330    2.0240 ca        1 RHB     -0.178600
      4 C14         3.6890    0.0410    1.3900 ca        1 RHB     -0.076300
      5 C15         4.8140    0.3410    2.1340 ca        1 RHB     -0.099000
      6 C16         4.6750    0.4650    3.5260 ca        1 RHB     -0.100000
      7 C17         3.4410    0.2930    4.1460 ca        1 RHB     -0.144000
      8 C18         2.2950   -0.0110    3.3950 ca        1 RHB     -0.053000
      9 C9          3.5120   -0.1560   -0.1090 c3        1 RHB      0.331700
     10 C8          3.8230    1.0880   -0.8790 ca        1 RHB     -0.193800
     11 C13         2.9910    2.2120   -0.8260 ca        1 RHB     -0.031500
     12 C12         3.3000    3.3730   -1.5150 ca        1 RHB     -0.223500
     13 C11         4.4750    3.4600   -2.3130 ca        1 RHB      0.227100
     14 N1          4.8090    4.6550   -2.9520 nh        1 RHB     -0.686000
     15 C35         6.0760    4.8000   -3.6280 c3        1 RHB      0.214550
     16 C36         6.1580    4.2430   -5.0420 c3        1 RHB     -0.119850
     17 C22         3.7610    5.5750   -3.3410 c3        1 RHB      0.214550
     18 C23         3.6000    6.7650   -2.4040 c3        1 RHB     -0.119850
     19 C10         5.3050    2.3190   -2.3960 ca        1 RHB     -0.229500
     20 C7          4.9680    1.1630   -1.6820 ca        1 RHB      0.171100
     21 O1          5.8700    0.1150   -1.8260 os        1 RHB     -0.239200
     22 C1          5.4140   -1.1380   -1.4340 ca        1 RHB      0.171100
     23 C2          4.2920   -1.3270   -0.6170 ca        1 RHB     -0.193800
     24 C6          6.1880   -2.2070   -1.8970 ca        1 RHB     -0.229500
     25 C5          5.8300   -3.5330   -1.5550 ca        1 RHB      0.227100
     26 C4          4.6730   -3.7220   -0.7520 ca        1 RHB     -0.223500
     27 C3          3.9340   -2.6420   -0.2990 ca        1 RHB     -0.031500
     28 N2          6.6240   -4.6030   -1.9660 nh        1 RHB     -0.686000
     29 C24         7.4300   -4.4850   -3.1620 c3        1 RHB      0.214550
     30 C25         8.8990   -4.1840   -2.8960 c3        1 RHB     -0.119850
     31 C33         6.3620   -5.9410   -1.4940 c3        1 RHB      0.214550
     32 C34         5.2820   -6.7200   -2.2310 c3        1 RHB     -0.119850
     33 O3          2.0740   -0.4520   -0.2640 os        1 RHB     -0.403900
     34 H1          5.7950    0.4790    1.6560 ha        1 RHB      0.153000
     35 H2          5.5620    0.7040    4.1330 ha        1 RHB      0.138000
     36 H3          3.3570    0.3960    5.2380 ha        1 RHB      0.139000
     37 H4          1.3180   -0.1470    3.8810 ha        1 RHB      0.153000
     38 H5          2.0700    2.1620   -0.2240 ha        1 RHB      0.143000
     39 H6          2.6270    4.2380   -1.4220 ha        1 RHB      0.139500
     40 H7          6.8740    4.3160   -2.9950 h1        1 RHB      0.048825
     41 H8          6.3010    5.9060   -3.6650 h1        1 RHB      0.048825
     42 H9          5.4300    4.7520   -5.7180 hc        1 RHB      0.042367
     43 H10         5.9460    3.1470   -5.0600 hc        1 RHB      0.042367
     44 H11         7.1880    4.4140   -5.4380 hc        1 RHB      0.042367
     45 H12         2.7760    5.0290   -3.4090 h1        1 RHB      0.048825
     46 H13         3.9910    5.9670   -4.3760 h1        1 RHB      0.048825
     47 H14         4.5430    7.3590   -2.3450 hc        1 RHB      0.042367
     48 H15         2.7860    7.4210   -2.7960 hc        1 RHB      0.042367
     49 H16         3.3290    6.4320   -1.3740 hc        1 RHB      0.042367
     50 H17         6.2140    2.3010   -3.0140 ha        1 RHB      0.153000
     51 H18         7.0740   -1.9850   -2.5100 ha        1 RHB      0.153000
     52 H19         4.3370   -4.7350   -0.4850 ha        1 RHB      0.139500
     53 H20         7.3640   -5.4550   -3.7370 h1        1 RHB      0.048825
     54 H21         7.0080   -3.6780   -3.8290 h1        1 RHB      0.048825
     55 H22         9.0210   -3.2100   -2.3650 hc        1 RHB      0.042367
     56 H23         9.3650   -4.9850   -2.2740 hc        1 RHB      0.042367
     57 H24         9.4360   -4.1300   -3.8730 hc        1 RHB      0.042367
     58 H25         6.0960   -5.8880   -0.3990 h1        1 RHB      0.048825
     59 H26         7.3330   -6.5130   -1.5740 h1        1 RHB      0.048825
     60 H27         5.5470   -6.8540   -3.3070 hc        1 RHB      0.042367
     61 H28         5.1790   -7.7280   -1.7620 hc        1 RHB      0.042367
     62 H29         4.2960   -6.1980   -2.1760 hc        1 RHB      0.042367
     63 H31         3.0340   -2.8130    0.3140 ha        1 RHB      0.143000
@<TRIPOS>BOND
     1    1    2 2   
     2    2    3 1   
     3    2   33 1   
     4    3    4 ar  
     5    3    8 ar  
     6    4    5 ar  
     7    4    9 1   
     8    5    6 ar  
     9    5   34 1   
    10    6    7 ar  
    11    6   35 1   
    12    7    8 ar  
    13    7   36 1   
    14    8   37 1   
    15    9   10 1   
    16    9   23 1   
    17    9   33 1   
    18   10   11 ar  
    19   10   20 ar  
    20   11   12 ar  
    21   11   38 1   
    22   12   13 ar  
    23   12   39 1   
    24   13   14 1   
    25   13   19 ar  
    26   14   15 1   
    27   14   17 1   
    28   15   16 1   
    29   15   40 1   
    30   15   41 1   
    31   16   42 1   
    32   16   43 1   
    33   16   44 1   
    34   17   18 1   
    35   17   45 1   
    36   17   46 1   
    37   18   47 1   
    38   18   48 1   
    39   18   49 1   
    40   19   20 ar  
    41   19   50 1   
    42   20   21 1   
    43   21   22 1   
    44   22   23 ar  
    45   22   24 ar  
    46   23   27 ar  
    47   24   25 ar  
    48   24   51 1   
    49   25   26 ar  
    50   25   28 1   
    51   26   27 ar  
    52   26   52 1   
    53   27   63 1   
    54   28   29 1   
    55   28   31 1   
    56   29   30 1   
    57   29   53 1   
    58   29   54 1   
    59   30   55 1   
    60   30   56 1   
    61   30   57 1   
    62   31   32 1   
    63   31   58 1   
    64   31   59 1   
    65   32   60 1   
    66   32   61 1   
    67   32   62 1   
@<TRIPOS>SUBSTRUCTURE
     1 RHB         1 TEMP              0 ****  ****    0 ROOT
