@<TRIPOS>MOLECULE
RHC
   34    34     1     0     0
SMALL
bcc


@<TRIPOS>ATOM
      1 C1          0.2720    1.0000    0.4450 c3        1 RHC      0.297900
      2 O1          0.5780    2.2580   -0.1030 oh        1 RHC     -0.620800
      3 C2          1.5210    0.0980    0.3240 c3        1 RHC      0.088100
      4 O2          1.1340   -1.2130   -0.0310 oh        1 RHC     -0.592800
      5 C3          2.1170    0.0550    1.7510 c3        1 RHC      0.131100
      6 O3          2.3620   -1.2430    2.2260 oh        1 RHC     -0.574800
      7 C4          1.1020    0.8120    2.6460 c3        1 RHC      0.107100
      8 O4          0.0090    1.2440    1.8200 os        1 RHC     -0.452600
      9 CE          1.7380    2.0140    3.3160 c3        1 RHC     -0.000300
     10 N           0.4490    4.9700    6.4830 nz        1 RHC     -0.825600
     11 CA         -0.7330    5.2610    5.6180 c3        1 RHC     -0.074500
     12 CB         -1.4150    4.0080    5.1060 c3        1 RHC     -0.087400
     13 CG         -0.6460    3.3060    4.0200 c3        1 RHC      0.002700
     14 SD          0.8370    2.6030    4.7220 ss        1 RHC     -0.402200
     15 C          -1.7590    6.1850    6.4430 c         1 RHC      0.937600
     16 O          -2.9030    6.2660    5.9650 o         1 RHC     -0.763300
     17 OXT        -1.2570    6.7330    7.4570 o         1 RHC     -0.763300
     18 HC11       -0.6570    0.5530   -0.0010 h2        1 RHC      0.083700
     19 HO11       -0.1300    2.8650    0.1500 ho        1 RHC      0.426000
     20 HC21        2.2520    0.5290   -0.4080 h1        1 RHC      0.084700
     21 HO21        1.1120   -1.2520   -0.9950 ho        1 RHC      0.422000
     22 HC31        3.1230    0.5570    1.7650 h1        1 RHC      0.091700
     23 HO31        1.5880   -1.7900    2.0310 ho        1 RHC      0.427000
     24 HC41        0.6550    0.1200    3.4130 h1        1 RHC      0.096700
     25 HCE1        2.7380    1.7270    3.7290 h1        1 RHC      0.087200
     26 HCE2        1.8690    2.8350    2.5690 h1        1 RHC      0.087200
     27 HCA1       -0.3710    5.8900    4.7580 hx        1 RHC      0.085700
     28 HCB1       -1.6420    3.3000    5.9470 hc        1 RHC      0.098700
     29 HCB2       -2.4130    4.3480    4.6960 hc        1 RHC      0.098700
     30 HCG1       -1.2580    2.4860    3.5690 h1        1 RHC      0.079700
     31 HCG2       -0.3680    4.0120    3.2000 h1        1 RHC      0.079700
     32 HN2         1.2540    4.6720    5.9260 hn        1 RHC      0.447800
     33 H2          0.2050    4.2300    7.1420 hn        1 RHC      0.447800
     34 HN1         0.6360    5.8330    7.0240 hn        1 RHC      0.447800
@<TRIPOS>BOND
     1    1    2 1   
     2    1    3 1   
     3    1    8 1   
     4    1   18 1   
     5    2   19 1   
     6    3    4 1   
     7    3    5 1   
     8    3   20 1   
     9    4   21 1   
    10    5    6 1   
    11    5    7 1   
    12    5   22 1   
    13    6   23 1   
    14    7    8 1   
    15    7    9 1   
    16    7   24 1   
    17    9   14 1   
    18    9   25 1   
    19    9   26 1   
    20   10   11 1   
    21   10   32 1   
    22   10   33 1   
    23   10   34 1   
    24   11   12 1   
    25   11   15 1   
    26   11   27 1   
    27   12   13 1   
    28   12   28 1   
    29   12   29 1   
    30   13   14 1   
    31   13   30 1   
    32   13   31 1   
    33   15   16 1   
    34   15   17 1   
@<TRIPOS>SUBSTRUCTURE
     1 RHC         1 TEMP              0 ****  ****    0 ROOT
