@<TRIPOS>MOLECULE
RHC
   34    34     1     0     0
SMALL
bcc


@<TRIPOS>ATOM
      1 C1          0.3690    1.1960    0.6040 c3        1 RHC      0.296900
      2 O1          0.7210    2.5340    0.3460 oh        1 RHC     -0.623800
      3 C2          1.6460    0.3310    0.5030 c3        1 RHC      0.087100
      4 O2          1.4540   -0.7790   -0.3460 oh        1 RHC     -0.592800
      5 C3          1.8880   -0.1850    1.9410 c3        1 RHC      0.134100
      6 O3          1.6310   -1.5610    2.1210 oh        1 RHC     -0.585800
      7 C4          0.8730    0.5830    2.8230 c3        1 RHC      0.139100
      8 O4         -0.0910    1.1900    1.9480 os        1 RHC     -0.447600
      9 CE          1.5630    1.6520    3.6500 c3        1 RHC     -0.013300
     10 N           0.4710    4.9630    6.3450 n4        1 RHC     -0.826600
     11 CA         -0.5990    5.2750    5.3520 c3        1 RHC     -0.074500
     12 CB         -1.4640    4.0750    5.0200 c3        1 RHC     -0.088400
     13 CG         -0.7970    3.0850    4.1070 c3        1 RHC      0.003700
     14 SD          0.5650    2.3030    4.9600 ss        1 RHC     -0.390200
     15 C          -1.4830    6.4960    5.9130 c         1 RHC      0.936600
     16 O          -2.5700    6.6720    5.3380 o         1 RHC     -0.764300
     17 OXT        -0.9410    7.1350    6.8490 o         1 RHC     -0.764300
     18 HC11       -0.4750    0.8430   -0.0470 h2        1 RHC      0.085700
     19 HO11       -0.0320    3.0860    0.5940 ho        1 RHC      0.427000
     20 HC21        2.5090    0.9580    0.1510 h1        1 RHC      0.076700
     21 HO21        1.4160   -0.4400   -1.2490 ho        1 RHC      0.424000
     22 HC31        2.9480    0.0270    2.2470 h1        1 RHC      0.056700
     23 HO31        1.9100   -2.0290    1.3230 ho        1 RHC      0.433000
     24 HC41        0.2900   -0.1270    3.4730 h1        1 RHC      0.115700
     25 HCE1        2.4500    1.2110    4.1700 h1        1 RHC      0.085200
     26 HCE2        1.9000    2.4780    2.9770 h1        1 RHC      0.085200
     27 HCA1       -0.0920    5.6590    4.4230 hx        1 RHC      0.084700
     28 HCB1       -2.3830    4.4900    4.5080 hc        1 RHC      0.097200
     29 HCB2       -1.8250    3.5650    5.9540 hc        1 RHC      0.097200
     30 HCG1       -1.5200    2.2920    3.7900 h1        1 RHC      0.081200
     31 HCG2       -0.4140    3.5760    3.1790 h1        1 RHC      0.081200
     32 HN2         0.8280    5.8700    6.6880 hn        1 RHC      0.447467
     33 H2          0.0530    4.4720    7.1360 hn        1 RHC      0.447467
     34 HN1         1.2030    4.3770    5.9300 hn        1 RHC      0.447467
@<TRIPOS>BOND
     1    1    2 1   
     2    1    3 1   
     3    1    8 1   
     4    1   18 1   
     5    2   19 1   
     6    3    4 1   
     7    3    5 1   
     8    3   20 1   
     9    4   21 1   
    10    5    6 1   
    11    5    7 1   
    12    5   22 1   
    13    6   23 1   
    14    7    8 1   
    15    7    9 1   
    16    7   24 1   
    17    9   14 1   
    18    9   25 1   
    19    9   26 1   
    20   10   11 1   
    21   10   32 1   
    22   10   33 1   
    23   10   34 1   
    24   11   12 1   
    25   11   15 1   
    26   11   27 1   
    27   12   13 1   
    28   12   28 1   
    29   12   29 1   
    30   13   14 1   
    31   13   30 1   
    32   13   31 1   
    33   15   16 1   
    34   15   17 1   
@<TRIPOS>SUBSTRUCTURE
     1 RHC         1 TEMP              0 ****  ****    0 ROOT
