@<TRIPOS>MOLECULE
RHC
   34    34     1     0     0
SMALL
bcc


@<TRIPOS>ATOM
      1 C1          0.2320    0.9990    0.4480 c3        1 RHC      0.297900
      2 O1          0.5690    2.2490   -0.1000 oh        1 RHC     -0.620800
      3 C2          1.4590    0.0670    0.3270 c3        1 RHC      0.088100
      4 O2          1.0390   -1.2340   -0.0280 oh        1 RHC     -0.592800
      5 C3          2.0540    0.0100    1.7540 c3        1 RHC      0.131100
      6 O3          2.2670   -1.2940    2.2290 oh        1 RHC     -0.574800
      7 C4          1.0590    0.7920    2.6480 c3        1 RHC      0.107100
      8 O4         -0.0240    1.2510    1.8240 os        1 RHC     -0.452600
      9 CE          1.7250    1.9790    3.3170 c3        1 RHC     -0.000300
     10 N           0.5140    4.9730    6.4770 n4        1 RHC     -0.825600
     11 CA         -0.6620    5.2910    5.6130 c3        1 RHC     -0.074500
     12 CB         -1.3760    4.0530    5.1060 c3        1 RHC     -0.087400
     13 CG         -0.6270    3.3290    4.0220 c3        1 RHC      0.002700
     14 SD          0.8400    2.5910    4.7230 ss        1 RHC     -0.402200
     15 C          -1.6640    6.2430    6.4360 c         1 RHC      0.937600
     16 O          -2.8060    6.3500    5.9600 o         1 RHC     -0.763300
     17 OXT        -1.1460    6.7820    7.4470 o         1 RHC     -0.763300
     18 HC11       -0.7070    0.5750    0.0040 h2        1 RHC      0.083700
     19 HO11       -0.1240    2.8730    0.1530 ho        1 RHC      0.426000
     20 HC21        2.2000    0.4790   -0.4060 h1        1 RHC      0.084700
     21 HO21        1.0150   -1.2740   -0.9910 ho        1 RHC      0.422000
     22 HC31        3.0730    0.4870    1.7670 h1        1 RHC      0.091700
     23 HO31        1.4800   -1.8220    2.0350 ho        1 RHC      0.427000
     24 HC41        0.5960    0.1120    3.4160 h1        1 RHC      0.096700
     25 HCE1        1.8760    2.7950    2.5690 h1        1 RHC      0.087200
     26 HCE2        2.7180    1.6670    3.7300 h1        1 RHC      0.087200
     27 HCA1       -0.2860    5.9070    4.7500 hx        1 RHC      0.085700
     28 HCB1       -2.3660    4.4160    4.6970 hc        1 RHC      0.098700
     29 HCB2       -1.6190    3.3530    5.9500 hc        1 RHC      0.098700
     30 HCG1       -0.3330    4.0240    3.1990 h1        1 RHC      0.079700
     31 HCG2       -1.2600    2.5220    3.5740 h1        1 RHC      0.079700
     32 HN2         0.2530    4.2420    7.1400 hn        1 RHC      0.447800
     33 H2          1.3100    4.6520    5.9200 hn        1 RHC      0.447800
     34 HN1         0.7230    5.8330    7.0140 hn        1 RHC      0.447800
@<TRIPOS>BOND
     1    1    2 1   
     2    1    3 1   
     3    1    8 1   
     4    1   18 1   
     5    2   19 1   
     6    3    4 1   
     7    3    5 1   
     8    3   20 1   
     9    4   21 1   
    10    5    6 1   
    11    5    7 1   
    12    5   22 1   
    13    6   23 1   
    14    7    8 1   
    15    7    9 1   
    16    7   24 1   
    17    9   14 1   
    18    9   25 1   
    19    9   26 1   
    20   10   11 1   
    21   10   32 1   
    22   10   33 1   
    23   10   34 1   
    24   11   12 1   
    25   11   15 1   
    26   11   27 1   
    27   12   13 1   
    28   12   28 1   
    29   12   29 1   
    30   13   14 1   
    31   13   30 1   
    32   13   31 1   
    33   15   16 1   
    34   15   17 1   
@<TRIPOS>SUBSTRUCTURE
     1 RHC         1 TEMP              0 ****  ****    0 ROOT
