@<TRIPOS>MOLECULE
RHC
   33    33     1     0     0
SMALL
bcc


@<TRIPOS>ATOM
      1 C1         -0.5870    0.8720   -4.1740 c3        1 RHC      0.302900
      2 O1         -0.8960    2.2070   -3.8740 oh        1 RHC     -0.620800
      3 C2          0.8540    0.4860   -3.7530 c3        1 RHC      0.048100
      4 O2          1.6520    0.1220   -4.8600 oh        1 RHC     -0.592800
      5 C3          0.6770   -0.7540   -2.8480 c3        1 RHC      0.121100
      6 O3          0.8880   -1.9670   -3.5410 oh        1 RHC     -0.583800
      7 C4         -0.8140   -0.7140   -2.4430 c3        1 RHC      0.151100
      8 O4         -1.5020    0.0890   -3.4250 os        1 RHC     -0.437600
      9 CE         -1.0250   -0.0880   -1.0790 c3        1 RHC     -0.042300
     10 N           0.8220    1.8210    3.6870 n3        1 RHC     -0.895800
     11 CA          0.4030    0.4430    3.9140 c3        1 RHC      0.016500
     12 CB          0.5210   -0.4350    2.6640 c3        1 RHC     -0.060400
     13 CG         -0.4240    0.0190    1.5830 c3        1 RHC      0.019700
     14 SD         -0.1830   -1.0240    0.1590 ss        1 RHC     -0.328200
     15 C           1.1550   -0.2780    5.0850 c         1 RHC      0.890600
     16 O           2.0190    0.3850    5.7270 o         1 RHC     -0.838300
     17 OXT         0.8350   -1.4720    5.3310 o         1 RHC     -0.838300
     18 HC11       -0.7860    0.7250   -5.2690 h2        1 RHC      0.098700
     19 HO11       -1.1210    2.2630   -2.9360 ho        1 RHC      0.421000
     20 HC21        1.3310    1.3310   -3.1890 h1        1 RHC      0.063700
     21 HO21        1.7290    0.9090   -5.4130 ho        1 RHC      0.412000
     22 HC31        1.3470   -0.7050   -1.9460 h1        1 RHC      0.092700
     23 HO31        1.7550   -1.9030   -3.9640 ho        1 RHC      0.419000
     24 HC41       -1.2790   -1.7340   -2.5090 h1        1 RHC      0.107700
     25 HCE1       -2.1220   -0.0510   -0.8630 h1        1 RHC      0.061200
     26 HCE2       -0.6530    0.9670   -1.0810 h1        1 RHC      0.061200
     27 HCA1       -0.6850    0.4820    4.2140 h1        1 RHC      0.041700
     28 HCB1        1.5760   -0.4220    2.2840 hc        1 RHC      0.063700
     29 HCB2        0.2840   -1.4880    2.9790 hc        1 RHC      0.063700
     30 HCG1       -1.4820   -0.0610    1.9290 h1        1 RHC      0.059200
     31 HCG2       -0.2290    1.0820    1.3030 h1        1 RHC      0.059200
     32 HN1         0.8660    2.2680    4.5880 hn        1 RHC      0.332800
     33 HN2         1.7650    1.8100    3.3370 hn        1 RHC      0.332800
@<TRIPOS>BOND
     1    1    2 1   
     2    1    3 1   
     3    1    8 1   
     4    1   18 1   
     5    2   19 1   
     6    3    4 1   
     7    3    5 1   
     8    3   20 1   
     9    4   21 1   
    10    5    6 1   
    11    5    7 1   
    12    5   22 1   
    13    6   23 1   
    14    7    8 1   
    15    7    9 1   
    16    7   24 1   
    17    9   14 1   
    18    9   25 1   
    19    9   26 1   
    20   10   11 1   
    21   10   32 1   
    22   10   33 1   
    23   11   12 1   
    24   11   15 1   
    25   11   27 1   
    26   12   13 1   
    27   12   28 1   
    28   12   29 1   
    29   13   14 1   
    30   13   30 1   
    31   13   31 1   
    32   15   16 1   
    33   15   17 1   
@<TRIPOS>SUBSTRUCTURE
     1 RHC         1 TEMP              0 ****  ****    0 ROOT
