@<TRIPOS>MOLECULE
RHN
   28    30     1     0     0
SMALL
bcc


@<TRIPOS>ATOM
      1 OAA        -0.0730   -0.1380    0.0780 o         1 RHN     -0.814300
      2 OAB         0.0810    1.1430    4.9950 o         1 RHN     -0.532100
      3 OAC         5.3000    1.1310    5.0090 o         1 RHN     -0.505100
      4 OAD         1.8600   -0.3520   -1.0320 o         1 RHN     -0.814300
      5 OAE         5.4200   -0.0260    7.3840 oh        1 RHN     -0.464100
      6 OAF         5.4410    0.1310    2.5330 oh        1 RHN     -0.489100
      7 CAG         1.9320   -0.1330    8.5630 ca        1 RHN     -0.095000
      8 CAH         3.3210   -0.2090    8.5850 ca        1 RHN     -0.219000
      9 CAI         1.2660    0.1900    7.3830 ca        1 RHN     -0.132000
     10 CAJ         3.3470    0.0030    1.3130 ca        1 RHN     -0.178000
     11 CAK         1.2840    0.3270    2.5190 ca        1 RHN     -0.075000
     12 CAL         1.1860   -0.1580    0.0170 c         1 RHN      0.909200
     13 CAM         1.9620    0.0660    1.3140 ca        1 RHN     -0.082600
     14 CAN         4.0480    0.0520    7.4120 ca        1 RHN      0.153100
     15 CAO         4.0670    0.2030    2.5090 ca        1 RHN      0.146100
     16 CAP         1.2530    0.7440    4.9560 c         1 RHN      0.588300
     17 CAQ         4.1460    0.6920    4.9670 c         1 RHN      0.602300
     18 CAR         1.9900    0.4380    6.2120 ca        1 RHN     -0.094600
     19 CAS         1.9900    0.5080    3.7030 ca        1 RHN     -0.142600
     20 CAT         3.3910    0.3870    6.2100 ca        1 RHN     -0.143600
     21 CAU         3.4040    0.4590    3.7190 ca        1 RHN     -0.190600
     22 HOAE        5.7210   -0.2420    8.2790 ho        1 RHN      0.407000
     23 HOAF        5.7380   -0.0120    1.6210 ho        1 RHN      0.414000
     24 HAG         1.3590   -0.3310    9.4810 ha        1 RHN      0.128000
     25 HAH         3.8510   -0.4700    9.5110 ha        1 RHN      0.127000
     26 HAI         0.1670    0.2560    7.3550 ha        1 RHN      0.155000
     27 HAJ         3.8680   -0.2010    0.3630 ha        1 RHN      0.164000
     28 HAK         0.1800    0.3820    2.4990 ha        1 RHN      0.178000
@<TRIPOS>BOND
     1    1   12 1   
     2    2   16 2   
     3    3   17 2   
     4    4   12 1   
     5    5   14 1   
     6    5   22 1   
     7    6   15 1   
     8    6   23 1   
     9    7    8 ar  
    10    7    9 ar  
    11    7   24 1   
    12    8   14 ar  
    13    8   25 1   
    14    9   18 ar  
    15    9   26 1   
    16   10   13 ar  
    17   10   15 ar  
    18   10   27 1   
    19   11   13 ar  
    20   11   19 ar  
    21   11   28 1   
    22   12   13 1   
    23   14   20 ar  
    24   15   21 ar  
    25   16   18 1   
    26   16   19 1   
    27   17   20 1   
    28   17   21 1   
    29   18   20 ar  
    30   19   21 ar  
@<TRIPOS>SUBSTRUCTURE
     1 RHN         1 TEMP              0 ****  ****    0 ROOT
