@<TRIPOS>MOLECULE
RHN
   28    30     1     0     0
SMALL
bcc


@<TRIPOS>ATOM
      1 OAA        -0.0720   -0.1430    0.0780 o         1 RHN     -0.814300
      2 OAB         0.0800    1.1390    4.9950 o         1 RHN     -0.532100
      3 OAC         5.2990    1.1350    5.0090 o         1 RHN     -0.505100
      4 OAD         1.8600   -0.3540   -1.0320 o         1 RHN     -0.814300
      5 OAE         5.4200   -0.0220    7.3840 oh        1 RHN     -0.464100
      6 OAF         5.4410    0.1350    2.5320 oh        1 RHN     -0.489100
      7 CAG         1.9330   -0.1350    8.5630 ca        1 RHN     -0.095000
      8 CAH         3.3210   -0.2080    8.5850 ca        1 RHN     -0.219000
      9 CAI         1.2660    0.1880    7.3830 ca        1 RHN     -0.132000
     10 CAJ         3.3470    0.0040    1.3130 ca        1 RHN     -0.178000
     11 CAK         1.2830    0.3250    2.5190 ca        1 RHN     -0.075000
     12 CAL         1.1860   -0.1610    0.0170 c         1 RHN      0.909200
     13 CAM         1.9620    0.0640    1.3150 ca        1 RHN     -0.082600
     14 CAN         4.0490    0.0540    7.4110 ca        1 RHN      0.153100
     15 CAO         4.0660    0.2060    2.5080 ca        1 RHN      0.146100
     16 CAP         1.2520    0.7420    4.9560 c         1 RHN      0.588300
     17 CAQ         4.1450    0.6940    4.9670 c         1 RHN      0.602300
     18 CAR         1.9900    0.4370    6.2120 ca        1 RHN     -0.094600
     19 CAS         1.9890    0.5070    3.7030 ca        1 RHN     -0.142600
     20 CAT         3.3910    0.3880    6.2100 ca        1 RHN     -0.143600
     21 CAU         3.4040    0.4600    3.7190 ca        1 RHN     -0.190600
     22 HOAE        5.7220   -0.2370    8.2790 ho        1 RHN      0.407000
     23 HOAF        5.7380   -0.0070    1.6210 ho        1 RHN      0.414000
     24 HAG         1.3600   -0.3330    9.4810 ha        1 RHN      0.128000
     25 HAH         3.8520   -0.4680    9.5110 ha        1 RHN      0.127000
     26 HAI         0.1670    0.2520    7.3550 ha        1 RHN      0.155000
     27 HAJ         3.8680   -0.1990    0.3630 ha        1 RHN      0.164000
     28 HAK         0.1800    0.3770    2.4990 ha        1 RHN      0.178000
@<TRIPOS>BOND
     1    1   12 1   
     2    2   16 2   
     3    3   17 2   
     4    4   12 1   
     5    5   14 1   
     6    5   22 1   
     7    6   15 1   
     8    6   23 1   
     9    7    8 ar  
    10    7    9 ar  
    11    7   24 1   
    12    8   14 ar  
    13    8   25 1   
    14    9   18 ar  
    15    9   26 1   
    16   10   13 ar  
    17   10   15 ar  
    18   10   27 1   
    19   11   13 ar  
    20   11   19 ar  
    21   11   28 1   
    22   12   13 1   
    23   14   20 ar  
    24   15   21 ar  
    25   16   18 1   
    26   16   19 1   
    27   17   20 1   
    28   17   21 1   
    29   18   20 ar  
    30   19   21 ar  
@<TRIPOS>SUBSTRUCTURE
     1 RHN         1 TEMP              0 ****  ****    0 ROOT
