@<TRIPOS>MOLECULE
RHN
   28    30     1     0     0
SMALL
bcc


@<TRIPOS>ATOM
      1 OAA        -4.5710    1.8520    0.2310 o         1 RHN     -0.809800
      2 OAB         0.2520    2.8040   -0.6050 o         1 RHN     -0.531100
      3 OAC         1.4500   -2.3980   -0.4390 o         1 RHN     -0.641100
      4 OAD        -5.2960   -0.2670    0.2630 o         1 RHN     -0.809800
      5 OAE         4.0270   -1.8330    0.2660 oh        1 RHN     -0.517100
      6 OAF        -1.1940   -3.0500   -0.0270 oh        1 RHN     -0.512100
      7 CAG         4.1800    1.7730    0.3860 ca        1 RHN     -0.091000
      8 CAH         4.5290    0.4340    0.4220 ca        1 RHN     -0.171000
      9 CAI         2.8570    2.1470    0.1410 ca        1 RHN     -0.137000
     10 CAJ        -2.6600   -1.2400    0.0720 ca        1 RHN     -0.135000
     11 CAK        -1.8930    1.0410   -0.0730 ca        1 RHN     -0.070000
     12 CAL        -4.3890    0.6060    0.1950 c         1 RHN      0.908200
     13 CAM        -2.9470    0.1110    0.0630 ca        1 RHN     -0.078600
     14 CAN         3.5410   -0.5560    0.2090 ca        1 RHN      0.185100
     15 CAO        -1.3200   -1.6870   -0.0460 ca        1 RHN      0.187100
     16 CAP         0.4820    1.6220   -0.3080 c         1 RHN      0.583300
     17 CAQ         1.1360   -1.2030   -0.2260 c         1 RHN      0.624300
     18 CAR         1.8770    1.1750   -0.0580 ca        1 RHN     -0.081600
     19 CAS        -0.5780    0.6130   -0.1700 ca        1 RHN     -0.137600
     20 CAT         2.1980   -0.1950   -0.0240 ca        1 RHN     -0.208600
     21 CAU        -0.2550   -0.7720   -0.1470 ca        1 RHN     -0.258600
     22 HOAE        3.3210   -2.4750    0.0880 ho        1 RHN      0.461000
     23 HOAF       -0.2740   -3.3080   -0.1830 ho        1 RHN      0.443000
     24 HAG         4.9470    2.5460    0.5470 ha        1 RHN      0.131000
     25 HAH         5.5630    0.1130    0.6100 ha        1 RHN      0.146000
     26 HAI         2.5730    3.2110    0.0980 ha        1 RHN      0.158000
     27 HAJ        -3.4780   -1.9740    0.1660 ha        1 RHN      0.179000
     28 HAK        -2.1480    2.1160   -0.0980 ha        1 RHN      0.183000
@<TRIPOS>BOND
     1    1   12 1   
     2    2   16 2   
     3    3   17 2   
     4    4   12 1   
     5    5   14 1   
     6    5   22 1   
     7    6   15 1   
     8    6   23 1   
     9    7    8 ar  
    10    7    9 ar  
    11    7   24 1   
    12    8   14 ar  
    13    8   25 1   
    14    9   18 ar  
    15    9   26 1   
    16   10   13 ar  
    17   10   15 ar  
    18   10   27 1   
    19   11   13 ar  
    20   11   19 ar  
    21   11   28 1   
    22   12   13 1   
    23   14   20 ar  
    24   15   21 ar  
    25   16   18 1   
    26   16   19 1   
    27   17   20 1   
    28   17   21 1   
    29   18   20 ar  
    30   19   21 ar  
@<TRIPOS>SUBSTRUCTURE
     1 RHN         1 TEMP              0 ****  ****    0 ROOT
