@<TRIPOS>MOLECULE
RHN
   28    24     1     0     0
SMALL
bcc


@<TRIPOS>ATOM
      1 OAA        -3.8170    0.8420   -3.9930 o         1 RHN     -0.549000
      2 OAB         0.4470    2.7090   -0.6160 o         1 RHN     -0.293000
      3 OAC         0.1620   -2.3390    1.1070 o         1 RHN     -0.266000
      4 OAD        -2.0720    0.4200   -5.2310 o         1 RHN     -0.549000
      5 OAE         1.8140   -1.8000    3.2800 oh        1 RHN     -0.218000
      6 OAF        -1.2720   -3.0700   -0.8930 oh        1 RHN     -0.243000
      7 CAG         2.4860    1.7260    2.9610 c1        1 RHN     -0.113500
      8 CAH         2.3990    0.4140    3.4190 c1        1 RHN     -0.219000
      9 CAI         1.8470    2.0950    1.7850 c1        1 RHN     -0.113500
     10 CAJ        -1.9510   -1.3350   -2.4230 c1        1 RHN     -0.178000
     11 CAK        -1.1190    0.9120   -2.1730 c1        1 RHN     -0.075000
     12 CAL        -2.6280    0.4430   -4.1010 c2        1 RHN      0.358000
     13 CAM        -1.8720   -0.0210   -2.8750 c1        1 RHN     -0.062000
     14 CAN         1.6730   -0.5260    2.6990 c2        1 RHN      0.108000
     15 CAO        -1.2770   -1.7140   -1.2690 c2        1 RHN      0.101000
     16 CAP         0.3780    1.5630   -0.2210 c1        1 RHN      0.308000
     17 CAQ         0.2120   -1.1870    0.7250 c1        1 RHN      0.322000
     18 CAR         1.1130    1.1470    1.0570 c1        1 RHN     -0.074000
     19 CAS        -0.4380    0.5290   -1.0080 c1        1 RHN     -0.122000
     20 CAT         1.0270   -0.1540    1.5110 c1        1 RHN     -0.123000
     21 CAU        -0.5160   -0.7730   -0.5590 c2        1 RHN     -0.170000
     22 HOAE        1.3530   -1.8320    4.0390 ho        1 RHN      0.206000
     23 HOAF       -2.0830   -3.4150   -1.0160 ho        1 RHN      0.213000
     24 HAG         2.9970    2.3860    3.4670 ha        1 RHN      0.141500
     25 HAH         2.8480    0.1550    4.2460 ha        1 RHN      0.127000
     26 HAI         1.9090    3.0150    1.4640 ha        1 RHN      0.141500
     27 HAJ        -2.4810   -2.0200   -2.8730 ha        1 RHN      0.164000
     28 HAK        -1.1400    1.8280   -2.5080 ha        1 RHN      0.178000
@<TRIPOS>BOND
     1    1   12 1   
     2    2   16 1   
     3    3   17 1   
     4    4   12 1   
     5    5   14 1   
     6    5   22 1   
     7    6   15 1   
     8    6   23 1   
     9    7    9 1   
    10    7   24 1   
    11    8   14 1   
    12    8   25 1   
    13    9   26 1   
    14   10   15 1   
    15   10   27 1   
    16   11   13 1   
    17   11   28 1   
    18   12   13 1   
    19   14   20 1   
    20   15   21 1   
    21   16   19 1   
    22   17   21 1   
    23   18   20 1   
    24   19   21 1   
@<TRIPOS>SUBSTRUCTURE
     1 RHN         1 TEMP              0 ****  ****    0 ROOT
