@<TRIPOS>MOLECULE
RHO
   60    64     1     0     0
SMALL
bcc


@<TRIPOS>ATOM
      1 C          -1.7720   -1.6100   -0.3460 ca        1 RHO      0.164600
      2 C1         -2.4370   -0.6050    0.3840 ca        1 RHO     -0.284300
      3 C2         -3.2480   -0.9620    1.4700 ca        1 RHO      0.371000
      4 C3         -3.4490   -2.3010    1.8490 ca        1 RHO     -0.163300
      5 C4         -2.7710   -3.2870    1.1200 ca        1 RHO     -0.040000
      6 C5         -1.9600   -2.9600    0.0450 ca        1 RHO     -0.208000
      7 N          -0.8830   -1.2820   -1.3990 nh        1 RHO     -0.648000
      8 C6         -0.9360    0.0690   -1.8970 c3        1 RHO      0.183600
      9 C7         -0.6720   -2.3020   -2.3950 c3        1 RHO      0.183600
     10 OH1        -3.8440    0.1070    2.1190 os        1 RHO     -0.415800
     11 C8         -4.3120   -2.5920    2.9800 cc        1 RHO      0.013000
     12 C9         -4.6220   -0.1800    3.2430 cd        1 RHO      0.281700
     13 C10        -5.1680    0.9070    3.8510 ce        1 RHO     -0.185000
     14 C11        -6.0300    0.7230    5.0130 ce        1 RHO      0.093000
     15 C12        -6.2610   -0.5320    5.4810 c2        1 RHO     -0.196200
     16 C13        -5.6440   -1.7470    4.9120 c3        1 RHO     -0.027900
     17 C14        -4.8430   -1.5480    3.6750 cd        1 RHO     -0.135600
     18 N1         -6.5420    1.9160    5.6180 nh        1 RHO     -0.628400
     19 C15        -7.4880    2.6310    4.7910 c3        1 RHO      0.169600
     20 C16        -6.9780    1.7730    6.9860 c3        1 RHO      0.169600
     21 C17        -4.6180   -3.9930    3.2900 ca        1 RHO     -0.047000
     22 C18        -4.0300   -4.6940    4.3510 ca        1 RHO     -0.070600
     23 C19        -4.3830   -6.0290    4.5790 ca        1 RHO     -0.123000
     24 C20        -5.3310   -6.6760    3.7670 ca        1 RHO      0.028600
     25 C21        -5.9180   -5.9650    2.6970 ca        1 RHO     -0.169000
     26 C22        -5.5570   -4.6450    2.4740 ca        1 RHO     -0.121000
     27 C23        -3.0110   -4.0720    5.3100 c         1 RHO      0.915200
     28 OH2        -3.4690   -3.5360    6.3590 o         1 RHO     -0.810300
     29 OH3        -1.7930   -4.1680    5.0150 o         1 RHO     -0.810300
     30 N2         -5.7040   -8.0210    4.0120 n         1 RHO     -0.417600
     31 C24        -4.8710   -9.0180    4.6000 c         1 RHO      0.689700
     32 OH4        -3.6860   -8.9170    4.9110 o         1 RHO     -0.550000
     33 C25        -5.7260  -10.2640    4.7550 cc        1 RHO     -0.186200
     34 C26        -6.9600  -10.0010    4.2890 cd        1 RHO     -0.186200
     35 C27        -6.9990   -8.5660    3.7960 c         1 RHO      0.689700
     36 OH5        -7.9750   -8.0060    3.2930 o         1 RHO     -0.550000
     37 HC1        -2.3360    0.4630    0.1460 ha        1 RHO      0.141000
     38 HC4        -2.8810   -4.3410    1.4260 ha        1 RHO      0.158000
     39 HC5        -1.4440   -3.7730   -0.4850 ha        1 RHO      0.129000
     40 HC61       -0.2110    0.1860   -2.7450 h1        1 RHO      0.032033
     41 HC62       -0.6300    0.7700   -1.0750 h1        1 RHO      0.032033
     42 HC63       -1.9600    0.3640   -2.2580 h1        1 RHO      0.032033
     43 HC71       -0.0550   -3.1240   -1.9420 h1        1 RHO      0.032033
     44 HC72       -0.1040   -1.8800   -3.2650 h1        1 RHO      0.032033
     45 HC73       -1.6330   -2.7440   -2.7760 h1        1 RHO      0.032033
     46 H10C       -4.9530    1.9210    3.4890 ha        1 RHO      0.141000
     47 H12C       -6.9070   -0.7200    6.3530 ha        1 RHO      0.120000
     48 H131       -6.4500   -2.5080    4.7120 hc        1 RHO      0.108200
     49 H132       -4.9550   -2.2160    5.6930 hc        1 RHO      0.108200
     50 H151       -7.0860    2.7110    3.7470 h1        1 RHO      0.027867
     51 H152       -7.6170    3.6620    5.2130 h1        1 RHO      0.027867
     52 H153       -8.4980    2.1380    4.7470 h1        1 RHO      0.027867
     53 H161       -7.9470    1.2100    7.0930 h1        1 RHO      0.027867
     54 H162       -7.1190    2.7990    7.4170 h1        1 RHO      0.027867
     55 H163       -6.1850    1.2370    7.5710 h1        1 RHO      0.027867
     56 H19C       -3.8880   -6.5620    5.4070 ha        1 RHO      0.159000
     57 H21C       -6.6750   -6.4400    2.0560 ha        1 RHO      0.134000
     58 H22C       -6.0210   -4.0970    1.6400 ha        1 RHO      0.123000
     59 H25C       -5.3070  -11.1700    5.1880 ha        1 RHO      0.169000
     60 H26C       -7.8470  -10.6310    4.2300 ha        1 RHO      0.169000
@<TRIPOS>BOND
     1    1    2 ar  
     2    1    6 ar  
     3    1    7 1   
     4    2    3 ar  
     5    2   37 1   
     6    3    4 ar  
     7    3   10 1   
     8    4    5 ar  
     9    4   11 1   
    10    5    6 ar  
    11    5   38 1   
    12    6   39 1   
    13    7    8 1   
    14    7    9 1   
    15    8   40 1   
    16    8   41 1   
    17    8   42 1   
    18    9   43 1   
    19    9   44 1   
    20    9   45 1   
    21   10   12 1   
    22   11   17 2   
    23   11   21 1   
    24   12   13 2   
    25   12   17 1   
    26   13   14 1   
    27   13   46 1   
    28   14   15 2   
    29   14   18 1   
    30   15   16 1   
    31   15   47 1   
    32   16   17 1   
    33   16   48 1   
    34   16   49 1   
    35   18   19 1   
    36   18   20 1   
    37   19   50 1   
    38   19   51 1   
    39   19   52 1   
    40   20   53 1   
    41   20   54 1   
    42   20   55 1   
    43   21   22 ar  
    44   21   26 ar  
    45   22   23 ar  
    46   22   27 1   
    47   23   24 ar  
    48   23   56 1   
    49   24   25 ar  
    50   24   30 1   
    51   25   26 ar  
    52   25   57 1   
    53   26   58 1   
    54   27   28 1   
    55   27   29 1   
    56   30   31 1   
    57   30   35 1   
    58   31   32 2   
    59   31   33 1   
    60   33   34 2   
    61   33   59 1   
    62   34   35 1   
    63   34   60 1   
    64   35   36 2   
@<TRIPOS>SUBSTRUCTURE
     1 RHO         1 TEMP              0 ****  ****    0 ROOT
