@<TRIPOS>MOLECULE
RHO
   61    65     1     0     0
SMALL
bcc


@<TRIPOS>ATOM
      1 C           0.0090   -0.1460   -0.0070 ca        1 RHO      0.210600
      2 C1          1.3710    0.1760   -0.2100 ca        1 RHO     -0.293300
      3 C2          2.1810    0.4580    0.8940 ca        1 RHO      0.385000
      4 C3          1.6850    0.4970    2.2140 ca        1 RHO     -0.206300
      5 C4          0.3400    0.1440    2.3970 ca        1 RHO     -0.032000
      6 C5         -0.4820   -0.1630    1.3270 ca        1 RHO     -0.219000
      7 N          -0.8080   -0.5080   -1.0860 nh        1 RHO     -0.664000
      8 C6         -0.3570   -0.1870   -2.4140 c3        1 RHO      0.191600
      9 C7         -2.2300   -0.5580   -0.8710 c3        1 RHO      0.191600
     10 OH1         3.5230    0.6790    0.5790 os        1 RHO     -0.402800
     11 C8          2.5610    0.9320    3.2900 cc        1 RHO      0.114000
     12 C9          4.3610    0.8070    1.6760 cd        1 RHO      0.345700
     13 C10         5.6460    0.3660    1.5870 ce        1 RHO     -0.254000
     14 C11         6.4150    0.3820    2.8290 ce        1 RHO     -0.052000
     15 C12         6.0790    1.1800    3.8760 c2        1 RHO     -0.033200
     16 C13         4.8210    1.9700    3.8180 c3        1 RHO      0.006100
     17 C14         3.8300    1.2840    2.9450 cd        1 RHO     -0.233600
     18 N1          7.4100   -0.6930    2.9880 n4        1 RHO     -0.531200
     19 C15         8.7140   -0.1830    3.4690 c3        1 RHO      0.069100
     20 C16         6.8610   -1.7320    3.9150 c3        1 RHO      0.069100
     21 C17         2.0970    0.9480    4.6780 ca        1 RHO     -0.075000
     22 C18         2.7590    0.1910    5.6620 ca        1 RHO     -0.061600
     23 C19         2.2750    0.1860    6.9730 ca        1 RHO     -0.124000
     24 C20         1.1390    0.9410    7.3290 ca        1 RHO      0.060600
     25 C21         0.4940    1.7130    6.3380 ca        1 RHO     -0.162000
     26 C22         0.9750    1.7070    5.0360 ca        1 RHO     -0.111000
     27 C23         4.0230   -0.6030    5.3890 c         1 RHO      0.910200
     28 OH2         3.9900   -1.6460    4.6830 o         1 RHO     -0.839300
     29 OH3         5.1120   -0.1670    5.8860 o         1 RHO     -0.839300
     30 N2          0.6560    0.9360    8.6560 n         1 RHO     -0.432600
     31 C24         0.8260   -0.1240    9.5990 c         1 RHO      0.691700
     32 OH4         1.3780   -1.2050    9.4040 o         1 RHO     -0.545500
     33 C25         0.1800    0.3360   10.8910 cc        1 RHO     -0.175700
     34 C26        -0.3230    1.5720   10.7100 cd        1 RHO     -0.175700
     35 C27        -0.0450    2.0070    9.2850 c         1 RHO      0.691700
     36 OH5        -0.3690    3.0800    8.7740 o         1 RHO     -0.545500
     37 HC1         1.8270    0.1900   -1.2090 ha        1 RHO      0.152000
     38 HC4        -0.0680    0.1130    3.4220 ha        1 RHO      0.155000
     39 HC5        -1.5290   -0.4300    1.5320 ha        1 RHO      0.139000
     40 HC61       -0.0990    0.9020   -2.5230 h1        1 RHO      0.040033
     41 HC62        0.5570   -0.7970   -2.6470 h1        1 RHO      0.040033
     42 HC63       -1.1510   -0.4440   -3.1620 h1        1 RHO      0.040033
     43 HC71       -2.7550   -0.7840   -1.8360 h1        1 RHO      0.040033
     44 HC72       -2.4630   -1.3830   -0.1440 h1        1 RHO      0.040033
     45 HC73       -2.6330    0.4080   -0.4600 h1        1 RHO      0.040033
     46 H10C        6.0770   -0.0170    0.6570 ha        1 RHO      0.144000
     47 H12C        6.6170    1.1920    4.8380 ha        1 RHO      0.172000
     48 H131        4.4200    2.0610    4.8690 hc        1 RHO      0.089200
     49 H132        5.0210    3.0050    3.4250 hc        1 RHO      0.089200
     50 H151        8.5940    0.2240    4.5080 hx        1 RHO      0.107533
     51 H152        9.0710    0.6320    2.7860 hx        1 RHO      0.107533
     52 H153        9.4550   -1.0250    3.4840 hx        1 RHO      0.107533
     53 H161        7.6130   -2.5510    4.0200 hx        1 RHO      0.107533
     54 H162        5.8770   -2.1130    3.5120 hx        1 RHO      0.107533
     55 H163        6.6010   -1.2610    4.9160 hx        1 RHO      0.107533
     56 H19C        2.8070   -0.4260    7.7210 ha        1 RHO      0.170000
     57 H21C       -0.3790    2.3350    6.5890 ha        1 RHO      0.151000
     58 H22C        0.4670    2.3180    4.2740 ha        1 RHO      0.132000
     59 H25C        0.1800   -0.3090   11.7690 ha        1 RHO      0.179500
     60 H26C       -0.8540    2.2310   11.3960 ha        1 RHO      0.179500
     61 H11         7.5490   -1.1230    2.0660 hn        1 RHO      0.430800
@<TRIPOS>BOND
     1    1    2 ar  
     2    1    6 ar  
     3    1    7 1   
     4    2    3 ar  
     5    2   37 1   
     6    3    4 ar  
     7    3   10 1   
     8    4    5 ar  
     9    4   11 1   
    10    5    6 ar  
    11    5   38 1   
    12    6   39 1   
    13    7    8 1   
    14    7    9 1   
    15    8   40 1   
    16    8   41 1   
    17    8   42 1   
    18    9   43 1   
    19    9   44 1   
    20    9   45 1   
    21   10   12 1   
    22   11   17 2   
    23   11   21 1   
    24   12   13 2   
    25   12   17 1   
    26   13   14 1   
    27   13   46 1   
    28   14   15 2   
    29   14   18 1   
    30   15   16 1   
    31   15   47 1   
    32   16   17 1   
    33   16   48 1   
    34   16   49 1   
    35   18   19 1   
    36   18   20 1   
    37   18   61 1   
    38   19   50 1   
    39   19   51 1   
    40   19   52 1   
    41   20   53 1   
    42   20   54 1   
    43   20   55 1   
    44   21   22 ar  
    45   21   26 ar  
    46   22   23 ar  
    47   22   27 1   
    48   23   24 ar  
    49   23   56 1   
    50   24   25 ar  
    51   24   30 1   
    52   25   26 ar  
    53   25   57 1   
    54   26   58 1   
    55   27   28 1   
    56   27   29 1   
    57   30   31 1   
    58   30   35 1   
    59   31   32 2   
    60   31   33 1   
    61   33   34 2   
    62   33   59 1   
    63   34   35 1   
    64   34   60 1   
    65   35   36 2   
@<TRIPOS>SUBSTRUCTURE
     1 RHO         1 TEMP              0 ****  ****    0 ROOT
