@<TRIPOS>MOLECULE
RHO
   60    56     1     0     0
SMALL
bcc


@<TRIPOS>ATOM
      1 C          -2.0470   -0.3850   -3.9150 c1        1 RHO      0.031500
      2 C1         -0.6680   -0.2760   -3.9090 c1        1 RHO     -0.181000
      3 C2          0.0270   -0.2240   -2.6860 c1        1 RHO      0.096000
      4 C3         -0.6800   -0.2830   -1.4810 c1        1 RHO     -0.083000
      5 C4         -2.0760   -0.3930   -1.4940 c1        1 RHO     -0.050000
      6 C5         -2.7570   -0.4430   -2.6950 c1        1 RHO     -0.196500
      7 N          -2.7470   -0.3330   -5.1250 n3        1 RHO     -0.234000
      8 C6         -3.1320   -1.5790   -5.7940 c3        1 RHO     -0.106750
      9 C7         -3.0880    0.9950   -5.7400 c3        1 RHO     -0.106750
     10 OH1         1.4890    0.1120   -2.6810 os        1 RHO     -0.156000
     11 C8          0.0640   -0.1840   -0.1600 c2        1 RHO      0.005000
     12 C9          2.2230    0.1200   -1.4400 c2        1 RHO      0.084000
     13 C10         3.7240    0.1800   -1.4570 c1        1 RHO     -0.182000
     14 C11         4.4860   -0.0540   -0.2180 c1        1 RHO      0.031500
     15 C12         3.7600   -0.2260    1.0890 c1        1 RHO     -0.196500
     16 C13         2.2700    0.0850    1.1760 c2        1 RHO     -0.119000
     17 C14         1.5060   -0.0560   -0.1600 c2        1 RHO     -0.055000
     18 N1          5.9470    0.0330   -0.2340 n3        1 RHO     -0.234000
     19 C15         6.7670   -1.2020   -0.3960 c3        1 RHO     -0.106750
     20 C16         6.5820    1.2930   -0.1150 c3        1 RHO     -0.106750
     21 C17        -0.7380    0.0060    1.1770 c2        1 RHO     -0.047000
     22 C18        -1.0840   -1.1050    1.9420 c2        1 RHO     -0.052000
     23 C19        -1.7970   -0.9380    3.1260 c1        1 RHO     -0.123000
     24 C20        -2.1690    0.3620    3.5480 c1        1 RHO      0.036000
     25 C21        -1.8230    1.4600    2.7820 c1        1 RHO     -0.168000
     26 C22        -1.1050    1.2860    1.5920 c1        1 RHO     -0.120000
     27 C23        -0.7670   -2.4990    1.4360 c2        1 RHO      0.365000
     28 OH2         0.1790   -3.1710    1.9690 o         1 RHO     -0.546500
     29 OH3        -1.5190   -3.0430    0.5620 o         1 RHO     -0.546500
     30 N2         -2.9060    0.5400    4.7760 n         1 RHO     -0.291000
     31 C24        -2.3680    1.1930    6.0930 c2        1 RHO      0.326000
     32 OH4        -1.2560    0.9940    6.6020 o         1 RHO     -0.259000
     33 C25        -3.5790    1.5650    6.8100 c2        1 RHO     -0.163000
     34 C26        -4.6920    1.2650    6.1650 c1        1 RHO     -0.171000
     35 C27        -4.4790    0.6330    4.9150 c1        1 RHO      0.330000
     36 OH5        -5.3160    0.2580    4.1260 o         1 RHO     -0.291000
     37 HC1        -0.1810   -0.2370   -4.7430 ha        1 RHO      0.145000
     38 HC4        -2.5590   -0.4320   -0.6710 ha        1 RHO      0.159000
     39 HC5        -3.7430   -0.5210   -2.6990 ha        1 RHO      0.124000
     40 HC61       -3.5910   -2.1860   -5.1310 h1        1 RHO      0.069833
     41 HC62       -3.7340   -1.3860   -6.5230 h1        1 RHO      0.069833
     42 HC63       -2.3240   -2.0270   -6.1430 h1        1 RHO      0.069833
     43 HC71       -3.7340    1.4670   -5.1640 h1        1 RHO      0.069833
     44 HC72       -3.4880    0.8520   -6.6390 h1        1 RHO      0.069833
     45 HC73       -2.2650    1.5400   -5.8260 h1        1 RHO      0.069833
     46 H10C        4.2070    0.3770   -2.3110 ha        1 RHO      0.141000
     47 H12C        4.2660   -0.3810    1.9030 ha        1 RHO      0.124000
     48 H131        2.1400    0.9560    1.5320 ha        1 RHO      0.147500
     49 H132        1.8340   -0.4800    1.8940 ha        1 RHO      0.147500
     50 H151        6.6080   -1.5880   -1.2990 h1        1 RHO      0.069833
     51 H152        6.5100   -1.8610    0.2910 h1        1 RHO      0.069833
     52 H153        7.7270   -0.9770   -0.2960 h1        1 RHO      0.069833
     53 H161        6.2000    1.9150   -0.7750 h1        1 RHO      0.069833
     54 H162        7.5380    1.1920   -0.2790 h1        1 RHO      0.069833
     55 H163        6.4350    1.6610    0.8210 h1        1 RHO      0.069833
     56 H19C       -2.0390   -1.7110    3.6600 ha        1 RHO      0.159000
     57 H21C       -2.0820    2.3730    3.0750 ha        1 RHO      0.135000
     58 H22C       -0.8570    2.0660    1.0480 ha        1 RHO      0.124000
     59 H25C       -3.5760    1.5980    7.7710 ha        1 RHO      0.171000
     60 H26C       -5.5250    1.8060    6.3200 ha        1 RHO      0.168000
@<TRIPOS>BOND
     1    1    6 1   
     2    1    7 1   
     3    2    3 1   
     4    2   37 1   
     5    3   10 1   
     6    4    5 1   
     7    4   11 1   
     8    5   38 1   
     9    6   39 1   
    10    7    8 1   
    11    7    9 1   
    12    8   40 1   
    13    8   41 1   
    14    8   42 1   
    15    9   43 1   
    16    9   44 1   
    17    9   45 1   
    18   10   12 1   
    19   11   17 1   
    20   11   21 1   
    21   12   13 1   
    22   12   17 1   
    23   13   46 1   
    24   14   15 1   
    25   14   18 1   
    26   15   47 1   
    27   16   17 1   
    28   16   48 1   
    29   16   49 1   
    30   18   19 1   
    31   18   20 1   
    32   19   50 1   
    33   19   51 1   
    34   19   52 1   
    35   20   53 1   
    36   20   54 1   
    37   20   55 1   
    38   21   22 1   
    39   21   26 1   
    40   22   23 1   
    41   22   27 1   
    42   23   56 1   
    43   24   25 1   
    44   24   30 1   
    45   25   57 1   
    46   26   58 1   
    47   27   28 1   
    48   27   29 1   
    49   30   31 1   
    50   30   35 1   
    51   31   32 1   
    52   31   33 1   
    53   33   34 1   
    54   33   59 1   
    55   34   60 1   
    56   35   36 1   
@<TRIPOS>SUBSTRUCTURE
     1 RHO         1 TEMP              0 ****  ****    0 ROOT
