@<TRIPOS>MOLECULE
RHO
   62    66     1     0     0
SMALL
bcc


@<TRIPOS>ATOM
      1 C          -0.1220   -0.2140    0.0880 ca        1 RHO     -0.039400
      2 C1          1.2010    0.1710   -0.1770 ca        1 RHO     -0.201300
      3 C2          2.0040    0.5620    0.9000 ca        1 RHO      0.362000
      4 C3          1.5060    0.6110    2.2250 ca        1 RHO     -0.073300
      5 C4          0.1860    0.2010    2.4490 ca        1 RHO     -0.058000
      6 C5         -0.6300   -0.2090    1.3990 ca        1 RHO     -0.133000
      7 N          -0.9950   -0.6540   -1.0160 n4        1 RHO     -0.544800
      8 C6         -1.1940    0.4330   -2.0130 c3        1 RHO      0.089100
      9 C7         -0.4630   -1.8850   -1.6610 c3        1 RHO      0.089100
     10 OH1         3.3130    0.8830    0.5630 os        1 RHO     -0.395800
     11 C8          2.3760    1.0920    3.2930 cc        1 RHO      0.047000
     12 C9          4.1690    1.0000    1.6620 cd        1 RHO      0.275700
     13 C10         5.4450    0.5490    1.5630 ce        1 RHO     -0.158000
     14 C11         6.2500    0.5890    2.7830 ce        1 RHO     -0.087000
     15 C12         5.9050    1.3720    3.8420 c2        1 RHO      0.020800
     16 C13         4.6280    2.1310    3.8240 c3        1 RHO     -0.014900
     17 C14         3.6360    1.4610    2.9390 cd        1 RHO     -0.142600
     18 N1          7.3110   -0.4230    2.9050 n4        1 RHO     -0.529200
     19 C15         6.9470   -1.4070    3.9730 c3        1 RHO      0.072600
     20 C16         8.6360    0.1890    3.1670 c3        1 RHO      0.072600
     21 C17         1.9300    1.0450    4.6830 ca        1 RHO     -0.105000
     22 C18         2.6150    0.2130    5.5900 ca        1 RHO     -0.060600
     23 C19         2.1760    0.1160    6.9090 ca        1 RHO     -0.126000
     24 C20         1.0570    0.8530    7.3550 ca        1 RHO      0.085600
     25 C21         0.3900    1.6990    6.4390 ca        1 RHO     -0.164000
     26 C22         0.8290    1.7860    5.1250 ca        1 RHO     -0.112000
     27 C23         3.8590   -0.5490    5.1770 c         1 RHO      0.908200
     28 OH2         4.9790   -0.1380    5.6170 o         1 RHO     -0.837300
     29 OH3         3.7770   -1.5240    4.3790 o         1 RHO     -0.837300
     30 N2          0.6150    0.7560    8.6890 n         1 RHO     -0.444600
     31 C24         0.8540   -0.3480    9.5700 c         1 RHO      0.692700
     32 OH4         1.4210   -1.4000    9.2820 o         1 RHO     -0.541000
     33 C25        -0.2870    1.2560   10.8150 cc        1 RHO     -0.167200
     34 C26         0.2580    0.0280   10.9090 cd        1 RHO     -0.167200
     35 C27        -0.0880    1.7740    9.4070 c         1 RHO      0.692700
     36 OH5        -0.4630    2.8570    8.9590 o         1 RHO     -0.541000
     37 HC1         1.6310    0.1660   -1.1900 ha        1 RHO      0.163000
     38 HC4        -0.2060    0.1960    3.4830 ha        1 RHO      0.192000
     39 HC5        -1.6610   -0.5290    1.6200 ha        1 RHO      0.153000
     40 HC61       -1.9070    0.0770   -2.8040 hx        1 RHO      0.103867
     41 HC62       -1.6130    1.3360   -1.4940 hx        1 RHO      0.103867
     42 HC63       -0.2090    0.6990   -2.4800 hx        1 RHO      0.103867
     43 HC71       -1.1820   -2.2240   -2.4520 hx        1 RHO      0.103867
     44 HC72       -0.3400   -2.6850   -0.8810 hx        1 RHO      0.103867
     45 HC73        0.5360   -1.6650   -2.1230 hx        1 RHO      0.103867
     46 H10C        5.8570    0.1500    0.6280 ha        1 RHO      0.152000
     47 H12C        6.4840    1.4190    4.7810 ha        1 RHO      0.180000
     48 H131        4.2360    2.1750    4.8830 hc        1 RHO      0.107700
     49 H132        4.8000    3.1860    3.4690 hc        1 RHO      0.107700
     50 H151        7.0020   -0.9110    4.9830 hx        1 RHO      0.110200
     51 H152        5.8610   -1.7230    3.8500 hx        1 RHO      0.110200
     52 H153        7.6460   -2.2770    3.9060 hx        1 RHO      0.110200
     53 H161        9.4080   -0.6230    3.2240 hx        1 RHO      0.110200
     54 H162        8.6050    0.7430    4.1430 hx        1 RHO      0.110200
     55 H163        8.8890    0.9040    2.3400 hx        1 RHO      0.110200
     56 H19C        2.7280   -0.5520    7.5950 ha        1 RHO      0.179000
     57 H21C       -0.4680    2.3110    6.7620 ha        1 RHO      0.161000
     58 H22C        0.3070    2.4620    4.4300 ha        1 RHO      0.126000
     59 H25C       -0.8020    1.8630   11.5600 ha        1 RHO      0.188000
     60 H26C        0.3150   -0.6610   11.7520 ha        1 RHO      0.188000
     61 HN1        -1.9140   -0.8820   -0.6070 hn        1 RHO      0.452800
     62 H11         7.3590   -0.9270    2.0110 hn        1 RHO      0.435800
@<TRIPOS>BOND
     1    1    2 ar  
     2    1    6 ar  
     3    1    7 1   
     4    2    3 ar  
     5    2   37 1   
     6    3    4 ar  
     7    3   10 1   
     8    4    5 ar  
     9    4   11 1   
    10    5    6 ar  
    11    5   38 1   
    12    6   39 1   
    13    7    8 1   
    14    7    9 1   
    15    7   61 1   
    16    8   40 1   
    17    8   41 1   
    18    8   42 1   
    19    9   43 1   
    20    9   44 1   
    21    9   45 1   
    22   10   12 1   
    23   11   17 2   
    24   11   21 1   
    25   12   13 2   
    26   12   17 1   
    27   13   14 1   
    28   13   46 1   
    29   14   15 2   
    30   14   18 1   
    31   15   16 1   
    32   15   47 1   
    33   16   17 1   
    34   16   48 1   
    35   16   49 1   
    36   18   19 1   
    37   18   20 1   
    38   18   62 1   
    39   19   50 1   
    40   19   51 1   
    41   19   52 1   
    42   20   53 1   
    43   20   54 1   
    44   20   55 1   
    45   21   22 ar  
    46   21   26 ar  
    47   22   23 ar  
    48   22   27 1   
    49   23   24 ar  
    50   23   56 1   
    51   24   25 ar  
    52   24   30 1   
    53   25   26 ar  
    54   25   57 1   
    55   26   58 1   
    56   27   28 1   
    57   27   29 1   
    58   30   31 1   
    59   30   35 1   
    60   31   32 2   
    61   31   34 1   
    62   33   34 2   
    63   33   35 1   
    64   33   59 1   
    65   34   60 1   
    66   35   36 2   
@<TRIPOS>SUBSTRUCTURE
     1 RHO         1 TEMP              0 ****  ****    0 ROOT
