@<TRIPOS>MOLECULE
RHO
   61    65     1     0     0
SMALL
bcc


@<TRIPOS>ATOM
      1 C          -0.0160    0.0820   -0.0390 ca        1 RHO      0.206600
      2 C1          1.3560    0.3630   -0.2250 ca        1 RHO     -0.292300
      3 C2          2.1640    0.6120    0.8880 ca        1 RHO      0.384000
      4 C3          1.6610    0.6270    2.2060 ca        1 RHO     -0.204300
      5 C4          0.3090    0.2930    2.3750 ca        1 RHO     -0.033000
      6 C5         -0.5110    0.0250    1.2930 ca        1 RHO     -0.215000
      7 N          -0.8750   -0.0830   -1.1350 nh        1 RHO     -0.659000
      8 C6         -0.2850   -0.2490   -2.4370 c3        1 RHO      0.187600
      9 C7         -2.1320   -0.7490   -0.9050 c3        1 RHO      0.187600
     10 OH1         3.5120    0.8110    0.5860 os        1 RHO     -0.402800
     11 C8          2.5400    1.0160    3.2980 cc        1 RHO      0.114000
     12 C9          4.3460    0.8980    1.6900 cd        1 RHO      0.346700
     13 C10         5.6240    0.4380    1.5950 ce        1 RHO     -0.255000
     14 C11         6.3870    0.4080    2.8400 ce        1 RHO     -0.052000
     15 C12         6.0600    1.1820    3.9070 c2        1 RHO     -0.033200
     16 C13         4.8160    1.9960    3.8650 c3        1 RHO      0.006100
     17 C14         3.8180    1.3530    2.9680 cd        1 RHO     -0.232600
     18 N1          7.3640   -0.6880    2.9750 nx        1 RHO     -0.531200
     19 C15         8.6740   -0.2120    3.4730 c3        1 RHO      0.069100
     20 C16         6.7940   -1.7410    3.8720 c3        1 RHO      0.069100
     21 C17         2.0700    1.0010    4.6830 ca        1 RHO     -0.076000
     22 C18         2.7120    0.2020    5.6470 ca        1 RHO     -0.061600
     23 C19         2.2230    0.1680    6.9550 ca        1 RHO     -0.124000
     24 C20         1.1010    0.9340    7.3290 ca        1 RHO      0.060600
     25 C21         0.4750    1.7480    6.3590 ca        1 RHO     -0.161000
     26 C22         0.9620    1.7710    5.0590 ca        1 RHO     -0.110000
     27 C23         3.9630   -0.6080    5.3550 c         1 RHO      0.910200
     28 OH2         3.9120   -1.6280    4.6170 o         1 RHO     -0.839300
     29 OH3         5.0570   -0.2090    5.8700 o         1 RHO     -0.839300
     30 N2          0.6120    0.9000    8.6540 n         1 RHO     -0.432600
     31 C24         0.7540   -0.1920    9.5650 c         1 RHO      0.691700
     32 OH4         1.2850   -1.2780    9.3390 o         1 RHO     -0.545500
     33 C25         0.1140    0.2430   10.8680 cc        1 RHO     -0.175700
     34 C26        -0.3620    1.4930   10.7220 cd        1 RHO     -0.175700
     35 C27        -0.0690    1.9660    9.3120 c         1 RHO      0.691700
     36 OH5        -0.3690    3.0600    8.8330 o         1 RHO     -0.545500
     37 HC1         1.8210    0.3830   -1.2210 ha        1 RHO      0.151000
     38 HC4        -0.1030    0.2400    3.3970 ha        1 RHO      0.155000
     39 HC5        -1.5630   -0.2320    1.4860 ha        1 RHO      0.139000
     40 HC61        0.2900    0.6790   -2.7000 h1        1 RHO      0.040367
     41 HC62        0.4120   -1.1300   -2.4820 h1        1 RHO      0.040367
     42 HC63       -1.0920   -0.3910   -3.2030 h1        1 RHO      0.040367
     43 HC71       -2.6530   -0.9330   -1.8800 h1        1 RHO      0.040367
     44 HC72       -2.0020   -1.7330   -0.3760 h1        1 RHO      0.040367
     45 HC73       -2.7860   -0.0870   -0.2760 h1        1 RHO      0.040367
     46 H10C        6.0530    0.0720    0.6570 ha        1 RHO      0.144000
     47 H12C        6.5930    1.1590    4.8720 ha        1 RHO      0.172000
     48 H131        5.0370    3.0370    3.5000 hc        1 RHO      0.089700
     49 H132        4.4100    2.0660    4.9150 hc        1 RHO      0.089700
     50 H151        9.4000   -1.0670    3.4710 hx        1 RHO      0.107700
     51 H152        9.0480    0.6130    2.8130 hx        1 RHO      0.107700
     52 H153        8.5560    0.1710    4.5220 hx        1 RHO      0.107700
     53 H161        5.8020   -2.0920    3.4580 hx        1 RHO      0.107700
     54 H162        7.5290   -2.5770    3.9550 hx        1 RHO      0.107700
     55 H163        6.5420   -1.2940    4.8860 hx        1 RHO      0.107700
     56 H19C        2.7390   -0.4760    7.6870 ha        1 RHO      0.169000
     57 H21C       -0.3870    2.3800    6.6250 ha        1 RHO      0.152000
     58 H22C        0.4690    2.4140    4.3130 ha        1 RHO      0.133000
     59 H25C        0.0960   -0.4290   11.7260 ha        1 RHO      0.179500
     60 H26C       -0.8820    2.1430   11.4260 ha        1 RHO      0.179500
     61 H11         7.4990   -1.0950    2.0420 hn        1 RHO      0.430800
@<TRIPOS>BOND
     1    1    2 ar  
     2    1    6 ar  
     3    1    7 1   
     4    2    3 ar  
     5    2   37 1   
     6    3    4 ar  
     7    3   10 1   
     8    4    5 ar  
     9    4   11 1   
    10    5    6 ar  
    11    5   38 1   
    12    6   39 1   
    13    7    8 1   
    14    7    9 1   
    15    8   40 1   
    16    8   41 1   
    17    8   42 1   
    18    9   43 1   
    19    9   44 1   
    20    9   45 1   
    21   10   12 1   
    22   11   17 2   
    23   11   21 1   
    24   12   13 2   
    25   12   17 1   
    26   13   14 1   
    27   13   46 1   
    28   14   15 2   
    29   14   18 1   
    30   15   16 1   
    31   15   47 1   
    32   16   17 1   
    33   16   48 1   
    34   16   49 1   
    35   18   19 1   
    36   18   20 1   
    37   18   61 1   
    38   19   50 1   
    39   19   51 1   
    40   19   52 1   
    41   20   53 1   
    42   20   54 1   
    43   20   55 1   
    44   21   22 ar  
    45   21   26 ar  
    46   22   23 ar  
    47   22   27 1   
    48   23   24 ar  
    49   23   56 1   
    50   24   25 ar  
    51   24   30 1   
    52   25   26 ar  
    53   25   57 1   
    54   26   58 1   
    55   27   28 1   
    56   27   29 1   
    57   30   31 1   
    58   30   35 1   
    59   31   32 2   
    60   31   33 1   
    61   33   34 2   
    62   33   59 1   
    63   34   35 1   
    64   34   60 1   
    65   35   36 2   
@<TRIPOS>SUBSTRUCTURE
     1 RHO         1 TEMP              0 ****  ****    0 ROOT
