@<TRIPOS>MOLECULE
RHP
   28    29     1     0     0
SMALL
bcc


@<TRIPOS>ATOM
      1 C13        -1.2580    0.0950   -2.3710 c1        1 RHP      0.035500
      2 C12        -0.7080    0.1210   -1.3080 c1        1 RHP     -0.285100
      3 C11        -0.1330    0.1610    0.0040 c3        1 RHP      0.223900
      4 N10         1.3600    0.0050   -0.0360 ny        1 RHP     -0.770000
      5 C9          1.9780    0.0010    1.3440 c3        1 RHP      0.184800
      6 C1          3.3900    0.6510    1.3580 c3        1 RHP     -0.098400
      7 C2          4.3940   -0.4500    1.7200 c3        1 RHP     -0.040100
      8 C3          3.5700   -1.6470    2.0470 ca        1 RHP     -0.092300
      9 C8          2.1960   -1.4020    1.8390 ca        1 RHP     -0.152300
     10 C7          1.2370   -2.3610    2.1160 ca        1 RHP     -0.132000
     11 C4          3.9960   -2.8770    2.5300 ca        1 RHP     -0.065000
     12 C5          3.0490   -3.8660    2.8050 ca        1 RHP     -0.169000
     13 C6          1.6840   -3.6090    2.6010 ca        1 RHP      0.142100
     14 O6          0.7020   -4.5320    2.8480 oh        1 RHP     -0.483100
     15 H13        -1.7480    0.0730   -3.3180 ha        1 RHP      0.200500
     16 H111       -0.3670    1.1490    0.5060 hx        1 RHP      0.119200
     17 H112       -0.5490   -0.6780    0.6430 hx        1 RHP      0.119200
     18 H10         1.7590    0.7740   -0.5860 hn        1 RHP      0.453300
     19 H9          1.2790    0.5720    2.0210 hx        1 RHP      0.114700
     20 H11         3.6630    1.1300    0.3860 hc        1 RHP      0.078200
     21 H12         3.3950    1.4520    2.1410 hc        1 RHP      0.078200
     22 H21         5.0190   -0.1400    2.5970 hc        1 RHP      0.084200
     23 H22         5.0890   -0.6610    0.8670 hc        1 RHP      0.084200
     24 H7          0.1590   -2.1890    1.9940 ha        1 RHP      0.153000
     25 H4          5.0670   -3.0730    2.7000 ha        1 RHP      0.163000
     26 H5          3.3730   -4.8460    3.1890 ha        1 RHP      0.161000
     27 HO6         1.1130   -5.3310    3.2160 ho        1 RHP      0.442000
     28 H102        1.5920   -0.8770   -0.5090 hn        1 RHP      0.453300
@<TRIPOS>BOND
     1    1    2 3   
     2    1   15 1   
     3    2    3 1   
     4    3    4 1   
     5    3   16 1   
     6    3   17 1   
     7    4    5 1   
     8    4   18 1   
     9    4   28 1   
    10    5    6 1   
    11    5    9 1   
    12    5   19 1   
    13    6    7 1   
    14    6   20 1   
    15    6   21 1   
    16    7    8 1   
    17    7   22 1   
    18    7   23 1   
    19    8    9 ar  
    20    8   11 ar  
    21    9   10 ar  
    22   10   13 ar  
    23   10   24 1   
    24   11   12 ar  
    25   11   25 1   
    26   12   13 ar  
    27   12   26 1   
    28   13   14 1   
    29   14   27 1   
@<TRIPOS>SUBSTRUCTURE
     1 RHP         1 TEMP              0 ****  ****    0 ROOT
