@<TRIPOS>MOLECULE
RHP
   28    29     1     0     0
SMALL
bcc


@<TRIPOS>ATOM
      1 C13        -1.2550    0.0990   -2.3720 c1        1 RHP      0.035500
      2 C12        -0.7040    0.1270   -1.3100 c1        1 RHP     -0.285100
      3 C11        -0.1280    0.1700    0.0020 c3        1 RHP      0.223900
      4 N10         1.3640    0.0060   -0.0390 n4        1 RHP     -0.770000
      5 C9          1.9830    0.0060    1.3400 c3        1 RHP      0.184800
      6 C1          3.3990    0.6490    1.3510 c3        1 RHP     -0.098400
      7 C2          4.3970   -0.4550    1.7180 c3        1 RHP     -0.040100
      8 C3          3.5670   -1.6460    2.0510 ca        1 RHP     -0.092300
      9 C8          2.1940   -1.3960    1.8420 ca        1 RHP     -0.152300
     10 C7          1.2310   -2.3490    2.1240 ca        1 RHP     -0.132000
     11 C4          3.9880   -2.8760    2.5410 ca        1 RHP     -0.065000
     12 C5          3.0360   -3.8590    2.8200 ca        1 RHP     -0.169000
     13 C6          1.6720   -3.5960    2.6160 ca        1 RHP      0.142100
     14 O6          0.6860   -4.5140    2.8670 oh        1 RHP     -0.483100
     15 H13        -1.7460    0.0730   -3.3200 ha        1 RHP      0.200500
     16 H111       -0.3560    1.1620    0.4980 hx        1 RHP      0.119200
     17 H112       -0.5480   -0.6630    0.6450 hx        1 RHP      0.119200
     18 H10         1.7670    0.7700   -0.5930 hn        1 RHP      0.453300
     19 H9          1.2880    0.5840    2.0160 hx        1 RHP      0.114700
     20 H11         3.6740    1.1210    0.3760 hc        1 RHP      0.078200
     21 H12         3.4080    1.4540    2.1290 hc        1 RHP      0.078200
     22 H21         5.0240   -0.1440    2.5940 hc        1 RHP      0.084200
     23 H22         5.0910   -0.6740    0.8660 hc        1 RHP      0.084200
     24 H7          0.1540   -2.1720    2.0010 ha        1 RHP      0.153000
     25 H4          5.0570   -3.0770    2.7120 ha        1 RHP      0.163000
     26 H5          3.3560   -4.8390    3.2090 ha        1 RHP      0.161000
     27 HO6         1.0930   -5.3130    3.2390 ho        1 RHP      0.442000
     28 H102        1.5920   -0.8800   -0.5070 hn        1 RHP      0.453300
@<TRIPOS>BOND
     1    1    2 3   
     2    1   15 1   
     3    2    3 1   
     4    3    4 1   
     5    3   16 1   
     6    3   17 1   
     7    4    5 1   
     8    4   18 1   
     9    4   28 1   
    10    5    6 1   
    11    5    9 1   
    12    5   19 1   
    13    6    7 1   
    14    6   20 1   
    15    6   21 1   
    16    7    8 1   
    17    7   22 1   
    18    7   23 1   
    19    8    9 ar  
    20    8   11 ar  
    21    9   10 ar  
    22   10   13 ar  
    23   10   24 1   
    24   11   12 ar  
    25   11   25 1   
    26   12   13 ar  
    27   12   26 1   
    28   13   14 1   
    29   14   27 1   
@<TRIPOS>SUBSTRUCTURE
     1 RHP         1 TEMP              0 ****  ****    0 ROOT
