@<TRIPOS>MOLECULE
RHP
   27    28     1     0     0
SMALL
bcc


@<TRIPOS>ATOM
      1 C13        -0.7450    0.3490   -4.7120 c1        1 RHP     -0.147500
      2 C12        -0.0650   -0.2190   -3.9080 c1        1 RHP     -0.182100
      3 C11         0.7840   -0.9250   -2.9710 c3        1 RHP      0.240900
      4 N10         0.8590   -0.4220   -1.6170 n3        1 RHP     -0.809200
      5 C9         -0.2490   -0.7750   -0.7480 c3        1 RHP      0.219800
      6 C1         -1.6490   -0.1840   -1.0980 c3        1 RHP     -0.114400
      7 C2         -2.2060    0.4850    0.1620 c3        1 RHP     -0.029100
      8 C3         -1.1350    0.3600    1.1900 ca        1 RHP     -0.117300
      9 C8         -0.0130   -0.3330    0.6800 ca        1 RHP     -0.062300
     10 C7          1.1060   -0.5600    1.4570 ca        1 RHP     -0.120000
     11 C4         -1.1400    0.8250    2.4950 ca        1 RHP     -0.085000
     12 C5         -0.0190    0.6040    3.3030 ca        1 RHP     -0.213000
     13 C6          1.0870   -0.0790    2.7850 ca        1 RHP      0.116100
     14 O6          2.2200   -0.3260    3.5300 oh        1 RHP     -0.498100
     15 H13        -1.3480    0.8500   -5.4250 ha        1 RHP      0.164500
     16 H111        1.8430   -0.8960   -3.3740 h1        1 RHP      0.071200
     17 H112        0.4600   -2.0080   -2.9400 h1        1 RHP      0.071200
     18 H10         1.0150    0.5680   -1.6080 hn        1 RHP      0.372800
     19 H9         -0.3280   -1.9030   -0.7590 h1        1 RHP      0.069700
     20 H11        -2.3250   -1.0060   -1.4360 hc        1 RHP      0.051700
     21 H12        -1.5730    0.5570   -1.9320 hc        1 RHP      0.051700
     22 H21        -3.1440   -0.0240    0.5030 hc        1 RHP      0.052200
     23 H22        -2.4540    1.5600   -0.0290 hc        1 RHP      0.052200
     24 H7          1.9890   -1.0880    1.0720 ha        1 RHP      0.163000
     25 H4         -2.0100    1.3630    2.8970 ha        1 RHP      0.134000
     26 H5         -0.0090    0.9670    4.3390 ha        1 RHP      0.132000
     27 HO6         2.0840    0.0530    4.4110 ho        1 RHP      0.417000
@<TRIPOS>BOND
     1    1    2 3   
     2    1   15 1   
     3    2    3 1   
     4    3    4 1   
     5    3   16 1   
     6    3   17 1   
     7    4    5 1   
     8    4   18 1   
     9    5    6 1   
    10    5    9 1   
    11    5   19 1   
    12    6    7 1   
    13    6   20 1   
    14    6   21 1   
    15    7    8 1   
    16    7   22 1   
    17    7   23 1   
    18    8    9 ar  
    19    8   11 ar  
    20    9   10 ar  
    21   10   13 ar  
    22   10   24 1   
    23   11   12 ar  
    24   11   25 1   
    25   12   13 ar  
    26   12   26 1   
    27   13   14 1   
    28   14   27 1   
@<TRIPOS>SUBSTRUCTURE
     1 RHP         1 TEMP              0 ****  ****    0 ROOT
