@<TRIPOS>MOLECULE
RHP
   27    24     1     0     0
SMALL
bcc


@<TRIPOS>ATOM
      1 C13        -3.5200   -0.6150   -3.5480 c1        1 RHP     -0.207000
      2 C12        -3.1460   -0.6120   -2.4020 c1        1 RHP     -0.207000
      3 C11        -2.6760   -0.6070   -0.9740 c2        1 RHP      0.036000
      4 N10        -1.4030    0.0310   -0.8970 n3        1 RHP     -0.299000
      5 C9         -0.9380   -0.0050    0.4410 c3        1 RHP      0.020000
      6 C1         -1.2340    1.2740    1.1030 c3        1 RHP     -0.154000
      7 C2          0.0520    1.8790    1.5140 c3        1 RHP     -0.120000
      8 C3          1.2020    0.9210    1.0530 c2        1 RHP     -0.103000
      9 C8          0.6150   -0.2160    0.4620 c2        1 RHP     -0.084000
     10 C7          1.4200   -1.2730    0.0410 c1        1 RHP     -0.139000
     11 C4          2.5800    0.9850    1.2150 c1        1 RHP     -0.085000
     12 C5          3.3860   -0.0790    0.7910 c1        1 RHP     -0.212000
     13 C6          2.8060   -1.2060    0.2050 c1        1 RHP      0.074000
     14 O6          3.6120   -2.3190   -0.1320 oh        1 RHP     -0.254000
     15 H13        -3.8230   -0.6170   -4.4750 DU        1 RHP      0.224000
     16 H111       -3.3370   -0.1060   -0.4060 h4        1 RHP      0.109000
     17 H112       -2.6010   -1.5120   -0.6570 h4        1 RHP      0.109000
     18 H10        -0.7990   -0.4140   -1.4490 hn        1 RHP      0.173000
     19 H9         -1.3750   -0.7300    0.9190 h1        1 RHP      0.104000
     20 H11        -1.6880    1.8780    0.4570 hc        1 RHP      0.093000
     21 H12        -1.7800    1.1050    1.8980 hc        1 RHP      0.093000
     22 H21         0.0720    1.9600    2.5010 hc        1 RHP      0.091500
     23 H22         0.1580    2.7570    1.0620 hc        1 RHP      0.091500
     24 H7          1.0130   -2.0660   -0.3700 ha        1 RHP      0.160000
     25 H4          2.9850    1.7690    1.6230 ha        1 RHP      0.135000
     26 H5          4.3700   -0.0320    0.9080 ha        1 RHP      0.132000
     27 HO6         4.0480   -2.1510   -0.8830 ho        1 RHP      0.217000
@<TRIPOS>BOND
     1    1    2 1   
     2    3    4 1   
     3    3   16 1   
     4    3   17 1   
     5    4    5 1   
     6    4   18 1   
     7    5    6 1   
     8    5    9 1   
     9    5   19 1   
    10    6    7 1   
    11    6   20 1   
    12    6   21 1   
    13    7    8 1   
    14    7   22 1   
    15    7   23 1   
    16    8    9 1   
    17    8   11 1   
    18    9   10 1   
    19   10   24 1   
    20   11   25 1   
    21   12   13 1   
    22   12   26 1   
    23   13   14 1   
    24   14   27 1   
@<TRIPOS>SUBSTRUCTURE
     1 RHP         1 TEMP              0 ****  ****    0 ROOT
