@<TRIPOS>MOLECULE
RHP
   28    29     1     0     0
SMALL
bcc


@<TRIPOS>ATOM
      1 C13        -1.2460    0.0380   -2.3990 c1        1 RHP      0.035500
      2 C12        -0.6990    0.0750   -1.3340 c1        1 RHP     -0.285100
      3 C11        -0.1300    0.1290   -0.0200 c3        1 RHP      0.223900
      4 N10         1.3640   -0.0210   -0.0540 n4        1 RHP     -0.770000
      5 C9          1.9780   -0.0090    1.3280 c3        1 RHP      0.184800
      6 C1          3.3880    0.6450    1.3400 c3        1 RHP     -0.098400
      7 C2          4.3940   -0.4500    1.7140 c3        1 RHP     -0.040100
      8 C3          3.5720   -1.6450    2.0520 ca        1 RHP     -0.092300
      9 C8          2.1970   -1.4060    1.8380 ca        1 RHP     -0.152300
     10 C7          1.2400   -2.3650    2.1230 ca        1 RHP     -0.132000
     11 C4          4.0000   -2.8690    2.5500 ca        1 RHP     -0.065000
     12 C5          3.0540   -3.8570    2.8330 ca        1 RHP     -0.169000
     13 C6          1.6890   -3.6050    2.6230 ca        1 RHP      0.142100
     14 O6          0.7090   -4.5290    2.8780 oh        1 RHP     -0.483100
     15 H13        -1.7320    0.0050   -3.3480 ha        1 RHP      0.200500
     16 H111       -0.5440   -0.7050    0.6250 hx        1 RHP      0.119200
     17 H112       -0.3690    1.1210    0.4710 hx        1 RHP      0.119200
     18 H10         1.6020   -0.9070   -0.5170 hn        1 RHP      0.453300
     19 H9          1.2750    0.5680    1.9970 hx        1 RHP      0.114700
     20 H11         3.6630    1.1160    0.3630 hc        1 RHP      0.078200
     21 H12         3.3890    1.4540    2.1150 hc        1 RHP      0.078200
     22 H21         5.0910   -0.6680    0.8650 hc        1 RHP      0.084200
     23 H22         5.0160   -0.1300    2.5890 hc        1 RHP      0.084200
     24 H7          0.1620   -2.1960    1.9970 ha        1 RHP      0.153000
     25 H4          5.0700   -3.0610    2.7240 ha        1 RHP      0.163000
     26 H5          3.3800   -4.8330    3.2280 ha        1 RHP      0.161000
     27 HO6         1.1210   -5.3230    3.2550 ho        1 RHP      0.442000
     28 H102        1.7620    0.7440   -0.6100 hn        1 RHP      0.453300
@<TRIPOS>BOND
     1    1    2 3   
     2    1   15 1   
     3    2    3 1   
     4    3    4 1   
     5    3   16 1   
     6    3   17 1   
     7    4    5 1   
     8    4   18 1   
     9    4   28 1   
    10    5    6 1   
    11    5    9 1   
    12    5   19 1   
    13    6    7 1   
    14    6   20 1   
    15    6   21 1   
    16    7    8 1   
    17    7   22 1   
    18    7   23 1   
    19    8    9 ar  
    20    8   11 ar  
    21    9   10 ar  
    22   10   13 ar  
    23   10   24 1   
    24   11   12 ar  
    25   11   25 1   
    26   12   13 ar  
    27   12   26 1   
    28   13   14 1   
    29   14   27 1   
@<TRIPOS>SUBSTRUCTURE
     1 RHP         1 TEMP              0 ****  ****    0 ROOT
