@<TRIPOS>MOLECULE
RHQ
   64    67     1     0     0
SMALL
bcc


@<TRIPOS>ATOM
      1 C1          0.1200    0.0440   -0.0860 ca        1 RHQ      0.455500
      2 C2          1.5400    0.0870   -0.1630 ca        1 RHQ     -0.261300
      3 C3          2.2370    0.1630    1.0750 ca        1 RHQ     -0.005500
      4 C4          1.6030    0.2030    2.2940 ca        1 RHQ     -0.158300
      5 C5          0.1550    0.1870    2.3550 ca        1 RHQ      0.311100
      6 C6         -0.5600    0.0890    1.1220 ca        1 RHQ     -0.353800
      7 O1         -0.6770   -0.0430   -1.2090 os        1 RHQ     -0.353800
      8 C7         -0.0510   -0.0850   -2.4380 cc        1 RHQ      0.390200
      9 C8          1.3660   -0.0430   -2.5710 cc        1 RHQ     -0.273100
     10 C9          2.1700    0.0690   -1.4220 cd        1 RHQ      0.240000
     11 C10        -0.9060   -0.1760   -3.5310 cd        1 RHQ     -0.375100
     12 C11        -0.3680   -0.2250   -4.8440 cd        1 RHQ      0.457400
     13 C12         1.0770   -0.1890   -5.0000 cd        1 RHQ     -0.241800
     14 C13         1.8850   -0.0990   -3.8970 cc        1 RHQ      0.006300
     15 N1         -1.1730   -0.3090   -5.9340 nu        1 RHQ     -0.367100
     16 C14         3.6360    0.1090   -1.5300 ca        1 RHQ     -0.065000
     17 C15         4.3340   -1.1060   -1.5060 ca        1 RHQ     -0.125000
     18 C16         5.7250   -1.1240   -1.6050 ca        1 RHQ     -0.093000
     19 C17         6.4320    0.0710   -1.7300 ca        1 RHQ     -0.119000
     20 C18         5.7470    1.2850   -1.7550 ca        1 RHQ     -0.069000
     21 C19         4.3500    1.3160   -1.6550 ca        1 RHQ     -0.105600
     22 C20         1.6750   -0.2440   -6.3560 c3        1 RHQ     -0.063900
     23 C21         2.4510    0.2450    3.5110 c3        1 RHQ     -0.060800
     24 C22        -2.6150   -0.3390   -5.8530 c3        1 RHQ      0.023800
     25 C23        -3.2860   -0.4200   -7.2140 c3        1 RHQ     -0.118600
     26 N2         -0.5880    0.2410    3.4910 nu        1 RHQ     -0.726600
     27 C24        -0.1410    0.4630    4.8450 c3        1 RHQ      0.201300
     28 C25        -1.2940    0.5770    5.8310 c3        1 RHQ     -0.118600
     29 C26         3.6480    2.6140   -1.6820 c         1 RHQ      0.638700
     30 O27         2.4340    2.8220   -1.5810 o         1 RHQ     -0.546000
     31 O2          4.4750    3.6870   -1.8380 os        1 RHQ     -0.431900
     32 C28         3.8430    4.9860   -1.8700 c3        1 RHQ      0.142400
     33 C29         4.9590    5.9850   -2.0490 c3        1 RHQ     -0.104100
     34 H31         3.3410    0.1860    1.0320 ha        1 RHQ      0.159000
     35 H61        -1.6610    0.0580    1.1070 ha        1 RHQ      0.172000
     36 H101       -1.9930   -0.2010   -3.3560 ha        1 RHQ      0.172000
     37 H131        2.9820   -0.0660   -4.0190 ha        1 RHQ      0.159000
     38 HN11       -0.7610   -0.3360   -6.8410 hn        1 RHQ      0.296700
     39 H151        3.7810   -2.0530   -1.4080 ha        1 RHQ      0.152000
     40 H161        6.2610   -2.0860   -1.5850 ha        1 RHQ      0.157000
     41 H171        7.5300    0.0590   -1.8090 ha        1 RHQ      0.159000
     42 H181        6.3030    2.2340   -1.8530 ha        1 RHQ      0.175000
     43 H201        1.3890   -1.1910   -6.8790 hc        1 RHQ      0.057200
     44 H202        1.3360    0.6260   -6.9750 hc        1 RHQ      0.057200
     45 H203        2.7920   -0.2080   -6.3030 hc        1 RHQ      0.057200
     46 H211        3.5370    0.2080    3.2390 hc        1 RHQ      0.057200
     47 H212        2.2870    1.1890    4.0860 hc        1 RHQ      0.057200
     48 H213        2.2440   -0.6330    4.1710 hc        1 RHQ      0.057200
     49 H221       -2.9250   -1.2310   -5.2320 h1        1 RHQ      0.060200
     50 H222       -2.9690    0.5920   -5.3190 h1        1 RHQ      0.060200
     51 H231       -4.3930   -0.4400   -7.0580 hc        1 RHQ      0.059533
     52 H232       -3.0340    0.4650   -7.8460 hc        1 RHQ      0.059533
     53 H233       -2.9900   -1.3480   -7.7610 hc        1 RHQ      0.059533
     54 HN21       -1.5810    0.2030    3.3750 hn        1 RHQ      0.451800
     55 H241        0.4630    1.4150    4.8870 h1        1 RHQ      0.060200
     56 H242        0.5190   -0.3960    5.1620 h1        1 RHQ      0.060200
     57 H251       -0.8660    0.7440    6.8500 hc        1 RHQ      0.059533
     58 H252       -1.9070   -0.3570    5.8540 hc        1 RHQ      0.059533
     59 H253       -1.9610    1.4380    5.5830 hc        1 RHQ      0.059533
     60 H281        3.1150    5.0060   -2.7220 h1        1 RHQ      0.056700
     61 H282        3.2900    5.1360   -0.9070 h1        1 RHQ      0.056700
     62 H291        5.5110    5.7940   -3.0000 hc        1 RHQ      0.055033
     63 H292        4.5210    7.0120   -2.0810 hc        1 RHQ      0.055033
     64 H293        5.6840    5.9230   -1.2030 hc        1 RHQ      0.055033
@<TRIPOS>BOND
     1    1    2 ar  
     2    1    6 ar  
     3    1    7 1   
     4    2    3 ar  
     5    2   10 1   
     6    3    4 ar  
     7    3   34 1   
     8    4    5 ar  
     9    4   23 1   
    10    5    6 ar  
    11    5   26 1   
    12    6   35 1   
    13    7    8 1   
    14    8    9 1   
    15    8   11 2   
    16    9   10 2   
    17    9   14 1   
    18   10   16 1   
    19   11   12 1   
    20   11   36 1   
    21   12   13 1   
    22   12   15 2   
    23   13   14 2   
    24   13   22 1   
    25   14   37 1   
    26   15   24 1   
    27   15   38 1   
    28   16   17 ar  
    29   16   21 ar  
    30   17   18 ar  
    31   17   39 1   
    32   18   19 ar  
    33   18   40 1   
    34   19   20 ar  
    35   19   41 1   
    36   20   21 ar  
    37   20   42 1   
    38   21   29 1   
    39   22   43 1   
    40   22   44 1   
    41   22   45 1   
    42   23   46 1   
    43   23   47 1   
    44   23   48 1   
    45   24   25 1   
    46   24   49 1   
    47   24   50 1   
    48   25   51 1   
    49   25   52 1   
    50   25   53 1   
    51   26   27 1   
    52   26   54 1   
    53   27   28 1   
    54   27   55 1   
    55   27   56 1   
    56   28   57 1   
    57   28   58 1   
    58   28   59 1   
    59   29   30 2   
    60   29   31 1   
    61   31   32 1   
    62   32   33 1   
    63   32   60 1   
    64   32   61 1   
    65   33   62 1   
    66   33   63 1   
    67   33   64 1   
@<TRIPOS>SUBSTRUCTURE
     1 RHQ         1 TEMP              0 ****  ****    0 ROOT
