@<TRIPOS>MOLECULE
RHQ
   64    67     1     0     0
SMALL
bcc


@<TRIPOS>ATOM
      1 C1          1.2050    1.6310    0.0080 ca        1 RHQ      0.455500
      2 C2          1.1990    0.2730    0.4370 ca        1 RHQ     -0.261300
      3 C3          2.4630   -0.3750    0.4960 ca        1 RHQ     -0.005500
      4 C4          3.6430    0.2440    0.1570 ca        1 RHQ     -0.158300
      5 C5          3.6310    1.6180   -0.3030 ca        1 RHQ      0.311100
      6 C6          2.3710    2.2910   -0.3480 ca        1 RHQ     -0.353800
      7 O1          0.0500    2.3800   -0.0810 os        1 RHQ     -0.353800
      8 C7         -1.1400    1.7690    0.2570 cc        1 RHQ      0.390200
      9 C8         -1.2020    0.4140    0.6890 cc        1 RHQ     -0.273100
     10 C9         -0.0220   -0.3510    0.7550 cd        1 RHQ      0.240000
     11 C10        -2.2670    2.5760    0.1490 cd        1 RHQ     -0.375100
     12 C11        -3.5450    2.0470    0.4720 cd        1 RHQ      0.457400
     13 C12        -3.6290    0.6660    0.9190 cd        1 RHQ     -0.241800
     14 C13        -2.4930   -0.0950    1.0120 cc        1 RHQ      0.006300
     15 N1         -4.6670    2.8050    0.3730 nh        1 RHQ     -0.367100
     16 C14        -0.0570   -1.7510    1.2030 ca        1 RHQ     -0.065000
     17 C15         0.0770   -2.0110    2.5730 ca        1 RHQ     -0.125000
     18 C16         0.0510   -3.3210    3.0510 ca        1 RHQ     -0.093000
     19 C17        -0.1100   -4.3840    2.1640 ca        1 RHQ     -0.119000
     20 C18        -0.2430   -4.1360    0.7980 ca        1 RHQ     -0.069000
     21 C19        -0.2180   -2.8250    0.3070 ca        1 RHQ     -0.105600
     22 C20        -4.9460    0.0820    1.2700 c3        1 RHQ     -0.063900
     23 C21         4.8970   -0.5360    0.3000 c3        1 RHQ     -0.060800
     24 C22        -4.6600    4.1780   -0.0740 c3        1 RHQ      0.023800
     25 C23        -6.0450    4.8010   -0.1100 c3        1 RHQ     -0.118600
     26 N2          4.7210    2.3330   -0.6840 nh        1 RHQ     -0.726600
     27 C24         6.0780    1.8760   -0.8540 c3        1 RHQ      0.201300
     28 C25         6.9950    2.9540   -1.4140 c3        1 RHQ     -0.118600
     29 C26        -0.3610   -2.5890   -1.1430 c         1 RHQ      0.638700
     30 O27        -0.3430   -1.5070   -1.7400 o         1 RHQ     -0.546000
     31 O2         -0.5300   -3.7270   -1.8750 os        1 RHQ     -0.431900
     32 C28        -0.6740   -3.5580   -3.3030 c3        1 RHQ      0.142400
     33 C29        -0.8450   -4.9450   -3.8690 c3        1 RHQ     -0.104100
     34 H31         2.4770   -1.4260    0.8370 ha        1 RHQ      0.159000
     35 H61         2.3010    3.3410   -0.6750 ha        1 RHQ      0.172000
     36 H101       -2.1470    3.6150   -0.1940 ha        1 RHQ      0.172000
     37 H131       -2.5600   -1.1460    1.3470 ha        1 RHQ      0.159000
     38 HN11       -5.5480    2.3990    0.6030 hn        1 RHQ      0.296700
     39 H151        0.2040   -1.1740    3.2790 ha        1 RHQ      0.152000
     40 H161        0.1570   -3.5110    4.1310 ha        1 RHQ      0.157000
     41 H171       -0.1310   -5.4200    2.5380 ha        1 RHQ      0.159000
     42 H181       -0.3710   -4.9760    0.0920 ha        1 RHQ      0.175000
     43 H201       -5.6350    0.0990    0.3880 hc        1 RHQ      0.057200
     44 H202       -4.8370   -0.9830    1.5960 hc        1 RHQ      0.057200
     45 H203       -5.4210    0.6490    2.1110 hc        1 RHQ      0.057200
     46 H211        4.6850   -1.5570    0.7100 hc        1 RHQ      0.057200
     47 H212        5.4020   -0.6750   -0.6880 hc        1 RHQ      0.057200
     48 H213        5.6000   -0.0330    1.0090 hc        1 RHQ      0.057200
     49 H221       -4.0000    4.7800    0.6180 h1        1 RHQ      0.060200
     50 H222       -4.2050    4.2220   -1.1070 h1        1 RHQ      0.060200
     51 H231       -5.9460    5.8560   -0.4640 hc        1 RHQ      0.059533
     52 H232       -6.7190    4.2550   -0.8140 hc        1 RHQ      0.059533
     53 H233       -6.5150    4.8100    0.9020 hc        1 RHQ      0.059533
     54 HN21        4.5560    3.2800   -0.9620 hn        1 RHQ      0.451800
     55 H241        6.4850    1.5440    0.1450 h1        1 RHQ      0.060200
     56 H242        6.0890    0.9940   -1.5580 h1        1 RHQ      0.060200
     57 H251        8.0210    2.5230   -1.5110 hc        1 RHQ      0.059533
     58 H252        6.6570    3.2940   -2.4220 hc        1 RHQ      0.059533
     59 H253        7.0460    3.8400   -0.7350 hc        1 RHQ      0.059533
     60 H281       -1.5680   -2.9080   -3.4950 h1        1 RHQ      0.056700
     61 H282        0.2440   -3.0490   -3.6950 h1        1 RHQ      0.056700
     62 H291        0.0450   -5.5780   -3.6380 hc        1 RHQ      0.055033
     63 H292       -1.7490   -5.4390   -3.4390 hc        1 RHQ      0.055033
     64 H293       -0.9610   -4.8700   -4.9770 hc        1 RHQ      0.055033
@<TRIPOS>BOND
     1    1    2 ar  
     2    1    6 ar  
     3    1    7 1   
     4    2    3 ar  
     5    2   10 1   
     6    3    4 ar  
     7    3   34 1   
     8    4    5 ar  
     9    4   23 1   
    10    5    6 ar  
    11    5   26 1   
    12    6   35 1   
    13    7    8 1   
    14    8    9 1   
    15    8   11 2   
    16    9   10 2   
    17    9   14 1   
    18   10   16 1   
    19   11   12 1   
    20   11   36 1   
    21   12   13 1   
    22   12   15 2   
    23   13   14 2   
    24   13   22 1   
    25   14   37 1   
    26   15   24 1   
    27   15   38 1   
    28   16   17 ar  
    29   16   21 ar  
    30   17   18 ar  
    31   17   39 1   
    32   18   19 ar  
    33   18   40 1   
    34   19   20 ar  
    35   19   41 1   
    36   20   21 ar  
    37   20   42 1   
    38   21   29 1   
    39   22   43 1   
    40   22   44 1   
    41   22   45 1   
    42   23   46 1   
    43   23   47 1   
    44   23   48 1   
    45   24   25 1   
    46   24   49 1   
    47   24   50 1   
    48   25   51 1   
    49   25   52 1   
    50   25   53 1   
    51   26   27 1   
    52   26   54 1   
    53   27   28 1   
    54   27   55 1   
    55   27   56 1   
    56   28   57 1   
    57   28   58 1   
    58   28   59 1   
    59   29   30 2   
    60   29   31 1   
    61   31   32 1   
    62   32   33 1   
    63   32   60 1   
    64   32   61 1   
    65   33   62 1   
    66   33   63 1   
    67   33   64 1   
@<TRIPOS>SUBSTRUCTURE
     1 RHQ         1 TEMP              0 ****  ****    0 ROOT
