@<TRIPOS>MOLECULE
RHQ
   64    67     1     0     0
SMALL
bcc


@<TRIPOS>ATOM
      1 C1          0.1210    0.0450   -0.0880 ca        1 RHQ      0.455500
      2 C2          1.5410    0.0870   -0.1670 ca        1 RHQ     -0.261300
      3 C3          2.2390    0.1650    1.0700 ca        1 RHQ     -0.005500
      4 C4          1.6070    0.2060    2.2900 ca        1 RHQ     -0.158300
      5 C5          0.1590    0.1900    2.3530 ca        1 RHQ      0.311100
      6 C6         -0.5580    0.0910    1.1200 ca        1 RHQ     -0.353800
      7 O1         -0.6770   -0.0440   -1.2110 os        1 RHQ     -0.353800
      8 C7         -0.0530   -0.0870   -2.4400 cc        1 RHQ      0.390200
      9 C8          1.3640   -0.0450   -2.5750 cc        1 RHQ     -0.273100
     10 C9          2.1700    0.0690   -1.4260 cd        1 RHQ      0.240000
     11 C10        -0.9090   -0.1790   -3.5320 cd        1 RHQ     -0.375100
     12 C11        -0.3710   -0.2300   -4.8460 cd        1 RHQ      0.457400
     13 C12         1.0730   -0.1920   -5.0030 cd        1 RHQ     -0.241800
     14 C13         1.8820   -0.1010   -3.9010 cc        1 RHQ      0.006300
     15 N1         -1.1780   -0.3140   -5.9350 nh        1 RHQ     -0.367100
     16 C14         3.6350    0.1090   -1.5350 ca        1 RHQ     -0.065000
     17 C15         4.3340   -1.1060   -1.5150 ca        1 RHQ     -0.125000
     18 C16         5.7250   -1.1240   -1.6160 ca        1 RHQ     -0.093000
     19 C17         6.4310    0.0710   -1.7380 ca        1 RHQ     -0.119000
     20 C18         5.7460    1.2860   -1.7590 ca        1 RHQ     -0.069000
     21 C19         4.3490    1.3160   -1.6590 ca        1 RHQ     -0.105600
     22 C20         1.6700   -0.2490   -6.3600 c3        1 RHQ     -0.063900
     23 C21         2.4550    0.2490    3.5060 c3        1 RHQ     -0.060800
     24 C22        -2.6190   -0.3450   -5.8530 c3        1 RHQ      0.023800
     25 C23        -3.2920   -0.4270   -7.2130 c3        1 RHQ     -0.118600
     26 N2         -0.5830    0.2450    3.4890 nh        1 RHQ     -0.726600
     27 C24        -0.1350    0.4690    4.8420 c3        1 RHQ      0.201300
     28 C25        -1.2880    0.5840    5.8300 c3        1 RHQ     -0.118600
     29 C26         3.6470    2.6150   -1.6820 c         1 RHQ      0.638700
     30 O27         2.4330    2.8210   -1.5890 o         1 RHQ     -0.546000
     31 O2          4.4750    3.6880   -1.8250 os        1 RHQ     -0.431900
     32 C28         3.8430    4.9870   -1.8540 c3        1 RHQ      0.142400
     33 C29         4.9600    5.9880   -2.0180 c3        1 RHQ     -0.104100
     34 H31         3.3430    0.1880    1.0270 ha        1 RHQ      0.159000
     35 H61        -1.6590    0.0590    1.1070 ha        1 RHQ      0.172000
     36 H101       -1.9950   -0.2050   -3.3560 ha        1 RHQ      0.172000
     37 H131        2.9800   -0.0680   -4.0240 ha        1 RHQ      0.159000
     38 HN11       -0.7670   -0.3420   -6.8420 hn        1 RHQ      0.296700
     39 H151        3.7810   -2.0540   -1.4190 ha        1 RHQ      0.152000
     40 H161        6.2610   -2.0860   -1.5990 ha        1 RHQ      0.157000
     41 H171        7.5300    0.0600   -1.8180 ha        1 RHQ      0.159000
     42 H181        6.3020    2.2350   -1.8560 ha        1 RHQ      0.175000
     43 H201        1.3830   -1.1970   -6.8820 hc        1 RHQ      0.057200
     44 H202        1.3310    0.6200   -6.9790 hc        1 RHQ      0.057200
     45 H203        2.7870   -0.2130   -6.3080 hc        1 RHQ      0.057200
     46 H211        3.5410    0.2120    3.2330 hc        1 RHQ      0.057200
     47 H212        2.2910    1.1940    4.0810 hc        1 RHQ      0.057200
     48 H213        2.2490   -0.6290    4.1670 hc        1 RHQ      0.057200
     49 H221       -2.9280   -1.2360   -5.2310 h1        1 RHQ      0.060200
     50 H222       -2.9730    0.5860   -5.3190 h1        1 RHQ      0.060200
     51 H231       -4.3980   -0.4470   -7.0560 hc        1 RHQ      0.059533
     52 H232       -3.0410    0.4580   -7.8460 hc        1 RHQ      0.059533
     53 H233       -2.9960   -1.3550   -7.7590 hc        1 RHQ      0.059533
     54 HN21       -1.5760    0.2060    3.3740 hn        1 RHQ      0.451800
     55 H241        0.4680    1.4210    4.8820 h1        1 RHQ      0.060200
     56 H242        0.5250   -0.3890    5.1600 h1        1 RHQ      0.060200
     57 H251       -0.8580    0.7520    6.8480 hc        1 RHQ      0.059533
     58 H252       -1.8990   -0.3500    5.8540 hc        1 RHQ      0.059533
     59 H253       -1.9550    1.4440    5.5810 hc        1 RHQ      0.059533
     60 H281        3.1220    5.0120   -2.7120 h1        1 RHQ      0.056700
     61 H282        3.2830    5.1310   -0.8940 h1        1 RHQ      0.056700
     62 H291        5.5200    5.8030   -2.9660 hc        1 RHQ      0.055033
     63 H292        4.5220    7.0140   -2.0470 hc        1 RHQ      0.055033
     64 H293        5.6780    5.9210   -1.1660 hc        1 RHQ      0.055033
@<TRIPOS>BOND
     1    1    2 ar  
     2    1    6 ar  
     3    1    7 1   
     4    2    3 ar  
     5    2   10 1   
     6    3    4 ar  
     7    3   34 1   
     8    4    5 ar  
     9    4   23 1   
    10    5    6 ar  
    11    5   26 1   
    12    6   35 1   
    13    7    8 1   
    14    8    9 1   
    15    8   11 2   
    16    9   10 2   
    17    9   14 1   
    18   10   16 1   
    19   11   12 1   
    20   11   36 1   
    21   12   13 1   
    22   12   15 2   
    23   13   14 2   
    24   13   22 1   
    25   14   37 1   
    26   15   24 1   
    27   15   38 1   
    28   16   17 ar  
    29   16   21 ar  
    30   17   18 ar  
    31   17   39 1   
    32   18   19 ar  
    33   18   40 1   
    34   19   20 ar  
    35   19   41 1   
    36   20   21 ar  
    37   20   42 1   
    38   21   29 1   
    39   22   43 1   
    40   22   44 1   
    41   22   45 1   
    42   23   46 1   
    43   23   47 1   
    44   23   48 1   
    45   24   25 1   
    46   24   49 1   
    47   24   50 1   
    48   25   51 1   
    49   25   52 1   
    50   25   53 1   
    51   26   27 1   
    52   26   54 1   
    53   27   28 1   
    54   27   55 1   
    55   27   56 1   
    56   28   57 1   
    57   28   58 1   
    58   28   59 1   
    59   29   30 2   
    60   29   31 1   
    61   31   32 1   
    62   32   33 1   
    63   32   60 1   
    64   32   61 1   
    65   33   62 1   
    66   33   63 1   
    67   33   64 1   
@<TRIPOS>SUBSTRUCTURE
     1 RHQ         1 TEMP              0 ****  ****    0 ROOT
