@<TRIPOS>MOLECULE
RHS
   43    42     1     0     0
SMALL
bcc


@<TRIPOS>ATOM
      1 N'         -1.4900    0.8760    3.8310 n         1 RHS     -0.672000
      2 C'         -1.0010   -0.0980    2.9960 c         1 RHS      0.660100
      3 O'         -1.2810   -1.2950    3.2170 o         1 RHS     -0.626100
      4 C2'        -0.1620    0.3370    1.7930 c3        1 RHS     -0.118700
      5 CT1         1.3410    0.2860    2.1280 c3        1 RHS     -0.043000
      6 CT2         2.1300    0.8140    0.9360 c3        1 RHS     -0.095100
      7 CT3         1.6170    1.1900    3.3250 c3        1 RHS     -0.095100
      8 CT4         1.8100   -1.1230    2.4590 c3        1 RHS     -0.095100
      9 C1'        -0.5570   -0.5320    0.6060 c3        1 RHS     -0.143400
     10 C          -0.4860    0.2270   -0.7090 c         1 RHS      0.662100
     11 O          -0.5580    1.4730   -0.7610 o         1 RHS     -0.624100
     12 N          -0.3700   -0.5330   -1.8540 n         1 RHS     -0.568900
     13 C3         -0.3380    0.0310   -3.1840 c3        1 RHS      0.097700
     14 C4          0.9790   -0.2750   -3.9220 c3        1 RHS     -0.093900
     15 C5          2.1710    0.3710   -3.2690 c3        1 RHS     -0.092600
     16 C2         -1.5010   -0.4630   -4.0640 c3        1 RHS     -0.093900
     17 C1         -2.8470   -0.0470   -3.5340 c3        1 RHS     -0.092600
     18 HN'1       -1.2310    1.8210    3.7150 hn        1 RHS      0.312000
     19 HN'2       -2.0220    0.6190    4.6240 hn        1 RHS      0.312000
     20 H2'        -0.4060    1.4100    1.5300 hc        1 RHS      0.093700
     21 HT21        3.2200    0.8210    1.1730 hc        1 RHS      0.040811
     22 HT22        1.9650    0.1670    0.0400 hc        1 RHS      0.040811
     23 HT23        1.8040    1.8520    0.6820 hc        1 RHS      0.040811
     24 HT31        1.1530    2.1950    3.1750 hc        1 RHS      0.040811
     25 HT32        1.2120    0.7370    4.2620 hc        1 RHS      0.040811
     26 HT33        2.7180    1.3270    3.4530 hc        1 RHS      0.040811
     27 HT41        1.9110   -1.7380    1.5330 hc        1 RHS      0.040811
     28 HT42        2.8090   -1.0820    2.9560 hc        1 RHS      0.040811
     29 HT43        1.0870   -1.6280    3.1450 hc        1 RHS      0.040811
     30 H1'1       -1.6230   -0.8730    0.7290 hc        1 RHS      0.080200
     31 H1'2        0.0810   -1.4530    0.5810 hc        1 RHS      0.080200
     32 HN         -0.3330   -1.5200   -1.7810 hn        1 RHS      0.307500
     33 H3         -0.4290    1.1550   -3.0770 h1        1 RHS      0.090700
     34 H41         0.8780    0.1100   -4.9710 hc        1 RHS      0.042450
     35 H42         1.1310   -1.3840   -3.9870 hc        1 RHS      0.042450
     36 H51         3.0880    0.1930   -3.8820 hc        1 RHS      0.037033
     37 H52         2.0180    1.4730   -3.1710 hc        1 RHS      0.037033
     38 H53         2.3480   -0.0470   -2.2480 hc        1 RHS      0.037033
     39 H21        -1.3570   -0.0300   -5.0890 hc        1 RHS      0.042450
     40 H22        -1.4560   -1.5790   -4.1640 hc        1 RHS      0.042450
     41 H11        -3.6470   -0.3180   -4.2650 hc        1 RHS      0.037033
     42 H12        -3.0740   -0.5560   -2.5660 hc        1 RHS      0.037033
     43 H13        -2.8810    1.0560   -3.3650 hc        1 RHS      0.037033
@<TRIPOS>BOND
     1    1    2 1   
     2    1   18 1   
     3    1   19 1   
     4    2    3 2   
     5    2    4 1   
     6    4    5 1   
     7    4    9 1   
     8    4   20 1   
     9    5    6 1   
    10    5    7 1   
    11    5    8 1   
    12    6   21 1   
    13    6   22 1   
    14    6   23 1   
    15    7   24 1   
    16    7   25 1   
    17    7   26 1   
    18    8   27 1   
    19    8   28 1   
    20    8   29 1   
    21    9   10 1   
    22    9   30 1   
    23    9   31 1   
    24   10   11 2   
    25   10   12 1   
    26   12   13 1   
    27   12   32 1   
    28   13   14 1   
    29   13   16 1   
    30   13   33 1   
    31   14   15 1   
    32   14   34 1   
    33   14   35 1   
    34   15   36 1   
    35   15   37 1   
    36   15   38 1   
    37   16   17 1   
    38   16   39 1   
    39   16   40 1   
    40   17   41 1   
    41   17   42 1   
    42   17   43 1   
@<TRIPOS>SUBSTRUCTURE
     1 RHS         1 TEMP              0 ****  ****    0 ROOT
