@<TRIPOS>MOLECULE
RHS
   43    42     1     0     0
SMALL
bcc


@<TRIPOS>ATOM
      1 N'         -2.9830   -2.0120   -1.0120 n         1 RHS     -0.652000
      2 C'         -1.5640   -2.0980   -1.0610 c         1 RHS      0.655100
      3 O'         -1.0000   -2.2550   -2.1300 o         1 RHS     -0.631100
      4 C2'        -0.7540   -1.9210    0.2000 c3        1 RHS     -0.113700
      5 CT1        -0.2740   -3.2820    0.6920 c3        1 RHS     -0.038000
      6 CT2         0.4460   -3.1160    2.0210 c3        1 RHS     -0.095433
      7 CT3        -1.4650   -4.2020    0.8740 c3        1 RHS     -0.095433
      8 CT4         0.6830   -3.8860   -0.3330 c3        1 RHS     -0.095433
      9 C1'         0.4470   -1.0350   -0.0880 c3        1 RHS     -0.152400
     10 C          -0.0110    0.4440   -0.1930 c         1 RHS      0.662100
     11 O          -1.0860    0.7180   -0.7190 o         1 RHS     -0.639100
     12 N           0.8230    1.4990    0.3430 n         1 RHS     -0.565900
     13 C3          0.6840    2.8580   -0.1500 c3        1 RHS      0.098700
     14 C4          0.0700    3.7400    0.9450 c3        1 RHS     -0.094900
     15 C5         -0.9120    4.7230    0.3150 c3        1 RHS     -0.093600
     16 C2          2.0610    3.4070   -0.5340 c3        1 RHS     -0.094900
     17 C1          2.0560    3.8100   -2.0090 c3        1 RHS     -0.093600
     18 HN'1       -3.4850   -2.2530   -1.7470 hn        1 RHS      0.313500
     19 HN'2       -3.3930   -1.6890   -0.2670 hn        1 RHS      0.313500
     20 H2'        -1.3020   -1.5090    0.8780 hc        1 RHS      0.082700
     21 HT21        1.3770   -2.8590    1.8580 hc        1 RHS      0.041033
     22 HT22        0.0020   -2.4200    2.5480 hc        1 RHS      0.041033
     23 HT23        0.4230   -3.9630    2.5140 hc        1 RHS      0.041033
     24 HT31       -1.1970   -4.9840    1.4120 hc        1 RHS      0.041033
     25 HT32       -2.1810   -3.7210    1.3330 hc        1 RHS      0.041033
     26 HT33       -1.7820   -4.5010    0.0000 hc        1 RHS      0.041033
     27 HT41        0.1970   -4.0770   -1.1600 hc        1 RHS      0.041033
     28 HT42        1.0640   -4.7210    0.0250 hc        1 RHS      0.041033
     29 HT43        1.4040   -3.2520   -0.5190 hc        1 RHS      0.041033
     30 H1'1        1.0930   -1.1230    0.6320 hc        1 RHS      0.079700
     31 H1'2        0.8600   -1.3090   -0.9310 hc        1 RHS      0.079700
     32 HN          1.4170    1.3160    0.9990 hn        1 RHS      0.308500
     33 H3          0.1040    2.8610   -0.9320 h1        1 RHS      0.089700
     34 H41        -0.4000    3.1790    1.5900 hc        1 RHS      0.044450
     35 H42         0.7800    4.2350    1.4010 hc        1 RHS      0.044450
     36 H51        -1.7960    4.3040    0.2490 hc        1 RHS      0.037367
     37 H52        -0.6000    4.9670   -0.5770 hc        1 RHS      0.037367
     38 H53        -0.9730    5.5330    0.8760 hc        1 RHS      0.037367
     39 H21         2.2630    4.1870    0.0150 hc        1 RHS      0.044450
     40 H22         2.7390    2.7200   -0.3860 hc        1 RHS      0.044450
     41 H11         1.8710    3.0190   -2.5650 hc        1 RHS      0.037367
     42 H12         1.3610    4.4870   -2.1610 hc        1 RHS      0.037367
     43 H13         2.9310    4.1810   -2.2490 hc        1 RHS      0.037367
@<TRIPOS>BOND
     1    1    2 1   
     2    1   18 1   
     3    1   19 1   
     4    2    3 2   
     5    2    4 1   
     6    4    5 1   
     7    4    9 1   
     8    4   20 1   
     9    5    6 1   
    10    5    7 1   
    11    5    8 1   
    12    6   21 1   
    13    6   22 1   
    14    6   23 1   
    15    7   24 1   
    16    7   25 1   
    17    7   26 1   
    18    8   27 1   
    19    8   28 1   
    20    8   29 1   
    21    9   10 1   
    22    9   30 1   
    23    9   31 1   
    24   10   11 2   
    25   10   12 1   
    26   12   13 1   
    27   12   32 1   
    28   13   14 1   
    29   13   16 1   
    30   13   33 1   
    31   14   15 1   
    32   14   34 1   
    33   14   35 1   
    34   15   36 1   
    35   15   37 1   
    36   15   38 1   
    37   16   17 1   
    38   16   39 1   
    39   16   40 1   
    40   17   41 1   
    41   17   42 1   
    42   17   43 1   
@<TRIPOS>SUBSTRUCTURE
     1 RHS         1 TEMP              0 ****  ****    0 ROOT
