@<TRIPOS>MOLECULE
RHS
   45    44     1     0     0
SMALL
bcc


@<TRIPOS>ATOM
      1 N'         -0.3560    0.2590    0.8240 n4        1 RHS     -0.761400
      2 C'          1.1160    0.3630    0.4960 c         1 RHS      0.542100
      3 O'          1.3670    0.8940   -0.5720 o         1 RHS     -0.375100
      4 C2'         2.0910   -0.1890    1.5160 c3        1 RHS     -0.118700
      5 CT1         2.3970   -1.6810    1.2220 c3        1 RHS     -0.053000
      6 CT2         3.3220   -2.2000    2.3160 c3        1 RHS     -0.113100
      7 CT3         1.1060   -2.4900    1.2680 c3        1 RHS     -0.113100
      8 CT4         3.0540   -1.8760   -0.1370 c3        1 RHS     -0.113100
      9 C1'         3.3460    0.6930    1.4850 c3        1 RHS     -0.166400
     10 C           3.9500    0.8400    2.8600 c         1 RHS      0.545100
     11 O           3.3500    0.7340    3.9200 o         1 RHS     -0.406100
     12 N           5.4180    1.1470    2.9090 n4        1 RHS     -0.674800
     13 C3          5.8190    2.1290    4.0030 c3        1 RHS      0.130500
     14 C4          7.2650    1.8750    4.4420 c3        1 RHS     -0.117900
     15 C5          7.4880    0.5000    5.0140 c3        1 RHS     -0.118100
     16 C2          5.6640    3.5770    3.5350 c3        1 RHS     -0.117900
     17 C1          4.2340    3.9760    3.2990 c3        1 RHS     -0.118100
     18 HN'1       -0.5830    0.8560    1.6270 hn        1 RHS      0.482467
     19 HN'2       -0.6020   -0.7140    1.0550 hn        1 RHS      0.482467
     20 H2'         1.6330   -0.1370    2.5480 hc        1 RHS      0.113700
     21 HT21        4.2740   -1.6160    2.3400 hc        1 RHS      0.061256
     22 HT22        2.8320   -2.1370    3.3180 hc        1 RHS      0.061256
     23 HT23        3.5780   -3.2710    2.1130 hc        1 RHS      0.061256
     24 HT31        1.3530   -3.5830    1.3270 hc        1 RHS      0.061256
     25 HT32        0.5060   -2.3460    0.3370 hc        1 RHS      0.061256
     26 HT33        0.4990   -2.2390    2.1710 hc        1 RHS      0.061256
     27 HT41        4.1330   -1.5900   -0.1140 hc        1 RHS      0.061256
     28 HT42        2.5390   -1.2780   -0.9270 hc        1 RHS      0.061256
     29 HT43        3.0010   -2.9560   -0.4270 hc        1 RHS      0.061256
     30 H1'1        3.0950    1.7340    1.1240 hc        1 RHS      0.124700
     31 H1'2        4.0850    0.2640    0.7520 hc        1 RHS      0.124700
     32 HN          5.9180    0.2620    3.0870 hn        1 RHS      0.468300
     33 H3          5.1250    1.9300    4.8760 hx        1 RHS      0.127700
     34 H41         7.9730    2.0690    3.5930 hc        1 RHS      0.097200
     35 H42         7.4910    2.6420    5.2370 hc        1 RHS      0.097200
     36 H51         7.5470   -0.2840    4.2190 hc        1 RHS      0.055533
     37 H52         6.6860    0.2250    5.7400 hc        1 RHS      0.055533
     38 H53         8.4660    0.4810    5.5630 hc        1 RHS      0.055533
     39 H21         6.2850    3.7650    2.6190 hc        1 RHS      0.097200
     40 H22         6.0930    4.2270    4.3510 hc        1 RHS      0.097200
     41 H11         3.6140    3.8160    4.2150 hc        1 RHS      0.055533
     42 H12         4.1850    5.0630    3.0340 hc        1 RHS      0.055533
     43 H13         3.7820    3.3960    2.4560 hc        1 RHS      0.055533
     44 H'3        -0.9200    0.5640    0.0160 hn        1 RHS      0.482467
     45 HN3         5.7250    1.5210    2.0040 hn        1 RHS      0.468300
@<TRIPOS>BOND
     1    1    2 1   
     2    1   18 1   
     3    1   19 1   
     4    1   44 1   
     5    2    3 2   
     6    2    4 1   
     7    4    5 1   
     8    4    9 1   
     9    4   20 1   
    10    5    6 1   
    11    5    7 1   
    12    5    8 1   
    13    6   21 1   
    14    6   22 1   
    15    6   23 1   
    16    7   24 1   
    17    7   25 1   
    18    7   26 1   
    19    8   27 1   
    20    8   28 1   
    21    8   29 1   
    22    9   10 1   
    23    9   30 1   
    24    9   31 1   
    25   10   11 2   
    26   10   12 1   
    27   12   13 1   
    28   12   32 1   
    29   12   45 1   
    30   13   14 1   
    31   13   16 1   
    32   13   33 1   
    33   14   15 1   
    34   14   34 1   
    35   14   35 1   
    36   15   36 1   
    37   15   37 1   
    38   15   38 1   
    39   16   17 1   
    40   16   39 1   
    41   16   40 1   
    42   17   41 1   
    43   17   42 1   
    44   17   43 1   
@<TRIPOS>SUBSTRUCTURE
     1 RHS         1 TEMP              0 ****  ****    0 ROOT
