@<TRIPOS>MOLECULE
RHS
   45    44     1     0     0
SMALL
bcc


@<TRIPOS>ATOM
      1 N'         -0.3640    0.2580    0.8450 n4        1 RHS     -0.761400
      2 C'          1.1070    0.3470    0.5080 c         1 RHS      0.542100
      3 O'          1.3570    0.8590   -0.5700 o         1 RHS     -0.375100
      4 C2'         2.0830   -0.1930    1.5340 c3        1 RHS     -0.118700
      5 CT1         2.3780   -1.6920    1.2650 c3        1 RHS     -0.053000
      6 CT2         3.3070   -2.1970    2.3640 c3        1 RHS     -0.113100
      7 CT3         1.0820   -2.4910    1.3330 c3        1 RHS     -0.113100
      8 CT4         3.0270   -1.9140   -0.0930 c3        1 RHS     -0.113100
      9 C1'         3.3440    0.6810    1.4820 c3        1 RHS     -0.166400
     10 C           3.9550    0.8470    2.8510 c         1 RHS      0.545100
     11 O           3.3600    0.7610    3.9160 o         1 RHS     -0.406100
     12 N           5.4250    1.1470    2.8880 n4        1 RHS     -0.674800
     13 C3          5.8380    2.1430    3.9640 c3        1 RHS      0.130500
     14 C4          7.2860    1.8890    4.3980 c3        1 RHS     -0.117900
     15 C5          7.5060    0.5210    4.9880 c3        1 RHS     -0.118100
     16 C2          5.6860    3.5840    3.4760 c3        1 RHS     -0.117900
     17 C1          4.2560    3.9860    3.2420 c3        1 RHS     -0.118100
     18 HN'1       -0.6140   -0.7100    1.0950 hn        1 RHS      0.482467
     19 HN'2       -0.9290    0.5520    0.0330 hn        1 RHS      0.482467
     20 H2'         1.6290   -0.1200    2.5670 hc        1 RHS      0.113700
     21 HT21        4.2620   -1.6190    2.3710 hc        1 RHS      0.061367
     22 HT22        2.8220   -2.1110    3.3660 hc        1 RHS      0.061367
     23 HT23        3.5530   -3.2730    2.1790 hc        1 RHS      0.061367
     24 HT31        0.4790   -2.3610    0.4020 hc        1 RHS      0.061367
     25 HT32        1.3240   -3.5840    1.4100 hc        1 RHS      0.061367
     26 HT33        0.4820   -2.2200    2.2340 hc        1 RHS      0.061367
     27 HT41        2.5110   -1.3280   -0.8920 hc        1 RHS      0.061367
     28 HT42        4.1070   -1.6340   -0.0820 hc        1 RHS      0.061367
     29 HT43        2.9670   -3.0000   -0.3630 hc        1 RHS      0.061367
     30 H1'1        4.0760    0.2350    0.7520 hc        1 RHS      0.124700
     31 H1'2        3.0970    1.7170    1.1050 hc        1 RHS      0.124700
     32 HN          5.9220    0.2620    3.0770 hn        1 RHS      0.468300
     33 H3          5.1480    1.9600    4.8450 hx        1 RHS      0.127700
     34 H41         7.5190    2.6670    5.1790 hc        1 RHS      0.097200
     35 H42         7.9890    2.0670    3.5420 hc        1 RHS      0.097200
     36 H51         8.4870    0.5070    5.5320 hc        1 RHS      0.055533
     37 H52         6.7070    0.2610    5.7240 hc        1 RHS      0.055533
     38 H53         7.5560   -0.2740    4.2050 hc        1 RHS      0.055533
     39 H21         6.3030    3.7560    2.5530 hc        1 RHS      0.097200
     40 H22         6.1230    4.2440    4.2790 hc        1 RHS      0.097200
     41 H11         3.7970    3.3960    2.4100 hc        1 RHS      0.055533
     42 H12         3.6410    3.8410    4.1640 hc        1 RHS      0.055533
     43 H13         4.2100    5.0700    2.9620 hc        1 RHS      0.055533
     44 H'3        -0.5850    0.8710    1.6380 hn        1 RHS      0.482467
     45 HN3         5.7290    1.5050    1.9760 hn        1 RHS      0.468300
@<TRIPOS>BOND
     1    1    2 1   
     2    1   18 1   
     3    1   19 1   
     4    1   44 1   
     5    2    3 2   
     6    2    4 1   
     7    4    5 1   
     8    4    9 1   
     9    4   20 1   
    10    5    6 1   
    11    5    7 1   
    12    5    8 1   
    13    6   21 1   
    14    6   22 1   
    15    6   23 1   
    16    7   24 1   
    17    7   25 1   
    18    7   26 1   
    19    8   27 1   
    20    8   28 1   
    21    8   29 1   
    22    9   10 1   
    23    9   30 1   
    24    9   31 1   
    25   10   11 2   
    26   10   12 1   
    27   12   13 1   
    28   12   32 1   
    29   12   45 1   
    30   13   14 1   
    31   13   16 1   
    32   13   33 1   
    33   14   15 1   
    34   14   34 1   
    35   14   35 1   
    36   15   36 1   
    37   15   37 1   
    38   15   38 1   
    39   16   17 1   
    40   16   39 1   
    41   16   40 1   
    42   17   41 1   
    43   17   42 1   
    44   17   43 1   
@<TRIPOS>SUBSTRUCTURE
     1 RHS         1 TEMP              0 ****  ****    0 ROOT
