@<TRIPOS>MOLECULE
RHS
   45    44     1     0     0
SMALL
bcc


@<TRIPOS>ATOM
      1 N'         -0.3630    0.3350    0.8370 nz        1 RHS     -0.761400
      2 C'          1.1100    0.3870    0.5030 c         1 RHS      0.542100
      3 O'          1.3740    0.8820   -0.5800 o         1 RHS     -0.375100
      4 C2'         2.0720   -0.1640    1.5360 c3        1 RHS     -0.118700
      5 CT1         2.3330   -1.6720    1.2830 c3        1 RHS     -0.053000
      6 CT2         3.2470   -2.1870    2.3900 c3        1 RHS     -0.113100
      7 CT3         1.0200   -2.4410    1.3550 c3        1 RHS     -0.113100
      8 CT4         2.9810   -1.9220   -0.0710 c3        1 RHS     -0.113100
      9 C1'         3.3510    0.6810    1.4780 c3        1 RHS     -0.166400
     10 C           3.9630    0.8470    2.8470 c         1 RHS      0.545100
     11 O           3.3630    0.7880    3.9120 o         1 RHS     -0.406100
     12 N           5.4390    1.1140    2.8850 ny        1 RHS     -0.674800
     13 C3          5.8720    2.1130    3.9510 c3        1 RHS      0.130500
     14 C4          7.3120    1.8290    4.3930 c3        1 RHS     -0.117900
     15 C5          7.4980    0.4640    5.0010 c3        1 RHS     -0.118100
     16 C2          5.7560    3.5510    3.4460 c3        1 RHS     -0.117900
     17 C1          4.3370    3.9840    3.2030 c3        1 RHS     -0.118100
     18 HN'1       -0.5710    0.9610    1.6230 hn        1 RHS      0.482467
     19 HN'2       -0.9200    0.6340    0.0210 hn        1 RHS      0.482467
     20 H2'         1.6170   -0.0700    2.5680 hc        1 RHS      0.113700
     21 HT21        3.4700   -3.2700    2.2160 hc        1 RHS      0.061367
     22 HT22        2.7610   -2.0810    3.3900 hc        1 RHS      0.061367
     23 HT23        4.2150   -1.6300    2.3950 hc        1 RHS      0.061367
     24 HT31        1.2360   -3.5380    1.4430 hc        1 RHS      0.061367
     25 HT32        0.4220   -2.3060    0.4200 hc        1 RHS      0.061367
     26 HT33        0.4230   -2.1480    2.2520 hc        1 RHS      0.061367
     27 HT41        4.0680   -1.6670   -0.0580 hc        1 RHS      0.061367
     28 HT42        2.8970   -3.0090   -0.3310 hc        1 RHS      0.061367
     29 HT43        2.4810   -1.3320   -0.8770 hc        1 RHS      0.061367
     30 H1'1        4.0750    0.2110    0.7560 hc        1 RHS      0.124700
     31 H1'2        3.1290    1.7180    1.0900 hc        1 RHS      0.124700
     32 HN          5.7540    1.4540    1.9700 hn        1 RHS      0.468300
     33 H3          5.1750    1.9560    4.8320 hx        1 RHS      0.127700
     34 H41         7.5610    2.6100    5.1670 hc        1 RHS      0.097200
     35 H42         8.0220    1.9810    3.5380 hc        1 RHS      0.097200
     36 H51         8.4770    0.4320    5.5470 hc        1 RHS      0.055533
     37 H52         6.6910    0.2310    5.7370 hc        1 RHS      0.055533
     38 H53         7.5320   -0.3420    4.2270 hc        1 RHS      0.055533
     39 H21         6.3790    3.6970    2.5230 hc        1 RHS      0.097200
     40 H22         6.2060    4.2100    4.2430 hc        1 RHS      0.097200
     41 H11         4.3170    5.0650    2.9100 hc        1 RHS      0.055533
     42 H12         3.8660    3.3950    2.3770 hc        1 RHS      0.055533
     43 H13         3.7150    3.8650    4.1240 hc        1 RHS      0.055533
     44 H'3        -0.6360   -0.6240    1.0950 hn        1 RHS      0.482467
     45 HN3         5.9150    0.2200    3.0860 hn        1 RHS      0.468300
@<TRIPOS>BOND
     1    1    2 1   
     2    1   18 1   
     3    1   19 1   
     4    1   44 1   
     5    2    3 2   
     6    2    4 1   
     7    4    5 1   
     8    4    9 1   
     9    4   20 1   
    10    5    6 1   
    11    5    7 1   
    12    5    8 1   
    13    6   21 1   
    14    6   22 1   
    15    6   23 1   
    16    7   24 1   
    17    7   25 1   
    18    7   26 1   
    19    8   27 1   
    20    8   28 1   
    21    8   29 1   
    22    9   10 1   
    23    9   30 1   
    24    9   31 1   
    25   10   11 2   
    26   10   12 1   
    27   12   13 1   
    28   12   32 1   
    29   12   45 1   
    30   13   14 1   
    31   13   16 1   
    32   13   33 1   
    33   14   15 1   
    34   14   34 1   
    35   14   35 1   
    36   15   36 1   
    37   15   37 1   
    38   15   38 1   
    39   16   17 1   
    40   16   39 1   
    41   16   40 1   
    42   17   41 1   
    43   17   42 1   
    44   17   43 1   
@<TRIPOS>SUBSTRUCTURE
     1 RHS         1 TEMP              0 ****  ****    0 ROOT
