@<TRIPOS>MOLECULE
RHU
   15    15     1     0     0
SMALL
bcc


@<TRIPOS>ATOM
      1 C01        -0.0460    0.1340   -0.0540 cc        1 RHU      0.454800
      2 N02         1.3370    0.2010   -0.0890 nd        1 RHU     -0.360000
      3 N03         1.8120    0.1400    1.1240 nd        1 RHU     -0.260000
      4 C04         0.7690    0.0310    2.0060 cc        1 RHU      0.243800
      5 N05        -0.4400    0.0240    1.2860 na        1 RHU     -0.267700
      6 S06        -1.1140    0.1740   -1.3550 sh        1 RHU     -0.265100
      7 C07        -1.7730   -0.0720    1.7860 c3        1 RHU      0.009600
      8 C08         0.8560   -0.0690    3.5180 c3        1 RHU      0.644600
      9 F09         2.1270   -0.0430    4.0190 f         1 RHU     -0.221300
     10 F10         0.1920    0.9410    4.1700 f         1 RHU     -0.221300
     11 F11         0.2950   -1.2180    4.0210 f         1 RHU     -0.221300
     12 HS06       -0.2280    0.2810   -2.3420 hs        1 RHU      0.236800
     13 H07        -1.7450   -0.1540    2.9060 h1        1 RHU      0.075700
     14 H07A       -2.3560    0.8430    1.4920 h1        1 RHU      0.075700
     15 H07B       -2.2750   -0.9820    1.3560 h1        1 RHU      0.075700
@<TRIPOS>BOND
     1    1    2 2   
     2    1    5 1   
     3    1    6 1   
     4    2    3 1   
     5    3    4 2   
     6    4    5 1   
     7    4    8 1   
     8    5    7 1   
     9    6   12 1   
    10    7   13 1   
    11    7   14 1   
    12    7   15 1   
    13    8    9 1   
    14    8   10 1   
    15    8   11 1   
@<TRIPOS>SUBSTRUCTURE
     1 RHU         1 TEMP              0 ****  ****    0 ROOT
