@<TRIPOS>MOLECULE
RI2
   26    26     1     0     0
SMALL
bcc


@<TRIPOS>ATOM
      1 P          -0.1810    0.6060    1.2690 p5        1 RI2      1.327900
      2 C1          5.3600    1.4790   -1.1660 c3        1 RI2      0.359900
      3 O1          6.3260    0.5750   -1.5060 os        1 RI2     -0.584200
      4 C2          5.4030    1.8200    0.3610 c3        1 RI2      0.064100
      5 O2          6.6900    1.8720    0.9210 oh        1 RI2     -0.668800
      6 C3          4.5470    0.6890    0.9810 c3        1 RI2      0.113100
      7 O3          5.3570   -0.4370    1.2820 oh        1 RI2     -0.641800
      8 C4          3.5260    0.3630   -0.1290 c3        1 RI2      0.093100
      9 O4          4.0890    0.8320   -1.3710 os        1 RI2     -0.467600
     10 C5          2.1520    1.0360    0.1020 c3        1 RI2      0.213400
     11 O5          1.5430    0.5530    1.2400 os        1 RI2     -0.582200
     12 PA          7.6690    1.1520   -2.4340 p5        1 RI2      1.327900
     13 O1A         8.1700   -0.0520   -3.1870 o         1 RI2     -0.935833
     14 O1P        -0.5120   -0.2070    2.4990 o         1 RI2     -0.950500
     15 O2A         7.1190    2.2700   -3.2790 o         1 RI2     -0.935833
     16 O2P        -0.4980    2.0780    1.3930 o         1 RI2     -0.950500
     17 O3A         8.5490    1.6050   -1.2900 o         1 RI2     -0.935833
     18 O3P        -0.6100   -0.0190   -0.0360 o         1 RI2     -0.950500
     19 H1          5.3780    2.3860   -1.8300 h2        1 RI2      0.071700
     20 H2          4.9150    2.8130    0.5500 h1        1 RI2      0.020700
     21 HO2         7.3310    1.5970    0.2190 ho        1 RI2      0.479000
     22 H3          4.0380    0.9650    1.9360 h1        1 RI2      0.080700
     23 HO3         5.9370   -0.5530    0.5130 ho        1 RI2      0.424000
     24 H4          3.3970   -0.7460   -0.2280 h1        1 RI2      0.041700
     25 H5          2.3450    2.1480    0.1890 h1        1 RI2     -0.005300
     26 H5A         1.5000    0.8540   -0.7970 h1        1 RI2     -0.005300
@<TRIPOS>BOND
     1    1   11 1   
     2    1   14 1   
     3    1   16 1   
     4    1   18 1   
     5    2    3 1   
     6    2    4 1   
     7    2    9 1   
     8    2   19 1   
     9    3   12 1   
    10    4    5 1   
    11    4    6 1   
    12    4   20 1   
    13    5   21 1   
    14    6    7 1   
    15    6    8 1   
    16    6   22 1   
    17    7   23 1   
    18    8    9 1   
    19    8   10 1   
    20    8   24 1   
    21   10   11 1   
    22   10   25 1   
    23   10   26 1   
    24   12   13 1   
    25   12   15 1   
    26   12   17 1   
@<TRIPOS>SUBSTRUCTURE
     1 RI2         1 TEMP              0 ****  ****    0 ROOT
