@<TRIPOS>MOLECULE
RI2
   26    26     1     0     0
SMALL
bcc


@<TRIPOS>ATOM
      1 P          -0.1650    0.7090    1.3410 p5        1 RI2      1.327900
      2 C1          5.3470    1.3890   -1.2190 c3        1 RI2      0.359900
      3 O1          6.3160    0.4650   -1.4830 os        1 RI2     -0.584200
      4 C2          5.4010    1.8730    0.2690 c3        1 RI2      0.064100
      5 O2          6.6920    1.9850    0.8090 oh        1 RI2     -0.668800
      6 C3          4.5590    0.7980    1.0000 c3        1 RI2      0.113100
      7 O3          5.3810   -0.2890    1.3980 oh        1 RI2     -0.641800
      8 C4          3.5310    0.3630   -0.0640 c3        1 RI2      0.093100
      9 O4          4.0790    0.7170   -1.3500 os        1 RI2     -0.467600
     10 C5          2.1540    1.0450    0.1160 c3        1 RI2      0.213400
     11 O5          1.5590    0.6650    1.3000 os        1 RI2     -0.582200
     12 PA          7.6470    0.9610   -2.4730 p5        1 RI2      1.327900
     13 O1A         8.1500   -0.3040   -3.1150 o         1 RI2     -0.935833
     14 O1P        -0.4790    0.0110    2.6440 o         1 RI2     -0.950500
     15 O2A         7.0800    1.9920   -3.4130 o         1 RI2     -0.935833
     16 O2P        -0.4920    2.1840    1.3310 o         1 RI2     -0.950500
     17 O3A         8.5330    1.5260   -1.3850 o         1 RI2     -0.935833
     18 O3P        -0.6010   -0.0360    0.1030 o         1 RI2     -0.950500
     19 H1          5.3520    2.2310   -1.9640 h2        1 RI2      0.071700
     20 H2          4.9070    2.8750    0.3690 h1        1 RI2      0.020700
     21 HO2         7.3290    1.6510    0.1300 ho        1 RI2      0.479000
     22 H3          4.0570    1.1590    1.9310 h1        1 RI2      0.080700
     23 HO3         5.9550   -0.4720    0.6370 ho        1 RI2      0.424000
     24 H4          3.4100   -0.7510   -0.0570 h1        1 RI2      0.041700
     25 H5          1.4950    0.7750   -0.7560 h1        1 RI2     -0.005300
     26 H5A         2.3390    2.1610    0.0980 h1        1 RI2     -0.005300
@<TRIPOS>BOND
     1    1   11 1   
     2    1   14 1   
     3    1   16 1   
     4    1   18 1   
     5    2    3 1   
     6    2    4 1   
     7    2    9 1   
     8    2   19 1   
     9    3   12 1   
    10    4    5 1   
    11    4    6 1   
    12    4   20 1   
    13    5   21 1   
    14    6    7 1   
    15    6    8 1   
    16    6   22 1   
    17    7   23 1   
    18    8    9 1   
    19    8   10 1   
    20    8   24 1   
    21   10   11 1   
    22   10   25 1   
    23   10   26 1   
    24   12   13 1   
    25   12   15 1   
    26   12   17 1   
@<TRIPOS>SUBSTRUCTURE
     1 RI2         1 TEMP              0 ****  ****    0 ROOT
