@<TRIPOS>MOLECULE
RI2
   26    26     1     0     0
SMALL
bcc


@<TRIPOS>ATOM
      1 P          -4.5080    0.4690   -0.5410 p5        1 RI2      1.327900
      2 C1          1.6070    0.4310   -0.6400 c3        1 RI2      0.359900
      3 O1          2.5010    0.0370    0.3140 os        1 RI2     -0.584200
      4 C2          1.0990    1.8900   -0.3870 c3        1 RI2      0.064100
      5 O2          2.0640    2.7720    0.1270 oh        1 RI2     -0.668800
      6 C3         -0.0700    1.6700    0.6030 c3        1 RI2      0.113100
      7 O3          0.4050    1.6790    1.9410 oh        1 RI2     -0.641800
      8 C4         -0.6150    0.2810    0.2120 c3        1 RI2      0.093100
      9 O4          0.4410   -0.4040   -0.4920 os        1 RI2     -0.467600
     10 C5         -1.8700    0.3600   -0.6890 c3        1 RI2      0.213400
     11 O5         -2.9300    0.9350   -0.0220 os        1 RI2     -0.582200
     12 PA          4.1620   -0.1010   -0.1560 p5        1 RI2      1.327900
     13 O1A         4.7530   -1.1130    0.7880 o         1 RI2     -0.935833
     14 O1P        -4.6520    1.1190   -1.8970 o         1 RI2     -0.950500
     15 O2A         4.1330   -0.4980   -1.6080 o         1 RI2     -0.935833
     16 O2P        -4.4760   -1.0400   -0.5710 o         1 RI2     -0.950500
     17 O3A         4.5820    1.3320    0.0940 o         1 RI2     -0.935833
     18 O3P        -5.3930    1.0630    0.5300 o         1 RI2     -0.950500
     19 H1          1.9990    0.2660   -1.6810 h2        1 RI2      0.071700
     20 H2          0.7110    2.3350   -1.3410 h1        1 RI2      0.020700
     21 HO2         2.8840    2.2470    0.3000 ho        1 RI2      0.479000
     22 H3         -0.8680    2.4500    0.5560 h1        1 RI2      0.080700
     23 HO3         1.2170    1.1480    1.9320 ho        1 RI2      0.424000
     24 H4         -0.8400   -0.3230    1.1300 h1        1 RI2      0.041700
     25 H5         -1.5830    0.9740   -1.5950 h1        1 RI2     -0.005300
     26 H5A        -2.1410   -0.6780   -1.0300 h1        1 RI2     -0.005300
@<TRIPOS>BOND
     1    1   11 1   
     2    1   14 1   
     3    1   16 1   
     4    1   18 1   
     5    2    3 1   
     6    2    4 1   
     7    2    9 1   
     8    2   19 1   
     9    3   12 1   
    10    4    5 1   
    11    4    6 1   
    12    4   20 1   
    13    5   21 1   
    14    6    7 1   
    15    6    8 1   
    16    6   22 1   
    17    7   23 1   
    18    8    9 1   
    19    8   10 1   
    20    8   24 1   
    21   10   11 1   
    22   10   25 1   
    23   10   26 1   
    24   12   13 1   
    25   12   15 1   
    26   12   17 1   
@<TRIPOS>SUBSTRUCTURE
     1 RI2         1 TEMP              0 ****  ****    0 ROOT
