@<TRIPOS>MOLECULE
RI5
   37    41     1     0     0
SMALL
bcc


@<TRIPOS>ATOM
      1 C01         3.3800   -0.0030   -1.7820 c3        1 RI5     -0.063900
      2 C02         3.0210    0.1270   -0.3450 c2        1 RI5     -0.117400
      3 C03         3.6220    1.0400    0.4250 c2        1 RI5     -0.186000
      4 C04         2.0760   -0.8750    0.2060 c3        1 RI5     -0.045500
      5 C05         0.9850   -1.4420   -0.7350 c3        1 RI5      0.127100
      6 C06         0.1770   -0.2900   -1.3310 c3        1 RI5      0.127100
      7 C07        -0.2630    0.8120   -0.3250 c3        1 RI5     -0.050000
      8 C08         0.3060    0.7580    1.1330 c3        1 RI5      0.183800
      9 C09         1.1670   -0.4930    1.4010 c3        1 RI5     -0.176700
     10 C10         0.2550   -1.7160    1.4250 c         1 RI5      0.707600
     11 O11        -0.3450   -2.2900    2.3220 o         1 RI5     -0.553500
     12 O12         0.1530   -2.2440    0.1480 os        1 RI5     -0.391900
     13 C13        -0.9190    0.8030    2.1000 c3        1 RI5     -0.132400
     14 C14        -2.1460    0.4860    1.2810 cx        1 RI5      0.108100
     15 C15        -1.7610    0.5060   -0.1620 cx        1 RI5     -0.047200
     16 O16        -2.5780    1.5340    0.3880 os        1 RI5     -0.334600
     17 C17        -2.1590   -0.3790   -1.2820 c         1 RI5      0.760600
     18 O18        -3.2300   -0.7740   -1.7130 o         1 RI5     -0.526500
     19 O19        -1.0240   -0.8220   -1.9410 os        1 RI5     -0.395900
     20 O20         1.0930    1.9240    1.3310 oh        1 RI5     -0.574800
     21 C21        -0.0420    2.1750   -0.9510 c3        1 RI5     -0.076100
     22 H01         4.4700    0.2000   -1.9340 hc        1 RI5      0.046700
     23 H01A        3.1590   -1.0270   -2.1710 hc        1 RI5      0.046700
     24 H01B        2.8060    0.7410   -2.3910 hc        1 RI5      0.046700
     25 H03         3.3890    1.1640    1.4900 ha        1 RI5      0.117000
     26 H03A        4.3700    1.7370    0.0260 ha        1 RI5      0.117000
     27 H04         2.7150   -1.7490    0.5390 hc        1 RI5      0.080700
     28 H05         1.3460   -2.1490   -1.5210 h1        1 RI5      0.113700
     29 H06         0.7630    0.1580   -2.1800 h1        1 RI5      0.096700
     30 H09         1.7370   -0.3810    2.3540 hc        1 RI5      0.099700
     31 H13        -0.8060    0.0600    2.9280 hc        1 RI5      0.088200
     32 H13A       -1.0030    1.8290    2.5410 hc        1 RI5      0.088200
     33 H14        -2.9550   -0.1160    1.7230 h1        1 RI5      0.134700
     34 HO20        1.3250    1.9480    2.2690 ho        1 RI5      0.407000
     35 H21        -0.5220    2.2170   -1.9580 hc        1 RI5      0.058033
     36 H21A       -0.4930    2.9650   -0.3020 hc        1 RI5      0.058033
     37 H21B        1.0520    2.3760   -1.0510 hc        1 RI5      0.058033
@<TRIPOS>BOND
     1    1    2 1   
     2    1   22 1   
     3    1   23 1   
     4    1   24 1   
     5    2    3 2   
     6    2    4 1   
     7    3   25 1   
     8    3   26 1   
     9    4    5 1   
    10    4    9 1   
    11    4   27 1   
    12    5    6 1   
    13    5   12 1   
    14    5   28 1   
    15    6    7 1   
    16    6   19 1   
    17    6   29 1   
    18    7    8 1   
    19    7   15 1   
    20    7   21 1   
    21    8    9 1   
    22    8   13 1   
    23    8   20 1   
    24    9   10 1   
    25    9   30 1   
    26   10   11 2   
    27   10   12 1   
    28   13   14 1   
    29   13   31 1   
    30   13   32 1   
    31   14   15 1   
    32   14   16 1   
    33   14   33 1   
    34   15   16 1   
    35   15   17 1   
    36   17   18 2   
    37   17   19 1   
    38   20   34 1   
    39   21   35 1   
    40   21   36 1   
    41   21   37 1   
@<TRIPOS>SUBSTRUCTURE
     1 RI5         1 TEMP              0 ****  ****    0 ROOT
