@<TRIPOS>MOLECULE
RI5
   37    41     1     0     0
SMALL
bcc


@<TRIPOS>ATOM
      1 C01         0.4600   -0.8780   -0.3850 c3        1 RI5     -0.063900
      2 C02         1.3680    0.2890   -0.2380 c2        1 RI5     -0.094400
      3 C03         1.3160    1.3080   -1.1040 c2        1 RI5     -0.225000
      4 C04         2.2390    0.3160    0.9630 c3        1 RI5     -0.049500
      5 C05         3.5070    1.2020    0.9050 c3        1 RI5      0.126100
      6 C06         4.3570    0.7990   -0.3020 c3        1 RI5      0.126100
      7 C07         4.5500   -0.7290   -0.5100 c3        1 RI5     -0.051000
      8 C08         3.7240   -1.7110    0.3870 c3        1 RI5      0.183800
      9 C09         2.8990   -0.9900    1.4710 c3        1 RI5     -0.175700
     10 C10         3.8540   -0.4050    2.5070 c         1 RI5      0.707600
     11 O11         4.3140   -0.8410    3.5520 o         1 RI5     -0.552500
     12 O12         4.2050    0.8840    2.1410 os        1 RI5     -0.389900
     13 C13         4.7430   -2.6990    1.0360 c3        1 RI5     -0.131400
     14 C14         6.1150   -2.0910    0.8770 cx        1 RI5      0.108100
     15 C15         6.0040   -0.9270   -0.0540 cx        1 RI5     -0.047200
     16 O16         6.6550   -2.1270   -0.4600 os        1 RI5     -0.334600
     17 C17         6.6440    0.4080   -0.0170 c         1 RI5      0.760600
     18 O18         7.7940    0.7960    0.1130 o         1 RI5     -0.526500
     19 O19         5.6740    1.3870   -0.1650 os        1 RI5     -0.395900
     20 O20         2.8550   -2.4450   -0.4640 oh        1 RI5     -0.576800
     21 C21         4.3820   -1.0600   -1.9810 c3        1 RI5     -0.076100
     22 H01         0.8510   -1.5630   -1.1810 hc        1 RI5      0.049033
     23 H01A        0.3840   -1.4570    0.5670 hc        1 RI5      0.049033
     24 H01B       -0.5650   -0.5430   -0.6800 hc        1 RI5      0.049033
     25 H03         0.6210    1.3080   -1.9540 ha        1 RI5      0.120000
     26 H03A        1.9470    2.2020   -1.0200 ha        1 RI5      0.120000
     27 H04         1.5880    0.7030    1.8040 hc        1 RI5      0.082700
     28 H05         3.3260    2.3040    0.9410 h1        1 RI5      0.113700
     29 H06         3.9200    1.2720   -1.2260 h1        1 RI5      0.098700
     30 H09         2.1660   -1.6890    1.9380 hc        1 RI5      0.099700
     31 H13         4.5170   -2.8580    2.1200 hc        1 RI5      0.088200
     32 H13A        4.6910   -3.6830    0.5040 hc        1 RI5      0.088200
     33 H14         6.8560   -2.2000    1.6850 h1        1 RI5      0.134700
     34 HO20        2.3810   -3.0750    0.0950 ho        1 RI5      0.408000
     35 H21         3.3140   -0.9310   -2.2820 hc        1 RI5      0.058367
     36 H21A        4.6810   -2.1210   -2.1630 hc        1 RI5      0.058367
     37 H21B        5.0270   -0.3910   -2.6000 hc        1 RI5      0.058367
@<TRIPOS>BOND
     1    1    2 1   
     2    1   22 1   
     3    1   23 1   
     4    1   24 1   
     5    2    3 2   
     6    2    4 1   
     7    3   25 1   
     8    3   26 1   
     9    4    5 1   
    10    4    9 1   
    11    4   27 1   
    12    5    6 1   
    13    5   12 1   
    14    5   28 1   
    15    6    7 1   
    16    6   19 1   
    17    6   29 1   
    18    7    8 1   
    19    7   15 1   
    20    7   21 1   
    21    8    9 1   
    22    8   13 1   
    23    8   20 1   
    24    9   10 1   
    25    9   30 1   
    26   10   11 2   
    27   10   12 1   
    28   13   14 1   
    29   13   31 1   
    30   13   32 1   
    31   14   15 1   
    32   14   16 1   
    33   14   33 1   
    34   15   16 1   
    35   15   17 1   
    36   17   18 2   
    37   17   19 1   
    38   20   34 1   
    39   21   35 1   
    40   21   36 1   
    41   21   37 1   
@<TRIPOS>SUBSTRUCTURE
     1 RI5         1 TEMP              0 ****  ****    0 ROOT
