@<TRIPOS>MOLECULE
RI5
   37    41     1     0     0
SMALL
bcc


@<TRIPOS>ATOM
      1 C01         0.4670   -0.9420   -0.3900 c3        1 RI5     -0.063900
      2 C02         1.3400    0.2410   -0.1750 c2        1 RI5     -0.094400
      3 C03         1.2520    1.3090   -0.9770 c2        1 RI5     -0.225000
      4 C04         2.2160    0.2210    1.0220 c3        1 RI5     -0.049500
      5 C05         3.4570    1.1480    1.0150 c3        1 RI5      0.126100
      6 C06         4.3110    0.8460   -0.2180 c3        1 RI5      0.126100
      7 C07         4.5500   -0.6610   -0.5210 c3        1 RI5     -0.051000
      8 C08         3.7590   -1.7210    0.3180 c3        1 RI5      0.183800
      9 C09         2.9190   -1.0930    1.4470 c3        1 RI5     -0.175700
     10 C10         3.8610   -0.5430    2.5140 c         1 RI5      0.707600
     11 O11         4.3400   -1.0270    3.5280 o         1 RI5     -0.552500
     12 O12         4.1700    0.7760    2.2260 os        1 RI5     -0.389900
     13 C13         4.8120   -2.7140    0.9020 c3        1 RI5     -0.131400
     14 C14         6.1630   -2.0560    0.7750 cx        1 RI5      0.108100
     15 C15         6.0120   -0.8420   -0.0820 cx        1 RI5     -0.047200
     16 O16         6.6970   -1.9930   -0.5640 os        1 RI5     -0.334600
     17 C17         6.6110    0.5080    0.0340 c         1 RI5      0.760600
     18 O18         7.7500    0.9220    0.1830 o         1 RI5     -0.526500
     19 O19         5.6110    1.4630   -0.0510 os        1 RI5     -0.395900
     20 O20         2.9080   -2.4280   -0.5730 oh        1 RI5     -0.576800
     21 C21         4.3840   -0.9060   -2.0080 c3        1 RI5     -0.076100
     22 H01         0.8750   -1.5650   -1.2280 hc        1 RI5      0.049033
     23 H01A       -0.5700   -0.6220   -0.6600 hc        1 RI5      0.049033
     24 H01B        0.4140   -1.5810    0.5250 hc        1 RI5      0.049033
     25 H03         0.5530    1.3390   -1.8230 ha        1 RI5      0.120000
     26 H03A        1.8560    2.2150   -0.8400 ha        1 RI5      0.120000
     27 H04         1.5580    0.5360    1.8880 hc        1 RI5      0.082700
     28 H05         3.2430    2.2390    1.1180 h1        1 RI5      0.113700
     29 H06         3.8550    1.3590   -1.1100 h1        1 RI5      0.098700
     30 H09         2.2090   -1.8410    1.8730 hc        1 RI5      0.099700
     31 H13         4.5960   -2.9460    1.9740 hc        1 RI5      0.088200
     32 H13A        4.7860   -3.6660    0.3110 hc        1 RI5      0.088200
     33 H14         6.9120   -2.1920    1.5720 h1        1 RI5      0.134700
     34 HO20        2.4560   -3.1040   -0.0520 ho        1 RI5      0.408000
     35 H21         4.7140   -1.9450   -2.2560 hc        1 RI5      0.058367
     36 H21A        3.3110   -0.7920   -2.2960 hc        1 RI5      0.058367
     37 H21B        5.0050   -0.1810   -2.5870 hc        1 RI5      0.058367
@<TRIPOS>BOND
     1    1    2 1   
     2    1   22 1   
     3    1   23 1   
     4    1   24 1   
     5    2    3 2   
     6    2    4 1   
     7    3   25 1   
     8    3   26 1   
     9    4    5 1   
    10    4    9 1   
    11    4   27 1   
    12    5    6 1   
    13    5   12 1   
    14    5   28 1   
    15    6    7 1   
    16    6   19 1   
    17    6   29 1   
    18    7    8 1   
    19    7   15 1   
    20    7   21 1   
    21    8    9 1   
    22    8   13 1   
    23    8   20 1   
    24    9   10 1   
    25    9   30 1   
    26   10   11 2   
    27   10   12 1   
    28   13   14 1   
    29   13   31 1   
    30   13   32 1   
    31   14   15 1   
    32   14   16 1   
    33   14   33 1   
    34   15   16 1   
    35   15   17 1   
    36   17   18 2   
    37   17   19 1   
    38   20   34 1   
    39   21   35 1   
    40   21   36 1   
    41   21   37 1   
@<TRIPOS>SUBSTRUCTURE
     1 RI5         1 TEMP              0 ****  ****    0 ROOT
