@<TRIPOS>MOLECULE
RI8
   43    45     1     0     0
SMALL
bcc


@<TRIPOS>ATOM
      1 C1          1.7730    1.5230    3.8720 ca        1 RI8      0.691900
      2 N2          2.9140    1.0280    3.3160 nb        1 RI8     -0.769000
      3 C3          2.7720   -0.0400    2.4700 ca        1 RI8      0.746200
      4 C4          1.4640   -0.5660    2.1940 ca        1 RI8     -0.417700
      5 C5          0.3480    0.0610    2.8440 ca        1 RI8      0.510100
      6 N6          0.5000    1.1150    3.6920 nb        1 RI8     -0.732000
      7 S7          0.9700   -1.8350    1.2170 ss        1 RI8      0.132500
      8 C8         -0.6410   -1.6180    1.5620 cc        1 RI8     -0.084400
      9 C9         -0.8870   -0.5870    2.4450 cd        1 RI8     -0.282000
     10 N10         3.8850   -0.6460    1.9220 nv        1 RI8     -0.950500
     11 C11        -2.2660   -0.2450    2.8500 c         1 RI8      0.704300
     12 O12        -3.2390   -0.6770    2.2000 o         1 RI8     -0.591100
     13 N13        -2.4460    0.5220    3.9980 ns        1 RI8     -0.455100
     14 C14        -3.7100    0.9460    4.4410 ca        1 RI8      0.017600
     15 C15        -4.8050    0.0490    4.5640 ca        1 RI8      0.111900
     16 C16        -6.0820    0.5020    5.0180 ca        1 RI8      0.124600
     17 C17        -6.2270    1.8490    5.4010 ca        1 RI8     -0.146000
     18 C18        -5.1600    2.7290    5.3090 ca        1 RI8     -0.136000
     19 C19        -3.9150    2.3020    4.8300 ca        1 RI8      0.091900
     20 N20        -7.1530   -0.4010    5.0990 nu        1 RI8     -0.774500
     21 F21        -4.6430   -1.2610    4.2620 f         1 RI8     -0.117900
     22 F22        -2.8950    3.1920    4.7530 f         1 RI8     -0.132900
     23 S23        -8.7370   -0.1000    4.8460 s6        1 RI8      1.458900
     24 O24        -9.4470   -1.2640    5.2020 o         1 RI8     -0.646300
     25 O25        -9.1340    1.1020    5.4590 o         1 RI8     -0.646300
     26 C26        -8.8180    0.1030    3.1460 c3        1 RI8     -0.328600
     27 C27       -10.2400    0.3800    2.7050 c3        1 RI8     -0.056400
     28 C28       -10.3330    0.5650    1.2130 c3        1 RI8     -0.087100
     29 H1          1.9210    2.3850    4.5590 h5        1 RI8      0.058100
     30 H8         -1.4350   -2.2340    1.1260 h4        1 RI8      0.203000
     31 HN10        3.7480   -1.2180    1.1250 hn        1 RI8      0.434800
     32 HN1A        4.7700   -0.2090    2.0270 hn        1 RI8      0.434800
     33 HN13       -1.6730    1.0330    4.3700 hn        1 RI8      0.356500
     34 H17        -7.1960    2.2210    5.7830 ha        1 RI8      0.184000
     35 H18        -5.2850    3.7800    5.6130 ha        1 RI8      0.160000
     36 HN20       -6.8540   -1.3400    5.2640 hn        1 RI8      0.466800
     37 H26        -8.1690    0.9470    2.7890 h1        1 RI8      0.117200
     38 H26A       -8.4510   -0.8040    2.5960 h1        1 RI8      0.117200
     39 H27       -10.6140    1.3060    3.2230 hc        1 RI8      0.059700
     40 H27A      -10.8970   -0.4760    3.0200 hc        1 RI8      0.059700
     41 H28        -9.9840   -0.3520    0.6790 hc        1 RI8      0.038033
     42 H28A      -11.3910    0.7670    0.9180 hc        1 RI8      0.038033
     43 H28B       -9.7020    1.4250    0.8820 hc        1 RI8      0.038033
@<TRIPOS>BOND
     1    1    2 ar  
     2    1    6 ar  
     3    1   29 1   
     4    2    3 ar  
     5    3    4 ar  
     6    3   10 1   
     7    4    5 ar  
     8    4    7 1   
     9    5    6 ar  
    10    5    9 1   
    11    7    8 1   
    12    8    9 2   
    13    8   30 1   
    14    9   11 1   
    15   10   31 1   
    16   10   32 1   
    17   11   12 2   
    18   11   13 1   
    19   13   14 1   
    20   13   33 1   
    21   14   15 ar  
    22   14   19 ar  
    23   15   16 ar  
    24   15   21 1   
    25   16   17 ar  
    26   16   20 1   
    27   17   18 ar  
    28   17   34 1   
    29   18   19 ar  
    30   18   35 1   
    31   19   22 1   
    32   20   23 1   
    33   20   36 1   
    34   23   24 2   
    35   23   25 2   
    36   23   26 1   
    37   26   27 1   
    38   26   37 1   
    39   26   38 1   
    40   27   28 1   
    41   27   39 1   
    42   27   40 1   
    43   28   41 1   
    44   28   42 1   
    45   28   43 1   
@<TRIPOS>SUBSTRUCTURE
     1 RI8         1 TEMP              0 ****  ****    0 ROOT
