@<TRIPOS>MOLECULE
RI8
   46    47     1     0     0
SMALL
bcc


@<TRIPOS>ATOM
      1 C1          2.0700   -0.5280    0.4790 ca        1 RI8      0.723900
      2 N2          3.3400   -0.6320    1.0030 nb        1 RI8     -0.638000
      3 C3          3.4590   -0.5770    2.3390 ca        1 RI8      0.585200
      4 C4          2.3410   -0.4150    3.2080 ca        1 RI8     -0.403700
      5 C5          1.0670   -0.3020    2.5250 ca        1 RI8      0.517100
      6 N6          0.9290   -0.3690    1.1740 nb        1 RI8     -0.616000
      7 S7          2.1270   -0.3080    4.8640 ss        1 RI8      0.361500
      8 C8          0.4930   -0.1230    4.7820 cc        1 RI8     -0.100400
      9 C9          0.0000   -0.1200    3.4890 cd        1 RI8     -0.338000
     10 N10         4.8280   -0.6870    2.8940 n4        1 RI8     -0.837300
     11 C11        -1.3570    0.1560    3.0450 c         1 RI8      0.605300
     12 O12        -1.7450    0.9160    2.1800 o         1 RI8     -0.342100
     13 N13        -2.4460   -0.6740    3.7530 n4        1 RI8     -0.541200
     14 C14        -3.5890    0.1170    4.1970 ca        1 RI8     -0.120400
     15 C15        -4.7350    0.2680    3.3680 ca        1 RI8      0.183900
     16 C16        -5.8480    1.0360    3.8050 ca        1 RI8      0.013600
     17 C17        -5.7910    1.6490    5.0740 ca        1 RI8     -0.032000
     18 C18        -4.6810    1.5030    5.8940 ca        1 RI8     -0.117000
     19 C19        -3.5770    0.7440    5.4720 ca        1 RI8      0.197900
     20 N20        -7.0210    1.1780    2.9950 nh        1 RI8     -0.871200
     21 F21        -4.7620   -0.3400    2.1620 f         1 RI8     -0.100900
     22 F22        -2.5020    0.5990    6.2760 f         1 RI8     -0.108900
     23 S23        -9.1050    0.2460    4.0640 s4        1 RI8      1.634500
     24 O24        -8.6230   -1.0030    3.9080 o         1 RI8     -0.400900
     25 O25        -8.8420    1.0070    5.1480 o         1 RI8     -0.400900
     26 C26       -10.1490    0.7990    2.9840 c3        1 RI8     -0.537100
     27 C27       -11.6140    0.5880    3.4340 c3        1 RI8     -0.044400
     28 C28       -12.5720    1.1330    2.4070 c3        1 RI8     -0.106100
     29 H1          2.0060   -0.5800   -0.6390 h5        1 RI8      0.131100
     30 H8         -0.1150    0.0220    5.6880 h4        1 RI8      0.220000
     31 HN10        4.8830   -1.5010    3.5200 hn        1 RI8      0.492467
     32 HN1A        5.0590    0.1720    3.4110 hn        1 RI8      0.492467
     33 HN13       -2.0380   -1.1520    4.5670 hn        1 RI8      0.477300
     34 H17        -6.6470    2.2520    5.4420 ha        1 RI8      0.205000
     35 H18        -4.6550    1.9830    6.8930 ha        1 RI8      0.217000
     36 HN20       -6.8930    0.7090    2.1090 hn        1 RI8      0.419300
     37 H26       -10.0790    1.9090    2.7520 h1        1 RI8      0.203200
     38 H26A      -10.0900    0.3180    1.9550 h1        1 RI8      0.203200
     39 H27       -11.7770    1.1160    4.4120 hc        1 RI8      0.079200
     40 H27A      -11.8030   -0.5100    3.5690 hc        1 RI8      0.079200
     41 H28       -12.4440    0.6190    1.4230 hc        1 RI8      0.075367
     42 H28A      -13.6230    0.9630    2.7570 hc        1 RI8      0.075367
     43 H28B      -12.4270    2.2310    2.2620 hc        1 RI8      0.075367
     44 H103        5.5220   -0.8090    2.1320 hn        1 RI8      0.492467
     45 H132       -2.7790   -1.3860    3.0830 hn        1 RI8      0.477300
     46 H202       -7.1840    2.1610    2.8230 hn        1 RI8      0.419300
@<TRIPOS>BOND
     1    1    2 ar  
     2    1    6 ar  
     3    1   29 1   
     4    2    3 ar  
     5    3    4 ar  
     6    3   10 1   
     7    4    5 ar  
     8    4    7 1   
     9    5    6 ar  
    10    5    9 1   
    11    7    8 1   
    12    8    9 2   
    13    8   30 1   
    14    9   11 1   
    15   10   31 1   
    16   10   32 1   
    17   10   44 1   
    18   11   12 2   
    19   11   13 1   
    20   13   14 1   
    21   13   33 1   
    22   13   45 1   
    23   14   15 ar  
    24   14   19 ar  
    25   15   16 ar  
    26   15   21 1   
    27   16   17 ar  
    28   16   20 1   
    29   17   18 ar  
    30   17   34 1   
    31   18   19 ar  
    32   18   35 1   
    33   19   22 1   
    34   20   36 1   
    35   20   46 1   
    36   23   24 1   
    37   23   25 1   
    38   23   26 1   
    39   26   27 1   
    40   26   37 1   
    41   26   38 1   
    42   27   28 1   
    43   27   39 1   
    44   27   40 1   
    45   28   41 1   
    46   28   42 1   
    47   28   43 1   
@<TRIPOS>SUBSTRUCTURE
     1 RI8         1 TEMP              0 ****  ****    0 ROOT
