@<TRIPOS>MOLECULE
RI8
   43    45     1     0     0
SMALL
bcc


@<TRIPOS>ATOM
      1 C1         -5.3030    1.2730    1.3360 ca        1 RI8      0.691900
      2 N2         -6.5200    0.8840    0.8640 nb        1 RI8     -0.769000
      3 C3         -6.5210   -0.0540   -0.1330 ca        1 RI8      0.746200
      4 C4         -5.2780   -0.5910   -0.6130 ca        1 RI8     -0.417700
      5 C5         -4.0690   -0.0950   -0.0170 ca        1 RI8      0.510100
      6 N6         -4.0780    0.8470    0.9660 nb        1 RI8     -0.732000
      7 S7         -4.9540   -1.7340   -1.7940 ss        1 RI8      0.132500
      8 C8         -3.3080   -1.6550   -1.5750 cc        1 RI8     -0.084400
      9 C9         -2.9190   -0.7490   -0.6100 cd        1 RI8     -0.282000
     10 N10        -7.7090   -0.4490   -0.7150 nh        1 RI8     -0.950500
     11 C11        -1.4920   -0.5600   -0.2760 c         1 RI8      0.704300
     12 O12        -0.6430   -1.3980   -0.6410 o         1 RI8     -0.591100
     13 N13        -1.1210    0.5960    0.4060 n         1 RI8     -0.455100
     14 C14         0.1990    0.8470    0.8170 ca        1 RI8      0.017600
     15 C15         1.3020    0.7120   -0.0680 ca        1 RI8      0.111900
     16 C16         2.6360    0.9750    0.3710 ca        1 RI8      0.124600
     17 C17         2.8400    1.4290    1.6880 ca        1 RI8     -0.146000
     18 C18         1.7700    1.5890    2.5540 ca        1 RI8     -0.136000
     19 C19         0.4620    1.2980    2.1430 ca        1 RI8      0.091900
     20 N20         3.7090    0.8020   -0.5170 nh        1 RI8     -0.774500
     21 F21         1.0960    0.3420   -1.3540 f         1 RI8     -0.117900
     22 F22        -0.5590    1.4650    3.0190 f         1 RI8     -0.132900
     23 S23         5.2240    0.3060   -0.1710 s6        1 RI8      1.458900
     24 O24         5.9900    0.4470   -1.3460 o         1 RI8     -0.646300
     25 O25         5.7160    0.9330    0.9890 o         1 RI8     -0.646300
     26 C26         5.0120   -1.3620    0.1600 c3        1 RI8     -0.328600
     27 C27         6.3370   -2.0170    0.4930 c3        1 RI8     -0.056400
     28 C28         6.1720   -3.4840    0.7890 c3        1 RI8     -0.087100
     29 H1         -5.3350    2.0410    2.1400 h5        1 RI8      0.058100
     30 H8         -2.5990   -2.2670   -2.1420 h4        1 RI8      0.203000
     31 HN10       -8.5650   -0.1610   -0.3030 hn        1 RI8      0.434800
     32 HN1A       -7.7090   -1.3000   -1.2220 hn        1 RI8      0.434800
     33 HN13       -1.8210    1.1330    0.8740 hn        1 RI8      0.356500
     34 H17         3.8580    1.6680    2.0470 ha        1 RI8      0.184000
     35 H18         1.9400    1.9460    3.5820 ha        1 RI8      0.160000
     36 HN20        3.4460    0.9440   -1.4710 hn        1 RI8      0.466800
     37 H26         4.3090   -1.5370    1.0170 h1        1 RI8      0.117200
     38 H26A        4.5600   -1.9090   -0.7100 h1        1 RI8      0.117200
     39 H27         7.0410   -1.8850   -0.3730 hc        1 RI8      0.059700
     40 H27A        6.7900   -1.5010    1.3830 hc        1 RI8      0.059700
     41 H28         5.4900   -3.6360    1.6610 hc        1 RI8      0.038033
     42 H28A        5.7400   -4.0190   -0.0910 hc        1 RI8      0.038033
     43 H28B        7.1630   -3.9390    1.0300 hc        1 RI8      0.038033
@<TRIPOS>BOND
     1    1    2 ar  
     2    1    6 ar  
     3    1   29 1   
     4    2    3 ar  
     5    3    4 ar  
     6    3   10 1   
     7    4    5 ar  
     8    4    7 1   
     9    5    6 ar  
    10    5    9 1   
    11    7    8 1   
    12    8    9 2   
    13    8   30 1   
    14    9   11 1   
    15   10   31 1   
    16   10   32 1   
    17   11   12 2   
    18   11   13 1   
    19   13   14 1   
    20   13   33 1   
    21   14   15 ar  
    22   14   19 ar  
    23   15   16 ar  
    24   15   21 1   
    25   16   17 ar  
    26   16   20 1   
    27   17   18 ar  
    28   17   34 1   
    29   18   19 ar  
    30   18   35 1   
    31   19   22 1   
    32   20   23 1   
    33   20   36 1   
    34   23   24 2   
    35   23   25 2   
    36   23   26 1   
    37   26   27 1   
    38   26   37 1   
    39   26   38 1   
    40   27   28 1   
    41   27   39 1   
    42   27   40 1   
    43   28   41 1   
    44   28   42 1   
    45   28   43 1   
@<TRIPOS>SUBSTRUCTURE
     1 RI8         1 TEMP              0 ****  ****    0 ROOT
