@<TRIPOS>MOLECULE
RI8
   43    45     1     0     0
SMALL
bcc


@<TRIPOS>ATOM
      1 C1          1.7680    1.5640    3.8440 ca        1 RI8      0.691900
      2 N2          2.9110    1.0650    3.2940 nb        1 RI8     -0.769000
      3 C3          2.7730   -0.0150    2.4640 ca        1 RI8      0.746200
      4 C4          1.4670   -0.5520    2.1980 ca        1 RI8     -0.417700
      5 C5          0.3490    0.0790    2.8400 ca        1 RI8      0.510100
      6 N6          0.4970    1.1460    3.6730 nb        1 RI8     -0.732000
      7 S7          0.9780   -1.8370    1.2400 ss        1 RI8      0.132500
      8 C8         -0.6330   -1.6230    1.5850 cc        1 RI8     -0.084400
      9 C9         -0.8830   -0.5800    2.4530 cd        1 RI8     -0.282000
     10 N10         3.8880   -0.6240    1.9240 nh        1 RI8     -0.950500
     11 C11        -2.2630   -0.2400    2.8560 c         1 RI8      0.704300
     12 O12        -3.2350   -0.6880    2.2150 o         1 RI8     -0.591100
     13 N13        -2.4450    0.5450    3.9900 n         1 RI8     -0.455100
     14 C14        -3.7110    0.9690    4.4290 ca        1 RI8      0.017600
     15 C15        -4.8010    0.0680    4.5700 ca        1 RI8      0.111900
     16 C16        -6.0790    0.5190    5.0200 ca        1 RI8      0.124600
     17 C17        -6.2320    1.8720    5.3800 ca        1 RI8     -0.146000
     18 C18        -5.1710    2.7570    5.2700 ca        1 RI8     -0.136000
     19 C19        -3.9240    2.3300    4.7960 ca        1 RI8      0.091900
     20 N20        -7.1440   -0.3890    5.1180 nh        1 RI8     -0.774500
     21 F21        -4.6300   -1.2460    4.2890 f         1 RI8     -0.117900
     22 F22        -2.9100    3.2250    4.7010 f         1 RI8     -0.132900
     23 S23        -8.7300   -0.1020    4.8640 s6        1 RI8      1.458900
     24 O24        -9.4320   -1.2640    5.2430 o         1 RI8     -0.646300
     25 O25        -9.1330    1.1080    5.4570 o         1 RI8     -0.646300
     26 C26        -8.8170    0.0700    3.1610 c3        1 RI8     -0.328600
     27 C27       -10.2420    0.3300    2.7190 c3        1 RI8     -0.056400
     28 C28       -10.3400    0.4860    1.2240 c3        1 RI8     -0.087100
     29 H1          1.9140    2.4360    4.5180 h5        1 RI8      0.058100
     30 H8         -1.4250   -2.2500    1.1590 h4        1 RI8      0.203000
     31 HN10        4.7710   -0.1800    2.0200 hn        1 RI8      0.434800
     32 HN1A        3.7530   -1.2080    1.1350 hn        1 RI8      0.434800
     33 HN13       -1.6750    1.0670    4.3520 hn        1 RI8      0.356500
     34 H17        -7.2020    2.2440    5.7580 ha        1 RI8      0.184000
     35 H18        -5.3020    3.8130    5.5560 ha        1 RI8      0.160000
     36 HN20       -6.8380   -1.3230    5.2990 hn        1 RI8      0.466800
     37 H26        -8.1750    0.9120    2.7880 h1        1 RI8      0.117200
     38 H26A       -8.4450   -0.8440    2.6260 h1        1 RI8      0.117200
     39 H27       -10.6200    1.2620    3.2210 hc        1 RI8      0.059700
     40 H27A      -10.8930   -0.5250    3.0510 hc        1 RI8      0.059700
     41 H28       -11.4000    0.6750    0.9280 hc        1 RI8      0.038033
     42 H28A       -9.9870   -0.4380    0.7060 hc        1 RI8      0.038033
     43 H28B       -9.7160    1.3440    0.8750 hc        1 RI8      0.038033
@<TRIPOS>BOND
     1    1    2 ar  
     2    1    6 ar  
     3    1   29 1   
     4    2    3 ar  
     5    3    4 ar  
     6    3   10 1   
     7    4    5 ar  
     8    4    7 1   
     9    5    6 ar  
    10    5    9 1   
    11    7    8 1   
    12    8    9 2   
    13    8   30 1   
    14    9   11 1   
    15   10   31 1   
    16   10   32 1   
    17   11   12 2   
    18   11   13 1   
    19   13   14 1   
    20   13   33 1   
    21   14   15 ar  
    22   14   19 ar  
    23   15   16 ar  
    24   15   21 1   
    25   16   17 ar  
    26   16   20 1   
    27   17   18 ar  
    28   17   34 1   
    29   18   19 ar  
    30   18   35 1   
    31   19   22 1   
    32   20   23 1   
    33   20   36 1   
    34   23   24 2   
    35   23   25 2   
    36   23   26 1   
    37   26   27 1   
    38   26   37 1   
    39   26   38 1   
    40   27   28 1   
    41   27   39 1   
    42   27   40 1   
    43   28   41 1   
    44   28   42 1   
    45   28   43 1   
@<TRIPOS>SUBSTRUCTURE
     1 RI8         1 TEMP              0 ****  ****    0 ROOT
