@<TRIPOS>MOLECULE
RI9
   49    50     1     0     0
SMALL
bcc


@<TRIPOS>ATOM
      1 O1         -0.1520   -0.4010    0.1170 o         1 RI9     -0.541100
      2 C2          1.0830   -0.2750    0.1290 c         1 RI9      0.777100
      3 N3          1.8370   -0.1770    1.3260 ns        1 RI9     -0.572400
      4 C4          1.4000   -0.6950    2.5550 ca        1 RI9      0.606200
      5 N5          0.5470   -1.7690    2.5850 nb        1 RI9     -0.742000
      6 C6          0.2320   -2.2210    3.8240 ca        1 RI9      0.690900
      7 N7          0.6490   -1.7680    5.0240 nb        1 RI9     -0.769000
      8 C8          1.5020   -0.6810    4.9940 ca        1 RI9      0.697200
      9 C9          1.9150   -0.1180    3.7510 ca        1 RI9     -0.478600
     10 N10         1.8810   -0.1040    6.2070 nu        1 RI9     -0.835900
     11 N11         1.8340   -0.1340   -1.0760 ns        1 RI9     -0.452100
     12 C12         1.1880   -0.3100   -2.3170 ca        1 RI9      0.003600
     13 C13         0.0850    0.5010   -2.6960 ca        1 RI9      0.122900
     14 C14        -0.5460    0.3370   -3.9680 ca        1 RI9      0.129600
     15 C15        -0.0200   -0.6110   -4.8670 ca        1 RI9     -0.141000
     16 C16         1.0670   -1.3950   -4.5160 ca        1 RI9     -0.133000
     17 C17         1.6680   -1.2650   -3.2580 ca        1 RI9      0.090900
     18 F18         2.7310   -2.0480   -2.9420 f         1 RI9     -0.136900
     19 F19        -0.3770    1.4520   -1.8500 f         1 RI9     -0.118900
     20 N20        -1.6520    1.1310   -4.3040 nu        1 RI9     -0.773500
     21 S21        -2.9330    0.7290   -5.2360 s6        1 RI9      1.458900
     22 C22        -3.8250   -0.3240   -4.2220 c3        1 RI9     -0.330600
     23 O23        -3.6790    1.9050   -5.4490 o         1 RI9     -0.645300
     24 O24        -2.5250    0.0150   -6.3780 o         1 RI9     -0.645300
     25 C25        -5.0850   -0.7990   -4.9160 c3        1 RI9     -0.056400
     26 C26        -5.8830   -1.7280   -4.0400 c3        1 RI9     -0.087100
     27 C27         3.0600    0.7260    6.2490 c3        1 RI9      0.196800
     28 C28         3.4820    1.0860    7.6800 c3        1 RI9      0.117400
     29 O29         3.8630   -0.1180    8.3230 oh        1 RI9     -0.605800
     30 HN3         2.5940    0.4670    1.3630 hn        1 RI9      0.332500
     31 H6         -0.4610   -3.0910    3.8490 h5        1 RI9      0.056100
     32 H9          2.5950    0.7410    3.7170 ha        1 RI9      0.147000
     33 HN10        1.7400   -0.6650    7.0240 hn        1 RI9      0.440800
     34 HN11        2.7720   -0.4810   -1.0600 hn        1 RI9      0.318500
     35 H15        -0.4700   -0.7410   -5.8690 ha        1 RI9      0.187000
     36 H16         1.4680   -2.1350   -5.2280 ha        1 RI9      0.163000
     37 HN20       -1.6470    2.0160   -3.8400 hn        1 RI9      0.465800
     38 H22        -3.2310   -1.2260   -3.9180 h1        1 RI9      0.118700
     39 H22A       -4.1220    0.1710   -3.2590 h1        1 RI9      0.118700
     40 H25        -4.8050   -1.3260   -5.8680 hc        1 RI9      0.059700
     41 H25A       -5.7130    0.0920   -5.1900 hc        1 RI9      0.059700
     42 H26        -6.8050   -2.0610   -4.5760 hc        1 RI9      0.039367
     43 H26A       -5.2830   -2.6310   -3.7720 hc        1 RI9      0.039367
     44 H26B       -6.1880   -1.2160   -3.0950 hc        1 RI9      0.039367
     45 H27         3.9320    0.2250    5.7360 h1        1 RI9      0.051200
     46 H27A        2.8370    1.6900    5.7070 h1        1 RI9      0.051200
     47 H28         4.3560    1.7890    7.6280 h1        1 RI9      0.038200
     48 H28A        2.6430    1.5780    8.2400 h1        1 RI9      0.038200
     49 HO29        4.0880    0.1100    9.2330 ho        1 RI9      0.410000
@<TRIPOS>BOND
     1    1    2 2   
     2    2    3 1   
     3    2   11 1   
     4    3    4 1   
     5    3   30 1   
     6    4    5 ar  
     7    4    9 ar  
     8    5    6 ar  
     9    6    7 ar  
    10    6   31 1   
    11    7    8 ar  
    12    8    9 ar  
    13    8   10 1   
    14    9   32 1   
    15   10   27 1   
    16   10   33 1   
    17   11   12 1   
    18   11   34 1   
    19   12   13 ar  
    20   12   17 ar  
    21   13   14 ar  
    22   13   19 1   
    23   14   15 ar  
    24   14   20 1   
    25   15   16 ar  
    26   15   35 1   
    27   16   17 ar  
    28   16   36 1   
    29   17   18 1   
    30   20   21 1   
    31   20   37 1   
    32   21   22 1   
    33   21   23 2   
    34   21   24 2   
    35   22   25 1   
    36   22   38 1   
    37   22   39 1   
    38   25   26 1   
    39   25   40 1   
    40   25   41 1   
    41   26   42 1   
    42   26   43 1   
    43   26   44 1   
    44   27   28 1   
    45   27   45 1   
    46   27   46 1   
    47   28   29 1   
    48   28   47 1   
    49   28   48 1   
    50   29   49 1   
@<TRIPOS>SUBSTRUCTURE
     1 RI9         1 TEMP              0 ****  ****    0 ROOT
