@<TRIPOS>MOLECULE
RI9
   53    53     1     0     0
SMALL
bcc


@<TRIPOS>ATOM
      1 O1        592.3380   76.9850  301.6430 o         1 RI9     -0.266100
      2 C2        592.4630   78.0300  301.0350 c         1 RI9      0.505100
      3 N3        593.7310   78.2650  300.2390 n4        1 RI9     -0.656500
      4 C4        594.7690   78.9490  301.0580 ca        1 RI9      0.529200
      5 N5        594.3290   79.9230  301.9020 nb        1 RI9     -0.707000
      6 C6        595.2830   80.5580  302.6300 ca        1 RI9      0.757900
      7 N7        596.6220   80.3000  302.5950 nb        1 RI9     -0.598000
      8 C8        597.0370   79.3200  301.7550 ca        1 RI9      0.581200
      9 C9        596.1280   78.5840  300.9280 ca        1 RI9     -0.288600
     10 N10       598.4790   79.0080  301.7130 n4        1 RI9     -0.766700
     11 N11       591.4100   79.0920  301.0110 n4        1 RI9     -0.469200
     12 C12       590.5970   79.0410  299.7930 ca        1 RI9     -0.119400
     13 C13       589.2960   78.4780  299.8450 ca        1 RI9      0.054900
     14 C14       588.4320   78.5260  298.6920 ca        1 RI9      0.250600
     15 C15       588.9560   79.1480  297.5130 ca        1 RI9     -0.112000
     16 C16       590.2310   79.6710  297.4650 ca        1 RI9     -0.049000
     17 C17       591.0750   79.6140  298.5880 ca        1 RI9      0.042900
     18 F18       592.3400   80.1120  298.5390 f         1 RI9     -0.153900
     19 F19       588.8630   77.9240  301.0000 f         1 RI9     -0.104900
     20 N20       587.1880   78.0030  298.7280 nh        1 RI9     -0.793200
     21 S21     -1829.8150 -245.4430 -925.1120 s4        1 RI9      1.612500
     22 C22     -1828.7270 -244.3540 -924.6890 c3        1 RI9     -0.552100
     23 O23     -1830.9850 -244.9940 -925.5950 o         1 RI9     -0.355400
     24 O24     -1829.5130 -246.7450 -924.9820 o         1 RI9     -0.355400
     25 C25     -1827.8510 -244.7580 -923.4920 c3        1 RI9     -0.042400
     26 C26     -1826.7650 -243.7430 -923.2500 c3        1 RI9     -0.106100
     27 C27       599.3200   80.1740  301.2360 c3        1 RI9      0.111800
     28 C28       600.7210   79.6930  300.8250 c3        1 RI9      0.107400
     29 O29       600.5210   78.6330  299.9080 oh        1 RI9     -0.657800
     30 HN3       594.0910   77.3360  299.9450 hn        1 RI9      0.521300
     31 H6        594.9470   81.3710  303.3340 h5        1 RI9      0.154100
     32 H9        596.4760   77.7920  300.2410 ha        1 RI9      0.217000
     33 HN10      598.6460   78.2130  301.0680 hn        1 RI9      0.499800
     34 HN11      590.7850   78.9120  301.8340 hn        1 RI9      0.524300
     35 H15       588.3150   79.2160  296.6100 ha        1 RI9      0.210000
     36 H16       590.6060   80.1500  296.5380 ha        1 RI9      0.213000
     37 HN20      586.5910   78.0630  297.9310 hn        1 RI9      0.484800
     38 H22     -1827.9860 -244.0760 -925.5140 h1        1 RI9      0.217200
     39 H22A    -1829.1520 -243.3260 -924.4350 h1        1 RI9      0.217200
     40 H25     -1828.4950 -244.8390 -922.5770 hc        1 RI9      0.078200
     41 H25A    -1827.3910 -245.7630 -923.6960 hc        1 RI9      0.078200
     42 H26     -1827.1970 -242.7330 -923.0460 hc        1 RI9      0.069700
     43 H26A    -1826.0800 -243.6690 -924.1280 hc        1 RI9      0.069700
     44 H26B    -1826.1610 -244.0530 -922.3590 hc        1 RI9      0.069700
     45 H27       598.8010   80.6290  300.3460 hx        1 RI9      0.128700
     46 H27A      599.3980   80.9300  302.0690 hx        1 RI9      0.128700
     47 H28       601.2530   80.5650  300.3520 h1        1 RI9      0.102700
     48 H28A      601.3100   79.3290  301.7100 h1        1 RI9      0.102700
     49 HO29      601.3510   78.4860  299.4280 ho        1 RI9      0.483000
     50 H32       593.5390   78.8440  299.3840 hn        1 RI9      0.521300
     51 H102      598.8000   78.7340  302.6590 hn        1 RI9      0.499800
     52 H112      591.8260   80.0370  301.1020 hn        1 RI9      0.524300
     53 H202      586.8290   77.5910  299.5610 hn        1 RI9      0.484800
@<TRIPOS>BOND
     1    1    2 2   
     2    2    3 1   
     3    2   11 1   
     4    3    4 1   
     5    3   30 1   
     6    3   50 1   
     7    4    5 ar  
     8    4    9 ar  
     9    5    6 ar  
    10    6    7 ar  
    11    6   31 1   
    12    7    8 ar  
    13    8    9 ar  
    14    8   10 1   
    15    9   32 1   
    16   10   27 1   
    17   10   33 1   
    18   10   51 1   
    19   11   12 1   
    20   11   34 1   
    21   11   52 1   
    22   12   13 ar  
    23   12   17 ar  
    24   13   14 ar  
    25   13   19 1   
    26   14   15 ar  
    27   14   20 1   
    28   15   16 ar  
    29   15   35 1   
    30   16   17 ar  
    31   16   36 1   
    32   17   18 1   
    33   20   37 1   
    34   20   53 1   
    35   21   22 1   
    36   21   23 1   
    37   21   24 1   
    38   22   25 1   
    39   22   38 1   
    40   22   39 1   
    41   25   26 1   
    42   25   40 1   
    43   25   41 1   
    44   26   42 1   
    45   26   43 1   
    46   26   44 1   
    47   27   28 1   
    48   27   45 1   
    49   27   46 1   
    50   28   29 1   
    51   28   47 1   
    52   28   48 1   
    53   29   49 1   
@<TRIPOS>SUBSTRUCTURE
     1 RI9         1 TEMP              0 ****  ****    0 ROOT
