@<TRIPOS>MOLECULE
RI9
   49    44     1     0     0
SMALL
bcc


@<TRIPOS>ATOM
      1 O1          1.1060   -0.8510   -0.6380 o         1 RI9     -0.371000
      2 C2          0.8560   -1.5220    0.3440 c1        1 RI9      0.412000
      3 N3          1.5920   -1.3150    1.5630 n3        1 RI9     -0.320000
      4 C4          2.6030   -0.3340    1.6170 c2        1 RI9      0.202000
      5 N5          2.6570    0.6330    0.6570 n2        1 RI9     -0.281000
      6 C6          3.5010    1.6980    0.8030 c1        1 RI9      0.043000
      7 N7          4.3060    1.7980    1.9300 n1        1 RI9     -0.243000
      8 C8          4.2580    0.8520    2.8760 c1        1 RI9      0.188000
      9 C9          3.4000   -0.2340    2.7310 c1        1 RI9     -0.356000
     10 N10         5.1640    0.9010    3.9790 n3        1 RI9     -0.291000
     11 N11        -0.1740   -2.4770    0.3020 n2        1 RI9     -0.295000
     12 C12        -0.9170   -2.6590   -0.8750 c2        1 RI9      0.016000
     13 C13        -2.1500   -2.0240   -1.0220 c2        1 RI9      0.040000
     14 C14        -2.8710   -2.1630   -2.2060 c1        1 RI9      0.045000
     15 C15        -2.3640   -2.9320   -3.2390 c2        1 RI9     -0.139000
     16 C16        -1.1300   -3.5680   -3.0920 c1        1 RI9     -0.142000
     17 C17        -0.4080   -3.4280   -1.9040 c1        1 RI9      0.115000
     18 F18         0.7820   -4.1310   -1.7280 f         1 RI9     -0.077000
     19 F19        -2.6160   -1.2400   -0.0460 f         1 RI9     -0.102000
     20 N20        -4.1340   -1.5850   -2.3180 n2        1 RI9     -0.824000
     21 S21        -4.4190   -0.4240   -3.4560 s4        1 RI9      2.030800
     22 C22        -5.7550    0.5610   -2.9640 c2        1 RI9     -0.868000
     23 O23        -3.2370    0.3750   -3.7150 o         1 RI9     -0.532400
     24 O24        -4.6470   -1.0150   -4.7610 o         1 RI9     -0.532400
     25 C25        -5.5600    1.9990   -3.4980 c3        1 RI9     -0.135000
     26 C26        -6.4760    2.9660   -2.7330 c3        1 RI9     -0.205000
     27 C27         6.0210    2.0960    4.1800 c3        1 RI9     -0.040000
     28 C28         7.0360    1.8170    5.2360 c3        1 RI9     -0.030000
     29 O29         7.3040    3.0090    5.9520 oh        1 RI9     -0.321000
     30 HN3         1.3780   -1.7950    2.3150 hn        1 RI9      0.264000
     31 H6          3.5380    2.3910    0.1130 ha        1 RI9      0.193000
     32 H9          3.3660   -0.9280    3.4220 ha        1 RI9      0.151000
     33 HN10        5.1900    0.1910    4.5980 hn        1 RI9      0.215000
     34 HN11       -0.3980   -2.9180    1.0390 hn        1 RI9      0.273000
     35 H15        -2.8650   -3.0300   -4.0650 ha        1 RI9      0.185000
     36 H16        -0.7550   -4.1330   -3.8500 ha        1 RI9      0.163000
     37 HN20       -4.7750   -1.7910   -1.7200 hn        1 RI9      0.260000
     38 H22        -5.8010    0.5770   -1.9720 ha        1 RI9      0.155000
     39 H22A       -6.5720    0.1920   -3.3160 ha        1 RI9      0.155000
     40 H25        -4.5850    2.2770   -3.3680 hc        1 RI9      0.100000
     41 H25A       -5.7910    2.0280   -4.4900 hc        1 RI9      0.100000
     42 H26        -7.4300    2.6040   -2.7350 hc        1 RI9      0.078333
     43 H26A       -6.1620    3.0550   -1.8120 hc        1 RI9      0.078333
     44 H26B       -6.4590    3.8550   -3.1760 hc        1 RI9      0.078333
     45 H27         5.4710    2.8420    4.4570 h1        1 RI9      0.111500
     46 H27A        6.4770    2.3190    3.3330 h1        1 RI9      0.111500
     47 H28         6.6820    1.1240    5.8590 h1        1 RI9      0.067500
     48 H28A        7.8680    1.4920    4.8200 h1        1 RI9      0.067500
     49 HO29        7.8930    2.8490    6.5720 ho        1 RI9      0.207000
@<TRIPOS>BOND
     1    1    2 1   
     2    2    3 1   
     3    3    4 1   
     4    3   30 1   
     5    4    5 1   
     6    4    9 1   
     7    5    6 1   
     8    6   31 1   
     9    7    8 1   
    10    8   10 1   
    11    9   32 1   
    12   10   27 1   
    13   10   33 1   
    14   11   12 1   
    15   11   34 1   
    16   12   13 1   
    17   12   17 1   
    18   13   14 1   
    19   13   19 1   
    20   14   15 1   
    21   15   16 1   
    22   15   35 1   
    23   16   36 1   
    24   17   18 1   
    25   20   21 1   
    26   20   37 1   
    27   21   23 1   
    28   21   24 1   
    29   22   25 1   
    30   22   38 1   
    31   22   39 1   
    32   25   26 1   
    33   25   40 1   
    34   25   41 1   
    35   26   42 1   
    36   26   43 1   
    37   26   44 1   
    38   27   28 1   
    39   27   45 1   
    40   27   46 1   
    41   28   29 1   
    42   28   47 1   
    43   28   48 1   
    44   29   49 1   
@<TRIPOS>SUBSTRUCTURE
     1 RI9         1 TEMP              0 ****  ****    0 ROOT
