@<TRIPOS>MOLECULE
RI9
   49    50     1     0     0
SMALL
bcc


@<TRIPOS>ATOM
      1 O1         -0.5850    0.3070   -0.3080 o         1 RI9     -0.541100
      2 C2         -1.1080   -0.8070   -0.1440 c         1 RI9      0.777100
      3 N3         -2.5080   -0.9920   -0.0190 n         1 RI9     -0.572400
      4 C4         -3.4520   -0.0960   -0.5460 ca        1 RI9      0.606200
      5 N5         -3.1410    0.6620   -1.6460 nb        1 RI9     -0.742000
      6 C6         -4.1420    1.4520   -2.1050 ca        1 RI9      0.690900
      7 N7         -5.4000    1.5850   -1.6360 nb        1 RI9     -0.769000
      8 C8         -5.7110    0.8270   -0.5230 ca        1 RI9      0.697200
      9 C9         -4.7440   -0.0510    0.0500 ca        1 RI9     -0.478600
     10 N10        -6.9620    1.0040    0.0700 nh        1 RI9     -0.835900
     11 N11        -0.3220   -1.9880    0.0170 n         1 RI9     -0.452100
     12 C12         1.0720   -1.9220   -0.1820 ca        1 RI9      0.003600
     13 C13         1.8890   -1.0560    0.5930 ca        1 RI9      0.122900
     14 C14         3.3050   -1.0170    0.4060 ca        1 RI9      0.129600
     15 C15         3.8890   -1.8940   -0.5290 ca        1 RI9     -0.141000
     16 C16         3.1040   -2.7570   -1.2780 ca        1 RI9     -0.133000
     17 C17         1.7120   -2.7760   -1.1260 ca        1 RI9      0.090900
     18 F18         0.9710   -3.6300   -1.8740 f         1 RI9     -0.136900
     19 F19         1.3260   -0.2590    1.5320 f         1 RI9     -0.118900
     20 N20         4.0830   -0.1310    1.1640 nh        1 RI9     -0.773500
     21 S21         5.4580    0.6350    0.7200 s6        1 RI9      1.458900
     22 C22         4.8890    1.8400   -0.3550 c3        1 RI9     -0.330600
     23 O23         5.9800    1.2540    1.8720 o         1 RI9     -0.645300
     24 O24         6.3140   -0.2300    0.0150 o         1 RI9     -0.645300
     25 C25         6.0370    2.6840   -0.8710 c3        1 RI9     -0.056400
     26 C26         5.5580    3.7500   -1.8210 c3        1 RI9     -0.087100
     27 C27        -7.4790   -0.0270    0.9360 c3        1 RI9      0.196800
     28 C28        -8.9500    0.1960    1.3130 c3        1 RI9      0.117400
     29 O29        -9.7120    0.0840    0.1230 oh        1 RI9     -0.605800
     30 HN3        -2.8460   -1.6460    0.6490 hn        1 RI9      0.332500
     31 H6         -3.8910    2.0680   -2.9960 h5        1 RI9      0.056100
     32 H9         -4.9820   -0.6580    0.9290 ha        1 RI9      0.147000
     33 HN10       -7.6550    1.4570   -0.4930 hn        1 RI9      0.440800
     34 HN11       -0.7320   -2.8430   -0.3010 hn        1 RI9      0.318500
     35 H15         4.9850   -1.9060   -0.6760 ha        1 RI9      0.187000
     36 H16         3.5730   -3.4380   -2.0070 ha        1 RI9      0.163000
     37 HN20        3.6730    0.0810    2.0500 hn        1 RI9      0.465800
     38 H22         4.3520    1.4030   -1.2380 h1        1 RI9      0.118700
     39 H22A        4.1450    2.5240    0.1330 h1        1 RI9      0.118700
     40 H25         6.5620    3.1640   -0.0010 hc        1 RI9      0.059700
     41 H25A        6.7780    2.0200   -1.3930 hc        1 RI9      0.059700
     42 H26         6.4240    4.3560   -2.1830 hc        1 RI9      0.039367
     43 H26A        5.0500    3.2930   -2.7040 hc        1 RI9      0.039367
     44 H26B        4.8340    4.4340   -1.3150 hc        1 RI9      0.039367
     45 H27        -7.3830   -1.0460    0.4610 h1        1 RI9      0.051200
     46 H27A       -6.8780   -0.0230    1.8910 h1        1 RI9      0.051200
     47 H28        -9.2550   -0.6010    2.0430 h1        1 RI9      0.038200
     48 H28A       -9.1020    1.2050    1.7800 h1        1 RI9      0.038200
     49 HO29      -10.6290    0.2640    0.3610 ho        1 RI9      0.410000
@<TRIPOS>BOND
     1    1    2 2   
     2    2    3 1   
     3    2   11 1   
     4    3    4 1   
     5    3   30 1   
     6    4    5 ar  
     7    4    9 ar  
     8    5    6 ar  
     9    6    7 ar  
    10    6   31 1   
    11    7    8 ar  
    12    8    9 ar  
    13    8   10 1   
    14    9   32 1   
    15   10   27 1   
    16   10   33 1   
    17   11   12 1   
    18   11   34 1   
    19   12   13 ar  
    20   12   17 ar  
    21   13   14 ar  
    22   13   19 1   
    23   14   15 ar  
    24   14   20 1   
    25   15   16 ar  
    26   15   35 1   
    27   16   17 ar  
    28   16   36 1   
    29   17   18 1   
    30   20   21 1   
    31   20   37 1   
    32   21   22 1   
    33   21   23 2   
    34   21   24 2   
    35   22   25 1   
    36   22   38 1   
    37   22   39 1   
    38   25   26 1   
    39   25   40 1   
    40   25   41 1   
    41   26   42 1   
    42   26   43 1   
    43   26   44 1   
    44   27   28 1   
    45   27   45 1   
    46   27   46 1   
    47   28   29 1   
    48   28   47 1   
    49   28   48 1   
    50   29   49 1   
@<TRIPOS>SUBSTRUCTURE
     1 RI9         1 TEMP              0 ****  ****    0 ROOT
