@<TRIPOS>MOLECULE
RI9
   49    50     1     0     0
SMALL
bcc


@<TRIPOS>ATOM
      1 O1         -0.1530   -0.4000    0.1170 o         1 RI9     -0.541100
      2 C2          1.0820   -0.2720    0.1320 c         1 RI9      0.777100
      3 N3          1.8340   -0.1700    1.3300 n         1 RI9     -0.572400
      4 C4          1.3950   -0.6850    2.5600 ca        1 RI9      0.606200
      5 N5          0.5440   -1.7600    2.5910 nb        1 RI9     -0.742000
      6 C6          0.2270   -2.2100    3.8290 ca        1 RI9      0.690900
      7 N7          0.6410   -1.7540    5.0290 nb        1 RI9     -0.769000
      8 C8          1.4930   -0.6660    4.9980 ca        1 RI9      0.697200
      9 C9          1.9070   -0.1050    3.7550 ca        1 RI9     -0.478600
     10 N10         1.8690   -0.0850    6.2110 nh        1 RI9     -0.835900
     11 N11         1.8350   -0.1340   -1.0720 n         1 RI9     -0.452100
     12 C12         1.1920   -0.3140   -2.3140 ca        1 RI9      0.003600
     13 C13         0.0890    0.4940   -2.6980 ca        1 RI9      0.122900
     14 C14        -0.5390    0.3260   -3.9710 ca        1 RI9      0.129600
     15 C15        -0.0110   -0.6240   -4.8650 ca        1 RI9     -0.141000
     16 C16         1.0770   -1.4060   -4.5100 ca        1 RI9     -0.133000
     17 C17         1.6750   -1.2720   -3.2510 ca        1 RI9      0.090900
     18 F18         2.7380   -2.0520   -2.9300 f         1 RI9     -0.136900
     19 F19        -0.3760    1.4470   -1.8550 f         1 RI9     -0.118900
     20 N20        -1.6450    1.1180   -4.3110 nh        1 RI9     -0.773500
     21 S21        -2.9240    0.7120   -5.2450 s6        1 RI9      1.458900
     22 C22        -3.8160   -0.3390   -4.2300 c3        1 RI9     -0.330600
     23 O23        -3.6700    1.8870   -5.4630 o         1 RI9     -0.645300
     24 O24        -2.5120   -0.0040   -6.3840 o         1 RI9     -0.645300
     25 C25        -5.0740   -0.8180   -4.9260 c3        1 RI9     -0.056400
     26 C26        -5.8730   -1.7460   -4.0500 c3        1 RI9     -0.087100
     27 C27         3.0460    0.7470    6.2530 c3        1 RI9      0.196800
     28 C28         3.4650    1.1100    7.6840 c3        1 RI9      0.117400
     29 O29         3.8470   -0.0920    8.3310 oh        1 RI9     -0.605800
     30 HN3         2.5890    0.4760    1.3670 hn        1 RI9      0.332500
     31 H6         -0.4640   -3.0810    3.8560 h5        1 RI9      0.056100
     32 H9          2.5850    0.7550    3.7200 ha        1 RI9      0.147000
     33 HN10        1.7270   -0.6450    7.0290 hn        1 RI9      0.440800
     34 HN11        2.7730   -0.4800   -1.0530 hn        1 RI9      0.318500
     35 H15        -0.4580   -0.7570   -5.8690 ha        1 RI9      0.187000
     36 H16         1.4810   -2.1470   -5.2190 ha        1 RI9      0.163000
     37 HN20       -1.6420    2.0040   -3.8490 hn        1 RI9      0.465800
     38 H22        -3.2210   -1.2400   -3.9230 h1        1 RI9      0.118700
     39 H22A       -4.1160    0.1570   -3.2690 h1        1 RI9      0.118700
     40 H25        -4.7920   -1.3470   -5.8770 hc        1 RI9      0.059700
     41 H25A       -5.7030    0.0710   -5.2040 hc        1 RI9      0.059700
     42 H26        -6.1810   -1.2330   -3.1070 hc        1 RI9      0.039367
     43 H26A       -6.7930   -2.0820   -4.5870 hc        1 RI9      0.039367
     44 H26B       -5.2730   -2.6480   -3.7780 hc        1 RI9      0.039367
     45 H27         3.9200    0.2450    5.7430 h1        1 RI9      0.051200
     46 H27A        2.8230    1.7090    5.7090 h1        1 RI9      0.051200
     47 H28         4.3380    1.8150    7.6320 h1        1 RI9      0.038200
     48 H28A        2.6240    1.6020    8.2420 h1        1 RI9      0.038200
     49 HO29        4.0710    0.1390    9.2400 ho        1 RI9      0.410000
@<TRIPOS>BOND
     1    1    2 2   
     2    2    3 1   
     3    2   11 1   
     4    3    4 1   
     5    3   30 1   
     6    4    5 ar  
     7    4    9 ar  
     8    5    6 ar  
     9    6    7 ar  
    10    6   31 1   
    11    7    8 ar  
    12    8    9 ar  
    13    8   10 1   
    14    9   32 1   
    15   10   27 1   
    16   10   33 1   
    17   11   12 1   
    18   11   34 1   
    19   12   13 ar  
    20   12   17 ar  
    21   13   14 ar  
    22   13   19 1   
    23   14   15 ar  
    24   14   20 1   
    25   15   16 ar  
    26   15   35 1   
    27   16   17 ar  
    28   16   36 1   
    29   17   18 1   
    30   20   21 1   
    31   20   37 1   
    32   21   22 1   
    33   21   23 2   
    34   21   24 2   
    35   22   25 1   
    36   22   38 1   
    37   22   39 1   
    38   25   26 1   
    39   25   40 1   
    40   25   41 1   
    41   26   42 1   
    42   26   43 1   
    43   26   44 1   
    44   27   28 1   
    45   27   45 1   
    46   27   46 1   
    47   28   29 1   
    48   28   47 1   
    49   28   48 1   
    50   29   49 1   
@<TRIPOS>SUBSTRUCTURE
     1 RI9         1 TEMP              0 ****  ****    0 ROOT
