@<TRIPOS>MOLECULE
RIB
   20    20     1     0     0
SMALL
bcc


@<TRIPOS>ATOM
      1 O5'        -0.6200   -0.1810    3.2110 oh        1 RIB     -0.592800
      2 C5'         0.2910    0.4490    2.3370 c3        1 RIB      0.134400
      3 C4'         0.1890   -0.1180    0.9230 c3        1 RIB      0.062100
      4 O4'        -1.1300    0.1860    0.4310 os        1 RIB     -0.462600
      5 C3'         1.2070    0.5170   -0.0450 c3        1 RIB      0.095100
      6 O3'         2.3020   -0.3330   -0.2750 oh        1 RIB     -0.575800
      7 C2'         0.3940    0.8710   -1.3180 c3        1 RIB      0.092100
      8 O2'         0.8140    0.0990   -2.4170 oh        1 RIB     -0.582800
      9 C1'        -1.0810    0.6510   -0.9090 c3        1 RIB      0.304900
     10 O1'        -1.6320   -0.3920   -1.6780 oh        1 RIB     -0.634800
     11 HO5'       -1.5030   -0.0530    2.8400 ho        1 RIB      0.411000
     12 H5'1        0.1130    1.5570    2.3220 h1        1 RIB      0.056700
     13 H5'2        1.3080    0.2260    2.7590 h1        1 RIB      0.056700
     14 H4'         0.2890   -1.2370    0.9430 h1        1 RIB      0.079700
     15 H3'         1.6530    1.4470    0.4050 h1        1 RIB      0.088700
     16 HO3'        2.0910   -0.9140   -1.0200 ho        1 RIB      0.417000
     17 H2'         0.5720    1.9370   -1.6200 h1        1 RIB      0.095700
     18 HO2'        0.2740   -0.7040   -2.4630 ho        1 RIB      0.429000
     19 H1'        -1.7140    1.5740   -0.9820 h2        1 RIB      0.083700
     20 HO1'       -2.2580   -0.8750   -1.1200 ho        1 RIB      0.441000
@<TRIPOS>BOND
     1    1    2 1   
     2    1   11 1   
     3    2    3 1   
     4    2   12 1   
     5    2   13 1   
     6    3    4 1   
     7    3    5 1   
     8    3   14 1   
     9    4    9 1   
    10    5    6 1   
    11    5    7 1   
    12    5   15 1   
    13    6   16 1   
    14    7    8 1   
    15    7    9 1   
    16    7   17 1   
    17    8   18 1   
    18    9   10 1   
    19    9   19 1   
    20   10   20 1   
@<TRIPOS>SUBSTRUCTURE
     1 RIB         1 TEMP              0 ****  ****    0 ROOT
