@<TRIPOS>MOLECULE
RIC
   41    43     1     0     0
SMALL
bcc


@<TRIPOS>ATOM
      1 N3          0.2960   -2.1870    2.5150 nc        1 RIC     -0.624100
      2 N1         -0.3680   -0.1760    1.6040 na        1 RIC     -0.155300
      3 C2         -0.1110   -1.5460    1.4030 cd        1 RIC      0.458700
      4 C7A        -0.0770    0.0800    2.9480 ca        1 RIC     -0.064200
      5 C3A         0.3320   -1.2000    3.5180 ca        1 RIC      0.068400
      6 C4          0.6740   -1.2650    4.8720 ca        1 RIC     -0.085000
      7 C5          0.6180   -0.1080    5.6440 ca        1 RIC     -0.123300
      8 C6          0.2230    1.1300    5.0810 ca        1 RIC     -0.094300
      9 C7         -0.1260    1.2320    3.7370 ca        1 RIC     -0.117000
     10 C8          0.9820   -0.1710    7.0800 c3        1 RIC     -0.032800
     11 C9          0.1820    2.3400    5.9370 c3        1 RIC     -0.036800
     12 PN         -0.6490    0.0360   -4.9090 p5        1 RIC      1.331900
     13 OP1        -1.4420    1.3050   -4.7580 o         1 RIC     -0.927500
     14 OP2        -0.0010   -0.2520   -6.2250 o         1 RIC     -0.927500
     15 OP3        -1.2750   -1.1260   -4.1590 o         1 RIC     -0.927500
     16 O6Q         0.6990    0.3320   -3.8430 os        1 RIC     -0.562200
     17 C5Q         0.4520    1.1150   -2.7510 c3        1 RIC      0.224400
     18 C4Q         0.1220    0.2460   -1.5100 c3        1 RIC      0.054100
     19 O5Q         0.2880    1.0500   -0.3140 os        1 RIC     -0.428600
     20 C3Q        -1.3370   -0.2500   -1.5410 c3        1 RIC      0.088100
     21 O3Q        -1.3880   -1.6590   -1.4630 oh        1 RIC     -0.698800
     22 C2Q        -1.9930    0.3470   -0.2820 c3        1 RIC      0.111100
     23 O2Q        -2.9010   -0.4880    0.3870 oh        1 RIC     -0.609800
     24 C1Q        -0.7720    0.7940    0.5970 c3        1 RIC      0.211800
     25 H21        -0.2560   -1.9940    0.3990 h5        1 RIC      0.117800
     26 H41         0.9830   -2.2220    5.3140 ha        1 RIC      0.127000
     27 H71        -0.4280    2.1960    3.3050 ha        1 RIC      0.132000
     28 H81         1.8420    0.5120    7.2950 hc        1 RIC      0.025700
     29 H82         0.1180    0.1510    7.7150 hc        1 RIC      0.025700
     30 H83         1.2720   -1.2070    7.3810 hc        1 RIC      0.025700
     31 H91        -0.5270    2.1900    6.7900 hc        1 RIC      0.028700
     32 H92         1.1960    2.5500    6.3630 hc        1 RIC      0.028700
     33 H93        -0.1480    3.2370    5.3580 hc        1 RIC      0.028700
     34 HC51       -0.4030    1.8250   -2.9410 h1        1 RIC      0.009700
     35 HC52        1.3790    1.7080   -2.4960 h1        1 RIC      0.009700
     36 HC4Q        0.8340   -0.6160   -1.4350 h1        1 RIC      0.056700
     37 HC3Q       -1.8260    0.0890   -2.5140 h1        1 RIC      0.171700
     38 HO3Q       -1.3720   -1.9650   -2.4010 ho        1 RIC      0.509000
     39 HC2Q       -2.5690    1.2770   -0.5440 h1        1 RIC      0.077700
     40 HO2Q       -2.6820   -1.4040    0.1590 ho        1 RIC      0.427000
     41 H1Q1       -0.9680    1.7650    1.1340 h2        1 RIC      0.065700
@<TRIPOS>BOND
     1    1    3 2   
     2    1    5 1   
     3    2    3 1   
     4    2    4 1   
     5    2   24 1   
     6    3   25 1   
     7    4    5 ar  
     8    4    9 ar  
     9    5    6 ar  
    10    6    7 ar  
    11    6   26 1   
    12    7    8 ar  
    13    7   10 1   
    14    8    9 ar  
    15    8   11 1   
    16    9   27 1   
    17   10   28 1   
    18   10   29 1   
    19   10   30 1   
    20   11   31 1   
    21   11   32 1   
    22   11   33 1   
    23   12   13 1   
    24   12   14 1   
    25   12   15 1   
    26   12   16 1   
    27   16   17 1   
    28   17   18 1   
    29   17   34 1   
    30   17   35 1   
    31   18   19 1   
    32   18   20 1   
    33   18   36 1   
    34   19   24 1   
    35   20   21 1   
    36   20   22 1   
    37   20   37 1   
    38   21   38 1   
    39   22   23 1   
    40   22   24 1   
    41   22   39 1   
    42   23   40 1   
    43   24   41 1   
@<TRIPOS>SUBSTRUCTURE
     1 RIC         1 TEMP              0 ****  ****    0 ROOT
