@<TRIPOS>MOLECULE
RIC
   41    43     1     0     0
SMALL
bcc


@<TRIPOS>ATOM
      1 N3          0.2090    0.7460    0.0820 nc        1 RIC     -0.624100
      2 N1          1.9340    0.4110    1.5750 na        1 RIC     -0.155300
      3 C2          1.5440    0.6690    0.2470 cd        1 RIC      0.458700
      4 C7A         0.7510    0.2910    2.3110 ca        1 RIC     -0.064200
      5 C3A        -0.3340    0.5140    1.3600 ca        1 RIC      0.068400
      6 C4         -1.6560    0.4730    1.8120 ca        1 RIC     -0.085000
      7 C5         -1.9070    0.2170    3.1570 ca        1 RIC     -0.123300
      8 C6         -0.8490   -0.0020    4.0720 ca        1 RIC     -0.094300
      9 C7          0.4800    0.0340    3.6570 ca        1 RIC     -0.117000
     10 C8         -3.3080    0.1710    3.6420 c3        1 RIC     -0.032800
     11 C9         -1.1590   -0.2760    5.4950 c3        1 RIC     -0.036800
     12 PN          7.8160   -0.5870   -1.0600 p5        1 RIC      1.331900
     13 OP1         8.3890   -0.3300    0.3060 o         1 RIC     -0.927500
     14 OP2         8.6590   -1.2990   -2.0680 o         1 RIC     -0.927500
     15 OP3         6.9510    0.5610   -1.5460 o         1 RIC     -0.927500
     16 O6Q         6.5480   -1.7300   -0.7040 os        1 RIC     -0.562200
     17 C5Q         5.9470   -1.6110    0.5170 c3        1 RIC      0.224400
     18 C4Q         4.6580   -0.7550    0.4170 c3        1 RIC      0.054100
     19 O5Q         3.8380   -0.9990    1.5900 os        1 RIC     -0.428600
     20 C3Q         4.9830    0.7510    0.3810 c3        1 RIC      0.088100
     21 O3Q         4.4330    1.3540   -0.7730 oh        1 RIC     -0.698800
     22 C2Q         4.3010    1.3420    1.6290 c3        1 RIC      0.111100
     23 O2Q         3.7130    2.6060    1.4630 oh        1 RIC     -0.609800
     24 C1Q         3.2910    0.2230    2.0660 c3        1 RIC      0.211800
     25 H21         2.3130    0.7920   -0.5410 h5        1 RIC      0.117800
     26 H41        -2.4830    0.6410    1.1080 ha        1 RIC      0.127000
     27 H71         1.2980   -0.1410    4.3710 ha        1 RIC      0.132000
     28 H81        -3.5340   -0.8320    4.0850 hc        1 RIC      0.025700
     29 H82        -4.0320    0.3590    2.8120 hc        1 RIC      0.025700
     30 H83        -3.4730    0.9430    4.4350 hc        1 RIC      0.025700
     31 H91        -0.2280   -0.4250    6.0940 hc        1 RIC      0.028700
     32 H92        -1.7320    0.5760    5.9400 hc        1 RIC      0.028700
     33 H93        -1.7870   -1.1980    5.5850 hc        1 RIC      0.028700
     34 HC51        6.6410   -1.1440    1.2730 h1        1 RIC      0.009700
     35 HC52        5.6310   -2.6320    0.8820 h1        1 RIC      0.009700
     36 HC4Q        4.0560   -1.0550   -0.4800 h1        1 RIC      0.056700
     37 HC3Q        6.1140    0.8890    0.3720 h1        1 RIC      0.171700
     38 HO3Q        5.1440    1.2880   -1.4550 ho        1 RIC      0.509000
     39 HC2Q        5.0450    1.4590    2.4630 h1        1 RIC      0.077700
     40 HO2Q        3.5190    2.7190    0.5200 ho        1 RIC      0.427000
     41 H1Q1        3.2260    0.1240    3.1860 h2        1 RIC      0.065700
@<TRIPOS>BOND
     1    1    3 2   
     2    1    5 1   
     3    2    3 1   
     4    2    4 1   
     5    2   24 1   
     6    3   25 1   
     7    4    5 ar  
     8    4    9 ar  
     9    5    6 ar  
    10    6    7 ar  
    11    6   26 1   
    12    7    8 ar  
    13    7   10 1   
    14    8    9 ar  
    15    8   11 1   
    16    9   27 1   
    17   10   28 1   
    18   10   29 1   
    19   10   30 1   
    20   11   31 1   
    21   11   32 1   
    22   11   33 1   
    23   12   13 1   
    24   12   14 1   
    25   12   15 1   
    26   12   16 1   
    27   16   17 1   
    28   17   18 1   
    29   17   34 1   
    30   17   35 1   
    31   18   19 1   
    32   18   20 1   
    33   18   36 1   
    34   19   24 1   
    35   20   21 1   
    36   20   22 1   
    37   20   37 1   
    38   21   38 1   
    39   22   23 1   
    40   22   24 1   
    41   22   39 1   
    42   23   40 1   
    43   24   41 1   
@<TRIPOS>SUBSTRUCTURE
     1 RIC         1 TEMP              0 ****  ****    0 ROOT
