@<TRIPOS>MOLECULE
RIC
   41    43     1     0     0
SMALL
bcc


@<TRIPOS>ATOM
      1 N3          0.2160    0.8170    0.1030 nc        1 RIC     -0.624100
      2 N1          1.9380    0.4150    1.5840 na        1 RIC     -0.155300
      3 C2          1.5500    0.7170    0.2640 cd        1 RIC      0.458700
      4 C7A         0.7540    0.2890    2.3170 ca        1 RIC     -0.064200
      5 C3A        -0.3290    0.5550    1.3760 ca        1 RIC      0.068400
      6 C4         -1.6510    0.5180    1.8280 ca        1 RIC     -0.085000
      7 C5         -1.9040    0.2260    3.1650 ca        1 RIC     -0.123300
      8 C6         -0.8470   -0.0330    4.0710 ca        1 RIC     -0.094300
      9 C7          0.4810   -0.0030    3.6560 ca        1 RIC     -0.117000
     10 C8         -3.3050    0.1840    3.6510 c3        1 RIC     -0.032800
     11 C9         -1.1600   -0.3450    5.4870 c3        1 RIC     -0.036800
     12 PN          7.8030   -0.5830   -1.0880 p5        1 RIC      1.331900
     13 OP1         8.3800   -0.3730    0.2850 o         1 RIC     -0.927500
     14 OP2         8.6360   -1.2770   -2.1170 o         1 RIC     -0.927500
     15 OP3         6.9520    0.5900   -1.5390 o         1 RIC     -0.927500
     16 O6Q         6.5210   -1.7190   -0.7630 os        1 RIC     -0.562200
     17 C5Q         5.9220   -1.6280    0.4620 c3        1 RIC      0.224400
     18 C4Q         4.6440   -0.7530    0.3890 c3        1 RIC      0.054100
     19 O5Q         3.8230   -1.0200    1.5540 os        1 RIC     -0.428600
     20 C3Q         4.9890    0.7500    0.3950 c3        1 RIC      0.088100
     21 O3Q         4.4460    1.3930   -0.7400 oh        1 RIC     -0.698800
     22 C2Q         4.3170    1.3130    1.6610 c3        1 RIC      0.111100
     23 O2Q         3.7450    2.5890    1.5320 oh        1 RIC     -0.609800
     24 C1Q         3.2930    0.1950    2.0670 c3        1 RIC      0.211800
     25 H21         2.3200    0.8530   -0.5210 h5        1 RIC      0.117800
     26 H41        -2.4760    0.7170    1.1300 ha        1 RIC      0.127000
     27 H71         1.2970   -0.2090    4.3630 ha        1 RIC      0.132000
     28 H81        -3.4580    0.9350    4.4660 hc        1 RIC      0.025700
     29 H82        -4.0270    0.4070    2.8280 hc        1 RIC      0.025700
     30 H83        -3.5440   -0.8280    4.0640 hc        1 RIC      0.025700
     31 H91        -1.7200    0.5020    5.9570 hc        1 RIC      0.028700
     32 H92        -1.8000   -1.2600    5.5510 hc        1 RIC      0.028700
     33 H93        -0.2300   -0.5240    6.0790 hc        1 RIC      0.028700
     34 HC51        5.5940   -2.6550    0.7970 h1        1 RIC      0.009700
     35 HC52        6.6230   -1.1920    1.2300 h1        1 RIC      0.009700
     36 HC4Q        4.0380   -1.0180   -0.5160 h1        1 RIC      0.056700
     37 HC3Q        6.1230    0.8730    0.3890 h1        1 RIC      0.171700
     38 HO3Q        5.1550    1.3370   -1.4240 ho        1 RIC      0.509000
     39 HC2Q        5.0640    1.3960    2.4980 h1        1 RIC      0.077700
     40 HO2Q        3.5520    2.7320    0.5940 ho        1 RIC      0.427000
     41 H1Q1        3.2270    0.0640    3.1840 h2        1 RIC      0.065700
@<TRIPOS>BOND
     1    1    3 2   
     2    1    5 1   
     3    2    3 1   
     4    2    4 1   
     5    2   24 1   
     6    3   25 1   
     7    4    5 ar  
     8    4    9 ar  
     9    5    6 ar  
    10    6    7 ar  
    11    6   26 1   
    12    7    8 ar  
    13    7   10 1   
    14    8    9 ar  
    15    8   11 1   
    16    9   27 1   
    17   10   28 1   
    18   10   29 1   
    19   10   30 1   
    20   11   31 1   
    21   11   32 1   
    22   11   33 1   
    23   12   13 1   
    24   12   14 1   
    25   12   15 1   
    26   12   16 1   
    27   16   17 1   
    28   17   18 1   
    29   17   34 1   
    30   17   35 1   
    31   18   19 1   
    32   18   20 1   
    33   18   36 1   
    34   19   24 1   
    35   20   21 1   
    36   20   22 1   
    37   20   37 1   
    38   21   38 1   
    39   22   23 1   
    40   22   24 1   
    41   22   39 1   
    42   23   40 1   
    43   24   41 1   
@<TRIPOS>SUBSTRUCTURE
     1 RIC         1 TEMP              0 ****  ****    0 ROOT
