@<TRIPOS>MOLECULE
RID
   77    72     1     0     0
SMALL
bcc


@<TRIPOS>ATOM
      1 N1         -0.5180   -0.2300   -0.1210 n2        1 RID     -0.084000
      2 N3          0.4150   -1.3770    4.5830 n3        1 RID     -0.824000
      3 C5          0.8760   -0.1680   -0.1530 c2        1 RID     -0.059000
      4 C6         -2.2890   -0.3270    1.9040 c3        1 RID     -0.094000
      5 C7         -1.2530   -0.3530   -1.4070 c2        1 RID     -0.043000
      6 C8         -1.5730    1.0490   -1.9430 c3        1 RID     -0.179000
      7 C10        -2.4270    2.2890   -3.9510 c3        1 RID     -0.201000
      8 C13        -3.0940   -1.3660    1.2080 c3        1 RID     -0.215500
      9 C15         2.8750   -1.5260   -2.9810 c1        1 RID     -0.131667
     10 C17        -0.4400   -1.7110    5.6940 c3        1 RID     -0.038500
     11 C20        -0.5400   -3.1970    5.9190 c3        1 RID     -0.039000
     12 C21         2.2230    0.9460   -1.8710 c1        1 RID     -0.074000
     13 C22         4.9750   -0.8520    1.9100 c1        1 RID     -0.131667
     14 C24         3.0820    0.8760   -2.9790 c1        1 RID     -0.167000
     15 C26         1.7040   -2.0010    4.6740 c3        1 RID     -0.038500
     16 C28         5.4230    0.3830    2.3420 c1        1 RID     -0.131667
     17 O5         -0.8940    0.7580    4.3220 o         1 RID     -0.555900
     18 S1          0.2590    0.0790    3.8520 s4        1 RID      2.103800
     19 O2          1.3140    0.9930    4.2640 o         1 RID     -0.555900
     20 C23         1.6060   -3.4990    4.9010 c3        1 RID     -0.039000
     21 O1          0.7510   -3.8270    6.0070 os        1 RID     -0.273000
     22 C2          0.2230   -0.1170    2.0080 c1        1 RID     -0.941000
     23 C1          1.3350   -0.0970    1.1590 c2        1 RID      0.011000
     24 C31         2.7370    0.0700    1.5750 c1        1 RID     -0.047000
     25 C25         3.6200   -1.0190    1.5210 c1        1 RID     -0.131667
     26 C19         4.5350    1.4720    2.3950 c1        1 RID     -0.131667
     27 C16         3.1860    1.3050    2.0070 c1        1 RID     -0.076000
     28 C12        -0.9220   -0.1990    1.2150 c2        1 RID      0.113000
     29 C14        -3.0590    1.0670    1.8340 c3        1 RID     -0.215500
     30 C27         1.6950   -0.2280   -1.3260 c1        1 RID     -0.035000
     31 C30         3.4050   -0.3600   -3.5290 c1        1 RID      0.100000
     32 F1          4.2320   -0.4310   -4.5960 f         1 RID     -0.105000
     33 C18         2.0180   -1.4540   -1.8770 c1        1 RID     -0.131667
     34 C9         -2.3520    0.9270   -3.2840 c3        1 RID      0.045000
     35 O4         -3.6400    0.4660   -3.0350 oh        1 RID     -0.374000
     36 C11        -2.9560    2.1290   -5.3880 c3        1 RID      0.061000
     37 O3         -4.3660    2.1390   -5.3710 oh        1 RID     -0.406000
     38 C35        -2.4540    3.2650   -6.2380 c3        1 RID     -0.265000
     39 C36        -2.6650    2.9230   -7.7350 c2        1 RID      0.330000
     40 O7         -1.7840    2.3340   -8.3550 o         1 RID     -0.578000
     41 O6         -3.7220    3.4010   -8.3810 o         1 RID     -0.578000
     42 H6         -2.1610   -0.5820    2.8380 hc        1 RID      0.149000
     43 H7         -0.6960   -0.8350   -2.0600 ha        1 RID      0.119000
     44 H7A        -2.0570   -0.8290   -1.2680 ha        1 RID      0.119000
     45 H8         -2.1350    1.5440   -1.2720 hc        1 RID      0.098500
     46 H8A        -0.7440    1.5370   -2.0920 hc        1 RID      0.098500
     47 H10        -3.0370    2.8670   -3.4430 hc        1 RID      0.092000
     48 H10A       -1.4690    2.7260   -3.9720 hc        1 RID      0.092000
     49 H13        -3.7330   -0.9100    0.5320 hc        1 RID      0.085500
     50 H13A       -3.5940   -1.8440    1.8330 hc        1 RID      0.085500
     51 H13B       -2.5120   -1.9610    0.7430 hc        1 RID      0.085500
     52 H15         3.0590   -2.4160   -3.4180 ha        1 RID      0.134333
     53 H17        -1.3150   -1.3600    5.5300 h1        1 RID      0.098500
     54 H17A       -0.0680   -1.2800    6.5280 h1        1 RID      0.098500
     55 H20        -1.0440   -3.6020    5.1640 h1        1 RID      0.091000
     56 H20A       -1.0360   -3.3620    6.7610 h1        1 RID      0.091000
     57 H21         2.0800    1.7840   -1.4300 ha        1 RID      0.150000
     58 H22         5.6060   -1.6270    1.8710 ha        1 RID      0.134333
     59 H24         3.4570    1.7040   -3.3670 ha        1 RID      0.152000
     60 H26         2.2110   -1.8320    3.8290 h1        1 RID      0.098500
     61 H26A        2.2070   -1.5900    5.4450 h1        1 RID      0.098500
     62 H28         6.3410    0.4940    2.6170 ha        1 RID      0.134333
     63 H23         2.5370   -3.8650    5.0850 h1        1 RID      0.091000
     64 H23A        1.2700   -3.9020    4.1270 h1        1 RID      0.091000
     65 H25         3.3250   -1.8720    1.1230 ha        1 RID      0.134333
     66 H19         4.8590    2.3670    2.7080 ha        1 RID      0.134333
     67 H16         2.5580    2.0770    2.0460 ha        1 RID      0.165000
     68 H14        -3.8730    0.9710    1.2430 hc        1 RID      0.085500
     69 H14A       -3.3410    1.3310    2.7370 hc        1 RID      0.085500
     70 H14B       -2.4540    1.7650    1.4560 hc        1 RID      0.085500
     71 H18         1.6490   -2.2680   -1.4960 ha        1 RID      0.134333
     72 H9         -1.8870    0.2980   -3.8780 h1        1 RID      0.075000
     73 HO4        -3.8060   -0.2750   -3.5450 ho        1 RID      0.248000
     74 H11        -2.6330    1.2660   -5.7660 h1        1 RID      0.069000
     75 HO3        -4.6840    1.4630   -5.9010 ho        1 RID      0.268000
     76 H35        -1.4770    3.4080   -6.0630 hc        1 RID      0.077500
     77 H35A       -2.9460    4.0780   -6.0180 hc        1 RID      0.077500
@<TRIPOS>BOND
     1    1    3 1   
     2    1   28 1   
     3    2   10 1   
     4    2   15 1   
     5    2   18 1   
     6    3   23 1   
     7    3   30 1   
     8    4    8 1   
     9    4   28 1   
    10    4   29 1   
    11    4   42 1   
    12    5    6 1   
    13    5   43 1   
    14    5   44 1   
    15    6   34 1   
    16    6   45 1   
    17    6   46 1   
    18    7   34 1   
    19    7   36 1   
    20    7   47 1   
    21    7   48 1   
    22    8   49 1   
    23    8   50 1   
    24    8   51 1   
    25    9   33 1   
    26    9   52 1   
    27   10   11 1   
    28   10   53 1   
    29   10   54 1   
    30   11   21 1   
    31   11   55 1   
    32   11   56 1   
    33   12   30 1   
    34   12   57 1   
    35   13   25 1   
    36   13   58 1   
    37   14   31 1   
    38   14   59 1   
    39   15   20 1   
    40   15   60 1   
    41   15   61 1   
    42   16   26 1   
    43   16   62 1   
    44   17   18 1   
    45   18   19 1   
    46   20   21 1   
    47   20   63 1   
    48   20   64 1   
    49   22   23 1   
    50   22   28 1   
    51   23   24 1   
    52   24   27 1   
    53   25   65 1   
    54   26   66 1   
    55   27   67 1   
    56   29   68 1   
    57   29   69 1   
    58   29   70 1   
    59   31   32 1   
    60   33   71 1   
    61   34   35 1   
    62   34   72 1   
    63   35   73 1   
    64   36   37 1   
    65   36   38 1   
    66   36   74 1   
    67   37   75 1   
    68   38   39 1   
    69   38   76 1   
    70   38   77 1   
    71   39   40 1   
    72   39   41 1   
@<TRIPOS>SUBSTRUCTURE
     1 RID         1 TEMP              0 ****  ****    0 ROOT
