@<TRIPOS>MOLECULE
RID
   77    80     1     0     0
SMALL
bcc


@<TRIPOS>ATOM
      1 N1         -0.2200    0.0900    0.1470 na        1 RID     -0.017100
      2 N3          0.7650   -1.5290    4.3750 n3        1 RID     -0.805500
      3 C5          1.1880    0.0180    0.1740 cc        1 RID     -0.082300
      4 C6         -2.1360    0.1500    1.8310 c3        1 RID     -0.049400
      5 C7         -0.9760    0.1650   -1.0810 c3        1 RID      0.016300
      6 C8         -1.1060    1.5670   -1.6750 c3        1 RID     -0.100400
      7 C10        -2.2170    2.9060   -3.4840 c3        1 RID     -0.122400
      8 C13        -2.8110   -1.1800    1.5530 c3        1 RID     -0.096100
      9 C15         2.8710   -1.2450   -2.9390 ca        1 RID     -0.169000
     10 C17         2.0700   -1.9910    4.7680 c3        1 RID      0.194300
     11 C20         2.0310   -2.9560    5.9610 c3        1 RID      0.116900
     12 C21         2.7570    1.1000   -1.4090 ca        1 RID     -0.083500
     13 C22         5.0810   -1.3590    1.9130 ca        1 RID     -0.142500
     14 C24         3.5680    1.0600   -2.5380 ca        1 RID     -0.169000
     15 C26        -0.2310   -2.5620    4.2870 c3        1 RID      0.194300
     16 C28         5.6970   -0.3320    2.6290 ca        1 RID     -0.127000
     17 O5         -0.8410    0.3540    4.5140 o         1 RID     -0.671800
     18 S1          0.4390    0.0330    3.9930 sy        1 RID      1.552200
     19 O2          1.4740    0.8610    4.4920 o         1 RID     -0.671800
     20 C23        -0.2200   -3.5140    5.4920 c3        1 RID      0.116900
     21 O1          1.0870   -4.0040    5.7680 os        1 RID     -0.418600
     22 C2          0.4180    0.0450    2.3460 cd        1 RID     -0.496500
     23 C1          1.6040   -0.0170    1.5120 cd        1 RID      0.012000
     24 C31         2.9900   -0.1270    1.9300 ca        1 RID     -0.046000
     25 C25         3.7360   -1.2580    1.5630 ca        1 RID     -0.096000
     26 C19         4.9610    0.7920    3.0000 ca        1 RID     -0.142500
     27 C16         3.6140    0.8980    2.6550 ca        1 RID     -0.096000
     28 C12        -0.6900    0.1110    1.4460 cc        1 RID      0.084400
     29 C14        -2.8950    1.2980    1.1960 c3        1 RID     -0.096100
     30 C27         2.0070   -0.0220   -1.0310 ca        1 RID     -0.035000
     31 C30         3.6290   -0.1170   -3.3070 ca        1 RID      0.134900
     32 F1          4.4210   -0.1670   -4.4040 f         1 RID     -0.139900
     33 C18         2.0670   -1.1880   -1.8060 ca        1 RID     -0.083500
     34 C9         -2.1150    1.5360   -2.8250 c3        1 RID      0.156100
     35 O4         -3.3530    1.1140   -2.2630 oh        1 RID     -0.645800
     36 C11        -2.8950    2.8350   -4.8530 c3        1 RID      0.172100
     37 O3         -4.2550    2.4890   -4.6210 oh        1 RID     -0.678800
     38 C35        -2.7680    4.1550   -5.5950 c3        1 RID     -0.236400
     39 C36        -3.2750    4.0380   -7.0430 c         1 RID      0.910600
     40 O7         -4.2940    3.3120   -7.2580 o         1 RID     -0.843300
     41 O6         -2.6610    4.6750   -7.9390 o         1 RID     -0.843300
     42 H6         -2.1800    0.3200    2.9510 hc        1 RID      0.113700
     43 H7         -0.4600   -0.5010   -1.8340 h1        1 RID      0.080200
     44 H7A        -2.0090   -0.2510   -0.8980 h1        1 RID      0.080200
     45 H8         -1.4580    2.2950   -0.8990 hc        1 RID      0.058700
     46 H8A        -0.1150    1.9170   -2.0620 hc        1 RID      0.058700
     47 H10        -1.1900    3.3290   -3.6200 hc        1 RID      0.052700
     48 H10A       -2.8000    3.5930   -2.8190 hc        1 RID      0.052700
     49 H13        -2.8550   -1.4060    0.4620 hc        1 RID      0.045700
     50 H13A       -2.2620   -2.0080    2.0660 hc        1 RID      0.045700
     51 H13B       -3.8570   -1.1500    1.9440 hc        1 RID      0.045700
     52 H15         2.9190   -2.1560   -3.5510 ha        1 RID      0.150000
     53 H17         2.7080   -1.1020    5.0440 h1        1 RID      0.058200
     54 H17A        2.5570   -2.5210    3.8970 h1        1 RID      0.058200
     55 H20         3.0160   -3.4830    6.0590 h1        1 RID      0.051700
     56 H20A        1.7900   -2.4080    6.9090 h1        1 RID      0.051700
     57 H21         2.7060    2.0190   -0.8050 ha        1 RID      0.145000
     58 H22         5.6570   -2.2480    1.6200 ha        1 RID      0.129500
     59 H24         4.1560    1.9380   -2.8390 ha        1 RID      0.150000
     60 H26        -0.0600   -3.1720    3.3530 h1        1 RID      0.058200
     61 H26A       -1.2510   -2.0840    4.2190 h1        1 RID      0.058200
     62 H28         6.7590   -0.4100    2.8990 ha        1 RID      0.125000
     63 H23        -0.8200   -4.4320    5.2620 h1        1 RID      0.051700
     64 H23A       -0.6280   -3.0030    6.4040 h1        1 RID      0.051700
     65 H25         3.2540   -2.0640    0.9900 ha        1 RID      0.149500
     66 H19         5.4400    1.6010    3.5700 ha        1 RID      0.129500
     67 H16         3.0280    1.7750    2.9790 ha        1 RID      0.149500
     68 H14        -3.1260    1.1120    0.1180 hc        1 RID      0.045700
     69 H14A       -2.3090    2.2450    1.2800 hc        1 RID      0.045700
     70 H14B       -3.8650    1.4350    1.7350 hc        1 RID      0.045700
     71 H18         1.4750   -2.0690   -1.5140 ha        1 RID      0.145000
     72 H9         -1.7960    0.7690   -3.5880 h1        1 RID      0.035700
     73 HO4        -4.0500    1.3580   -2.8890 ho        1 RID      0.449000
     74 H11        -2.4220    2.0170   -5.4680 h1        1 RID      0.029700
     75 HO3        -4.7230    2.6130   -5.4690 ho        1 RID      0.469000
     76 H35        -1.7010    4.4850   -5.6050 hc        1 RID      0.038200
     77 H35A       -3.3770    4.9380   -5.0780 hc        1 RID      0.038200
@<TRIPOS>BOND
     1    1    3 1   
     2    1    5 1   
     3    1   28 1   
     4    2   10 1   
     5    2   15 1   
     6    2   18 1   
     7    3   23 2   
     8    3   30 1   
     9    4    8 1   
    10    4   28 1   
    11    4   29 1   
    12    4   42 1   
    13    5    6 1   
    14    5   43 1   
    15    5   44 1   
    16    6   34 1   
    17    6   45 1   
    18    6   46 1   
    19    7   34 1   
    20    7   36 1   
    21    7   47 1   
    22    7   48 1   
    23    8   49 1   
    24    8   50 1   
    25    8   51 1   
    26    9   31 ar  
    27    9   33 ar  
    28    9   52 1   
    29   10   11 1   
    30   10   53 1   
    31   10   54 1   
    32   11   21 1   
    33   11   55 1   
    34   11   56 1   
    35   12   14 ar  
    36   12   30 ar  
    37   12   57 1   
    38   13   16 ar  
    39   13   25 ar  
    40   13   58 1   
    41   14   31 ar  
    42   14   59 1   
    43   15   20 1   
    44   15   60 1   
    45   15   61 1   
    46   16   26 ar  
    47   16   62 1   
    48   17   18 2   
    49   18   19 2   
    50   18   22 1   
    51   20   21 1   
    52   20   63 1   
    53   20   64 1   
    54   22   23 1   
    55   22   28 2   
    56   23   24 1   
    57   24   25 ar  
    58   24   27 ar  
    59   25   65 1   
    60   26   27 ar  
    61   26   66 1   
    62   27   67 1   
    63   29   68 1   
    64   29   69 1   
    65   29   70 1   
    66   30   33 ar  
    67   31   32 1   
    68   33   71 1   
    69   34   35 1   
    70   34   72 1   
    71   35   73 1   
    72   36   37 1   
    73   36   38 1   
    74   36   74 1   
    75   37   75 1   
    76   38   39 1   
    77   38   76 1   
    78   38   77 1   
    79   39   40 1   
    80   39   41 1   
@<TRIPOS>SUBSTRUCTURE
     1 RID         1 TEMP              0 ****  ****    0 ROOT
