@<TRIPOS>MOLECULE
RID
   77    80     1     0     0
SMALL
bcc


@<TRIPOS>ATOM
      1 N1         -0.2620    0.0980    0.1470 na        1 RID     -0.017100
      2 N3          0.6890   -1.4930    4.3970 n3        1 RID     -0.805500
      3 C5          1.1450    0.0110    0.1910 cc        1 RID     -0.082300
      4 C6         -2.1970    0.1940    1.8070 c3        1 RID     -0.049400
      5 C7         -1.0020    0.1700   -1.0910 c3        1 RID      0.016300
      6 C8         -1.1090    1.5690   -1.6990 c3        1 RID     -0.100400
      7 C10        -2.1820    2.9040   -3.5330 c3        1 RID     -0.122400
      8 C13        -2.8850   -1.1300    1.5320 c3        1 RID     -0.096100
      9 C15         2.8510   -1.2960   -2.8920 ca        1 RID     -0.169000
     10 C17         1.9900   -1.9390    4.8180 c3        1 RID      0.194300
     11 C20         1.9380   -2.8980    6.0160 c3        1 RID      0.116900
     12 C21         2.7430    1.0630   -1.3830 ca        1 RID     -0.083500
     13 C22         5.0050   -1.3840    1.9890 ca        1 RID     -0.142500
     14 C24         3.5670    1.0050   -2.5030 ca        1 RID     -0.169000
     15 C26        -0.2940   -2.5370    4.2950 c3        1 RID      0.194300
     16 C28         5.6210   -0.3550    2.7020 ca        1 RID     -0.127000
     17 O5         -0.9340    0.3770    4.5060 o         1 RID     -0.672300
     18 S1          0.3530    0.0630    4.0000 sy        1 RID      1.552200
     19 O2          1.3760    0.9030    4.5030 o         1 RID     -0.672300
     20 C23        -0.2970   -3.4820    5.5050 c3        1 RID      0.116900
     21 O1          1.0090   -3.9570    5.8100 os        1 RID     -0.418600
     22 C2          0.3500    0.0630    2.3530 cd        1 RID     -0.496500
     23 C1          1.5450   -0.0170    1.5330 cd        1 RID      0.012000
     24 C31         2.9250   -0.1360    1.9690 ca        1 RID     -0.046000
     25 C25         3.6660   -1.2760    1.6220 ca        1 RID     -0.096500
     26 C19         4.8900    0.7780    3.0540 ca        1 RID     -0.142500
     27 C16         3.5480    0.8910    2.6920 ca        1 RID     -0.096500
     28 C12        -0.7470    0.1340    1.4400 cc        1 RID      0.084400
     29 C14        -2.9340    1.3460    1.1540 c3        1 RID     -0.096100
     30 C27         1.9780   -0.0480   -1.0050 ca        1 RID     -0.035000
     31 C30         3.6250   -0.1790   -3.2600 ca        1 RID      0.134900
     32 F1          4.4300   -0.2470   -4.3470 f         1 RID     -0.139900
     33 C18         2.0340   -1.2210   -1.7690 ca        1 RID     -0.083500
     34 C9         -2.1040    1.5400   -2.8600 c3        1 RID      0.156100
     35 O4         -3.3530    1.1370   -2.3100 oh        1 RID     -0.645800
     36 C11        -2.8440    2.8300   -4.9090 c3        1 RID      0.172100
     37 O3         -4.2110    2.5020   -4.6910 oh        1 RID     -0.678800
     38 C35        -2.6920    4.1420   -5.6610 c3        1 RID     -0.236400
     39 C36        -3.1830    4.0170   -7.1140 c         1 RID      0.910600
     40 O7         -4.2080    3.3020   -7.3360 o         1 RID     -0.843300
     41 O6         -2.5500    4.6390   -8.0090 o         1 RID     -0.843300
     42 H6         -2.2520    0.3740    2.9250 hc        1 RID      0.114700
     43 H7         -2.0420   -0.2310   -0.9170 h1        1 RID      0.080200
     44 H7A        -0.4860   -0.5080   -1.8330 h1        1 RID      0.080200
     45 H8         -0.1090    1.9030   -2.0770 hc        1 RID      0.058700
     46 H8A        -1.4620    2.3070   -0.9340 hc        1 RID      0.058700
     47 H10        -1.1480    3.3140   -3.6600 hc        1 RID      0.052700
     48 H10A       -2.7650    3.6040   -2.8810 hc        1 RID      0.052700
     49 H13        -2.9170   -1.3660    0.4430 hc        1 RID      0.045700
     50 H13A       -2.3540   -1.9600    2.0600 hc        1 RID      0.045700
     51 H13B       -3.9360   -1.0830    1.9090 hc        1 RID      0.045700
     52 H15         2.8970   -2.2130   -3.4950 ha        1 RID      0.150000
     53 H17         2.6140   -1.0420    5.1020 h1        1 RID      0.058200
     54 H17A        2.5000   -2.4680    3.9600 h1        1 RID      0.058200
     55 H20         2.9260   -3.4140    6.1370 h1        1 RID      0.051950
     56 H20A        1.6720   -2.3470    6.9560 h1        1 RID      0.051950
     57 H21         2.6940    1.9880   -0.7880 ha        1 RID      0.145000
     58 H22         5.5780   -2.2810    1.7100 ha        1 RID      0.129500
     59 H24         4.1680    1.8750   -2.8040 ha        1 RID      0.150000
     60 H26        -1.3180   -2.0710    4.2030 h1        1 RID      0.058200
     61 H26A       -0.0970   -3.1520    3.3680 h1        1 RID      0.058200
     62 H28         6.6800   -0.4400    2.9860 ha        1 RID      0.125000
     63 H23        -0.7290   -2.9710    6.4060 h1        1 RID      0.051950
     64 H23A       -0.8830   -4.4080    5.2690 h1        1 RID      0.051950
     65 H25         3.1840   -2.0830    1.0500 ha        1 RID      0.149500
     66 H19         5.3690    1.5890    3.6230 ha        1 RID      0.129500
     67 H16         2.9650    1.7750    3.0010 ha        1 RID      0.149500
     68 H14        -2.3370    2.2860    1.2360 hc        1 RID      0.045700
     69 H14A       -3.1550    1.1530    0.0740 hc        1 RID      0.045700
     70 H14B       -3.9080    1.5000    1.6810 hc        1 RID      0.045700
     71 H18         1.4300   -2.0940   -1.4770 ha        1 RID      0.145000
     72 H9         -1.7850    0.7610   -3.6120 h1        1 RID      0.035700
     73 HO4        -4.0410    1.3850   -2.9460 ho        1 RID      0.449000
     74 H11        -2.3730    2.0000   -5.5110 h1        1 RID      0.029700
     75 HO3        -4.6670    2.6240   -5.5450 ho        1 RID      0.469000
     76 H35        -1.6210    4.4580   -5.6610 hc        1 RID      0.038200
     77 H35A       -3.2980    4.9360   -5.1590 hc        1 RID      0.038200
@<TRIPOS>BOND
     1    1    3 1   
     2    1    5 1   
     3    1   28 1   
     4    2   10 1   
     5    2   15 1   
     6    2   18 1   
     7    3   23 2   
     8    3   30 1   
     9    4    8 1   
    10    4   28 1   
    11    4   29 1   
    12    4   42 1   
    13    5    6 1   
    14    5   43 1   
    15    5   44 1   
    16    6   34 1   
    17    6   45 1   
    18    6   46 1   
    19    7   34 1   
    20    7   36 1   
    21    7   47 1   
    22    7   48 1   
    23    8   49 1   
    24    8   50 1   
    25    8   51 1   
    26    9   31 ar  
    27    9   33 ar  
    28    9   52 1   
    29   10   11 1   
    30   10   53 1   
    31   10   54 1   
    32   11   21 1   
    33   11   55 1   
    34   11   56 1   
    35   12   14 ar  
    36   12   30 ar  
    37   12   57 1   
    38   13   16 ar  
    39   13   25 ar  
    40   13   58 1   
    41   14   31 ar  
    42   14   59 1   
    43   15   20 1   
    44   15   60 1   
    45   15   61 1   
    46   16   26 ar  
    47   16   62 1   
    48   17   18 2   
    49   18   19 2   
    50   18   22 1   
    51   20   21 1   
    52   20   63 1   
    53   20   64 1   
    54   22   23 1   
    55   22   28 2   
    56   23   24 1   
    57   24   25 ar  
    58   24   27 ar  
    59   25   65 1   
    60   26   27 ar  
    61   26   66 1   
    62   27   67 1   
    63   29   68 1   
    64   29   69 1   
    65   29   70 1   
    66   30   33 ar  
    67   31   32 1   
    68   33   71 1   
    69   34   35 1   
    70   34   72 1   
    71   35   73 1   
    72   36   37 1   
    73   36   38 1   
    74   36   74 1   
    75   37   75 1   
    76   38   39 1   
    77   38   76 1   
    78   38   77 1   
    79   39   40 1   
    80   39   41 1   
@<TRIPOS>SUBSTRUCTURE
     1 RID         1 TEMP              0 ****  ****    0 ROOT
