@<TRIPOS>MOLECULE
RID
   77    80     1     0     0
SMALL
bcc


@<TRIPOS>ATOM
      1 N1         -0.0730   -0.5750   -0.2440 na        1 RID     -0.017100
      2 N3          4.4700   -1.4900   -0.1030 n3        1 RID     -0.805500
      3 C5          0.5440    0.6880   -0.1370 cc        1 RID     -0.082300
      4 C6          0.5350   -3.0140    0.1950 c3        1 RID     -0.049400
      5 C7         -1.4320   -0.7440   -0.7040 c3        1 RID      0.016300
      6 C8         -2.5060   -0.5450    0.3660 c3        1 RID     -0.100400
      7 C10        -4.9660   -0.7320    0.8270 c3        1 RID     -0.122400
      8 C13         0.5270   -3.5750   -1.2150 c3        1 RID     -0.096100
      9 C15        -0.9020    3.4550   -2.2280 ca        1 RID     -0.169000
     10 C17         5.4980   -0.4900   -0.2070 c3        1 RID      0.194300
     11 C20         6.8430   -1.0570   -0.6810 c3        1 RID      0.116900
     12 C21        -0.5500    2.8240    0.4790 ca        1 RID     -0.083500
     13 C22         4.0820    3.4320   -0.3240 ca        1 RID     -0.142500
     14 C24        -1.1500    4.0300    0.1320 ca        1 RID     -0.169000
     15 C26         4.3890   -2.3800   -1.2300 c3        1 RID      0.194300
     16 C28         4.5410    3.7390    0.9580 ca        1 RID     -0.127000
     17 O5          3.2340   -2.9540    1.4690 o         1 RID     -0.672300
     18 S1          3.4260   -1.5830    1.1580 sy        1 RID      1.552200
     19 O2          3.9350   -0.8270    2.2410 o         1 RID     -0.672300
     20 C23         5.7590   -2.9080   -1.6800 c3        1 RID      0.116900
     21 O1          6.7020   -1.8560   -1.8510 os        1 RID     -0.418600
     22 C2          2.0370   -0.9160    0.5770 cd        1 RID     -0.496500
     23 C1          1.8410    0.5060    0.3600 cd        1 RID      0.012000
     24 C31         2.7910    1.5840    0.5730 ca        1 RID     -0.046000
     25 C25         3.2110    2.3630   -0.5170 ca        1 RID     -0.096500
     26 C19         4.1310    2.9670    2.0440 ca        1 RID     -0.142500
     27 C16         3.2610    1.8930    1.8570 ca        1 RID     -0.096500
     28 C12         0.8130   -1.5430    0.1870 cc        1 RID      0.084400
     29 C14        -0.7310   -3.3800    0.9430 c3        1 RID     -0.096100
     30 C27        -0.1160    1.9330   -0.5110 ca        1 RID     -0.035000
     31 C30        -1.3250    4.3500   -1.2270 ca        1 RID      0.134900
     32 F1         -1.9030    5.5250   -1.5750 f         1 RID     -0.139900
     33 C18        -0.3030    2.2550   -1.8620 ca        1 RID     -0.083500
     34 C9         -3.8610   -0.9820   -0.1920 c3        1 RID      0.156100
     35 O4         -3.7350   -2.3610   -0.5240 oh        1 RID     -0.645800
     36 C11        -6.3560   -0.7790    0.1910 c3        1 RID      0.172100
     37 O3         -6.5830   -2.1260   -0.2030 oh        1 RID     -0.678800
     38 C35        -7.4180   -0.2890    1.1610 c3        1 RID     -0.236400
     39 C36        -8.7870   -0.1490    0.4730 c         1 RID      0.910600
     40 O7         -9.1070   -1.0200   -0.3940 o         1 RID     -0.843300
     41 O6         -9.5250    0.8140    0.8110 o         1 RID     -0.843300
     42 H6          1.3880   -3.5130    0.7490 hc        1 RID      0.114700
     43 H7         -1.6030    0.0060   -1.5310 h1        1 RID      0.080200
     44 H7A        -1.5420   -1.7780   -1.1420 h1        1 RID      0.080200
     45 H8         -2.2730   -1.1530    1.2780 hc        1 RID      0.058700
     46 H8A        -2.5590    0.5320    0.6650 hc        1 RID      0.058700
     47 H10        -4.9040   -1.5050    1.6350 hc        1 RID      0.052700
     48 H10A       -4.8230    0.2780    1.2880 hc        1 RID      0.052700
     49 H13         1.4870   -3.3340   -1.7340 hc        1 RID      0.045700
     50 H13A        0.4170   -4.6860   -1.1670 hc        1 RID      0.045700
     51 H13B       -0.3160   -3.1690   -1.8220 hc        1 RID      0.045700
     52 H15        -1.0520    3.7110   -3.2860 ha        1 RID      0.150000
     53 H17         5.1710    0.3080   -0.9370 h1        1 RID      0.058200
     54 H17A        5.6460   -0.0070    0.8020 h1        1 RID      0.058200
     55 H20         7.5230   -0.2220   -0.9950 h1        1 RID      0.051950
     56 H20A        7.3270   -1.6650    0.1280 h1        1 RID      0.051950
     57 H21        -0.4110    2.5690    1.5420 ha        1 RID      0.145000
     58 H22         4.4040    4.0370   -1.1830 ha        1 RID      0.129500
     59 H24        -1.4930    4.7310    0.9060 ha        1 RID      0.150000
     60 H26         3.7390   -3.2610   -0.9570 h1        1 RID      0.058200
     61 H26A        3.9140   -1.8430   -2.1020 h1        1 RID      0.058200
     62 H28         5.2240    4.5870    1.1090 ha        1 RID      0.125000
     63 H23         6.1600   -3.6520   -0.9420 h1        1 RID      0.051950
     64 H23A        5.6760   -3.3770   -2.6950 h1        1 RID      0.051950
     65 H25         2.8420    2.1270   -1.5260 ha        1 RID      0.149500
     66 H19         4.4950    3.2000    3.0550 ha        1 RID      0.129500
     67 H16         2.9650    1.2660    2.7140 ha        1 RID      0.149500
     68 H14        -0.7240   -4.4780    1.1530 hc        1 RID      0.045700
     69 H14A       -0.7790   -2.8370    1.9160 hc        1 RID      0.045700
     70 H14B       -1.6550   -3.1490    0.3560 hc        1 RID      0.045700
     71 H18         0.0320    1.5540   -2.6420 ha        1 RID      0.145000
     72 H9         -4.0820   -0.4120   -1.1410 h1        1 RID      0.035700
     73 HO4        -4.6310   -2.7200   -0.6030 ho        1 RID      0.449000
     74 H11        -6.3710   -0.1330   -0.7340 h1        1 RID      0.029700
     75 HO3        -7.5260   -2.1910   -0.4470 ho        1 RID      0.469000
     76 H35        -7.5270   -1.0180    2.0020 hc        1 RID      0.038200
     77 H35A       -7.1180    0.7010    1.5860 hc        1 RID      0.038200
@<TRIPOS>BOND
     1    1    3 1   
     2    1    5 1   
     3    1   28 1   
     4    2   10 1   
     5    2   15 1   
     6    2   18 1   
     7    3   23 2   
     8    3   30 1   
     9    4    8 1   
    10    4   28 1   
    11    4   29 1   
    12    4   42 1   
    13    5    6 1   
    14    5   43 1   
    15    5   44 1   
    16    6   34 1   
    17    6   45 1   
    18    6   46 1   
    19    7   34 1   
    20    7   36 1   
    21    7   47 1   
    22    7   48 1   
    23    8   49 1   
    24    8   50 1   
    25    8   51 1   
    26    9   31 ar  
    27    9   33 ar  
    28    9   52 1   
    29   10   11 1   
    30   10   53 1   
    31   10   54 1   
    32   11   21 1   
    33   11   55 1   
    34   11   56 1   
    35   12   14 ar  
    36   12   30 ar  
    37   12   57 1   
    38   13   16 ar  
    39   13   25 ar  
    40   13   58 1   
    41   14   31 ar  
    42   14   59 1   
    43   15   20 1   
    44   15   60 1   
    45   15   61 1   
    46   16   26 ar  
    47   16   62 1   
    48   17   18 2   
    49   18   19 2   
    50   18   22 1   
    51   20   21 1   
    52   20   63 1   
    53   20   64 1   
    54   22   23 1   
    55   22   28 2   
    56   23   24 1   
    57   24   25 ar  
    58   24   27 ar  
    59   25   65 1   
    60   26   27 ar  
    61   26   66 1   
    62   27   67 1   
    63   29   68 1   
    64   29   69 1   
    65   29   70 1   
    66   30   33 ar  
    67   31   32 1   
    68   33   71 1   
    69   34   35 1   
    70   34   72 1   
    71   35   73 1   
    72   36   37 1   
    73   36   38 1   
    74   36   74 1   
    75   37   75 1   
    76   38   39 1   
    77   38   76 1   
    78   38   77 1   
    79   39   40 1   
    80   39   41 1   
@<TRIPOS>SUBSTRUCTURE
     1 RID         1 TEMP              0 ****  ****    0 ROOT
