@<TRIPOS>MOLECULE
RID
   77    80     1     0     0
SMALL
bcc


@<TRIPOS>ATOM
      1 N1         -0.2570    0.0960    0.1500 na        1 RID     -0.017100
      2 N3          0.6810   -1.4960    4.4020 n3        1 RID     -0.805500
      3 C5          1.1490    0.0080    0.1960 cc        1 RID     -0.082300
      4 C6         -2.1940    0.1930    1.8090 c3        1 RID     -0.049400
      5 C7         -0.9970    0.1690   -1.0890 c3        1 RID      0.016300
      6 C8         -1.1020    1.5670   -1.6960 c3        1 RID     -0.100400
      7 C10        -2.1740    2.9040   -3.5300 c3        1 RID     -0.122400
      8 C13        -2.8820   -1.1320    1.5330 c3        1 RID     -0.096100
      9 C15         2.8580   -1.2990   -2.8850 ca        1 RID     -0.169000
     10 C17         1.9790   -1.9490    4.8220 c3        1 RID      0.194300
     11 C20         1.9230   -2.9080    6.0200 c3        1 RID      0.116900
     12 C21         2.7500    1.0590   -1.3760 ca        1 RID     -0.083500
     13 C22         5.0060   -1.3910    1.9970 ca        1 RID     -0.142500
     14 C24         3.5750    1.0010   -2.4950 ca        1 RID     -0.169000
     15 C26        -0.3090   -2.5350    4.3010 c3        1 RID      0.194300
     16 C28         5.6220   -0.3630    2.7120 ca        1 RID     -0.127000
     17 O5         -0.9330    0.3820    4.5080 o         1 RID     -0.671800
     18 S1          0.3530    0.0610    4.0050 sy        1 RID      1.552200
     19 O2          1.3790    0.8960    4.5090 o         1 RID     -0.671800
     20 C23        -0.3160   -3.4790    5.5120 c3        1 RID      0.116900
     21 O1          0.9880   -3.9610    5.8160 os        1 RID     -0.418600
     22 C2          0.3520    0.0610    2.3570 cd        1 RID     -0.496500
     23 C1          1.5480   -0.0200    1.5380 cd        1 RID      0.012000
     24 C31         2.9270   -0.1400    1.9760 ca        1 RID     -0.046000
     25 C25         3.6680   -1.2810    1.6290 ca        1 RID     -0.096000
     26 C19         4.8920    0.7710    3.0630 ca        1 RID     -0.142500
     27 C16         3.5510    0.8860    2.7000 ca        1 RID     -0.096000
     28 C12        -0.7440    0.1330    1.4430 cc        1 RID      0.084400
     29 C14        -2.9300    1.3450    1.1550 c3        1 RID     -0.096100
     30 C27         1.9840   -0.0510   -0.9990 ca        1 RID     -0.035000
     31 C30         3.6330   -0.1830   -3.2520 ca        1 RID      0.134900
     32 F1          4.4390   -0.2520   -4.3390 f         1 RID     -0.139900
     33 C18         2.0400   -1.2240   -1.7630 ca        1 RID     -0.083500
     34 C9         -2.0960    1.5390   -2.8580 c3        1 RID      0.156100
     35 O4         -3.3460    1.1370   -2.3090 oh        1 RID     -0.645800
     36 C11        -2.8350    2.8300   -4.9070 c3        1 RID      0.172100
     37 O3         -4.2020    2.5030   -4.6900 oh        1 RID     -0.678800
     38 C35        -2.6820    4.1420   -5.6590 c3        1 RID     -0.236400
     39 C36        -3.1710    4.0170   -7.1120 c         1 RID      0.910600
     40 O7         -4.1970    3.3030   -7.3350 o         1 RID     -0.843300
     41 O6         -2.5380    4.6380   -8.0070 o         1 RID     -0.843300
     42 H6         -2.2500    0.3730    2.9260 hc        1 RID      0.114700
     43 H7         -2.0370   -0.2320   -0.9160 h1        1 RID      0.080200
     44 H7A        -0.4790   -0.5090   -1.8290 h1        1 RID      0.080200
     45 H8         -0.1020    1.9020   -2.0730 hc        1 RID      0.058700
     46 H8A        -1.4560    2.3060   -0.9310 hc        1 RID      0.058700
     47 H10        -1.1390    3.3140   -3.6570 hc        1 RID      0.052700
     48 H10A       -2.7560    3.6040   -2.8790 hc        1 RID      0.052700
     49 H13        -2.3510   -1.9610    2.0610 hc        1 RID      0.045700
     50 H13A       -3.9330   -1.0840    1.9080 hc        1 RID      0.045700
     51 H13B       -2.9130   -1.3670    0.4430 hc        1 RID      0.045700
     52 H15         2.9040   -2.2170   -3.4890 ha        1 RID      0.150000
     53 H17         2.6080   -1.0560    5.1050 h1        1 RID      0.058200
     54 H17A        2.4860   -2.4820    3.9640 h1        1 RID      0.058200
     55 H20         1.6610   -2.3550    6.9610 h1        1 RID      0.051950
     56 H20A        2.9080   -3.4290    6.1410 h1        1 RID      0.051950
     57 H21         2.7010    1.9840   -0.7810 ha        1 RID      0.145000
     58 H22         5.5780   -2.2880    1.7190 ha        1 RID      0.129500
     59 H24         4.1770    1.8700   -2.7960 ha        1 RID      0.150000
     60 H26        -0.1160   -3.1510    3.3740 h1        1 RID      0.058200
     61 H26A       -1.3300   -2.0630    4.2100 h1        1 RID      0.058200
     62 H28         6.6810   -0.4490    2.9970 ha        1 RID      0.125000
     63 H23        -0.9070   -4.4030    5.2760 h1        1 RID      0.051950
     64 H23A       -0.7440   -2.9660    6.4130 h1        1 RID      0.051950
     65 H25         3.1850   -2.0870    1.0560 ha        1 RID      0.149500
     66 H19         5.3710    1.5810    3.6330 ha        1 RID      0.129500
     67 H16         2.9690    1.7700    3.0090 ha        1 RID      0.149500
     68 H14        -3.9050    1.4990    1.6800 hc        1 RID      0.045700
     69 H14A       -3.1500    1.1520    0.0750 hc        1 RID      0.045700
     70 H14B       -2.3340    2.2850    1.2370 hc        1 RID      0.045700
     71 H18         1.4340   -2.0960   -1.4710 ha        1 RID      0.145000
     72 H9         -1.7770    0.7610   -3.6100 h1        1 RID      0.035700
     73 HO4        -4.0330    1.3840   -2.9460 ho        1 RID      0.449000
     74 H11        -2.3640    2.0000   -5.5090 h1        1 RID      0.029700
     75 HO3        -4.6570    2.6260   -5.5450 ho        1 RID      0.469000
     76 H35        -1.6100    4.4570   -5.6590 hc        1 RID      0.038200
     77 H35A       -3.2870    4.9370   -5.1570 hc        1 RID      0.038200
@<TRIPOS>BOND
     1    1    3 1   
     2    1    5 1   
     3    1   28 1   
     4    2   10 1   
     5    2   15 1   
     6    2   18 1   
     7    3   23 2   
     8    3   30 1   
     9    4    8 1   
    10    4   28 1   
    11    4   29 1   
    12    4   42 1   
    13    5    6 1   
    14    5   43 1   
    15    5   44 1   
    16    6   34 1   
    17    6   45 1   
    18    6   46 1   
    19    7   34 1   
    20    7   36 1   
    21    7   47 1   
    22    7   48 1   
    23    8   49 1   
    24    8   50 1   
    25    8   51 1   
    26    9   31 ar  
    27    9   33 ar  
    28    9   52 1   
    29   10   11 1   
    30   10   53 1   
    31   10   54 1   
    32   11   21 1   
    33   11   55 1   
    34   11   56 1   
    35   12   14 ar  
    36   12   30 ar  
    37   12   57 1   
    38   13   16 ar  
    39   13   25 ar  
    40   13   58 1   
    41   14   31 ar  
    42   14   59 1   
    43   15   20 1   
    44   15   60 1   
    45   15   61 1   
    46   16   26 ar  
    47   16   62 1   
    48   17   18 2   
    49   18   19 2   
    50   18   22 1   
    51   20   21 1   
    52   20   63 1   
    53   20   64 1   
    54   22   23 1   
    55   22   28 2   
    56   23   24 1   
    57   24   25 ar  
    58   24   27 ar  
    59   25   65 1   
    60   26   27 ar  
    61   26   66 1   
    62   27   67 1   
    63   29   68 1   
    64   29   69 1   
    65   29   70 1   
    66   30   33 ar  
    67   31   32 1   
    68   33   71 1   
    69   34   35 1   
    70   34   72 1   
    71   35   73 1   
    72   36   37 1   
    73   36   38 1   
    74   36   74 1   
    75   37   75 1   
    76   38   39 1   
    77   38   76 1   
    78   38   77 1   
    79   39   40 1   
    80   39   41 1   
@<TRIPOS>SUBSTRUCTURE
     1 RID         1 TEMP              0 ****  ****    0 ROOT
