@<TRIPOS>MOLECULE
RIE
   73    72     1     0     0
SMALL
bcc


@<TRIPOS>ATOM
      1 N3         -0.2090   -0.5930    0.0930 na        1 RIE     -0.080000
      2 C4          0.8490   -1.4300    0.4430 c2        1 RIE      0.137000
      3 C5          1.1960   -1.1150    1.8050 c2        1 RIE     -0.223000
      4 C6          2.2140   -1.7530    2.4790 c1        1 RIE     -0.121000
      5 C7          1.5180   -2.4260   -0.4010 c3        1 RIE     -0.213000
      6 C8          2.0710   -2.9100   -3.2830 c1        1 RIE     -0.091000
      7 C10         4.5750   -2.6180   -3.5040 c3        1 RIE     -0.219000
      8 C13         4.4140    1.6230    4.0920 c3        1 RIE     -0.276000
      9 C15        -0.9780   -0.7870   -3.5590 ca        1 RIE     -0.162500
     10 C17        -3.0390    1.5610    6.3070 c2        1 RIE     -0.139000
     11 C20        -3.9800    2.6640    6.5570 c2        1 RIE     -0.102000
     12 C21        -2.3170   -0.3340   -1.1400 ca        1 RIE     -0.090000
     13 C24        -3.0280   -0.3110   -2.3330 ca        1 RIE     -0.162500
     14 C26        -1.4750    3.2810    5.3230 c3        1 RIE     -0.117000
     15 O2          0.9160    1.6970    3.6230 o         1 RIE     -0.364000
     16 N2         -0.6320    0.2180    4.4490 n         1 RIE     -0.325000
     17 C1         -0.6660    0.9120    5.7310 c3        1 RIE      0.059000
     18 C16        -0.6670   -0.0400    6.9290 c3        1 RIE     -0.221000
     19 C32        -1.8170    1.8890    5.8190 c2        1 RIE     -0.110000
     20 C23        -2.7350    3.9990    4.9320 c2        1 RIE     -0.107000
     21 C29        -3.7430    3.6790    5.7310 c1        1 RIE     -0.179000
     22 C14        -1.5130   -0.8990    4.2790 c3        1 RIE     -0.072000
     23 C2          0.2460   -0.0510    2.1550 c2        1 RIE     -0.110000
     24 C12         2.7170   -1.3990    3.7850 c3        1 RIE     -0.220000
     25 C27        -0.9280   -0.5830   -1.1440 ca        1 RIE      0.023000
     26 C18        -0.2620   -0.8050   -2.3660 ca        1 RIE     -0.090000
     27 C30        -2.3610   -0.5390   -3.5500 ca        1 RIE      0.089000
     28 F1         -3.0570   -0.5180   -4.7120 f         1 RIE     -0.108000
     29 N4         -0.5720    0.2270    1.1200 n2        1 RIE     -0.063000
     30 C9          3.1640   -2.0280   -3.6550 c3        1 RIE     -0.053000
     31 O4          3.0730   -0.8060   -2.9290 oh        1 RIE     -0.351000
     32 C11         4.6990   -3.7570   -4.4210 c1        1 RIE     -0.094000
     33 O3          4.4050    0.2180   -5.3240 oh        1 RIE     -0.447000
     34 C35         5.5080   -3.6430   -5.5960 c3        1 RIE     -0.309000
     35 C36         4.6150   -3.0910   -6.7830 c2        1 RIE      0.386000
     36 O6          4.0420   -1.9780   -6.6010 o         1 RIE     -0.549500
     37 O7          4.5770   -3.7730   -7.8270 o         1 RIE     -0.549500
     38 H6          3.3120    1.6060    3.9280 hc        1 RIE      0.069000
     39 H7          2.0460   -3.1570    0.2650 hc        1 RIE      0.138000
     40 H7A         2.2880   -1.9160   -1.0480 hc        1 RIE      0.138000
     41 H8          0.8090   -2.9610   -1.0840 hc        1 RIE      0.138000
     42 H8A         2.2180   -3.9600   -3.5820 ha        1 RIE      0.079000
     43 H10         4.7180   -2.9860   -2.4530 hc        1 RIE      0.080000
     44 H10A        5.3170   -1.7870   -3.6710 hc        1 RIE      0.080000
     45 H13         4.9280    1.2570    3.1770 hc        1 RIE      0.069000
     46 H13A        4.7420    2.6620    4.3110 hc        1 RIE      0.069000
     47 H13B        4.6710    0.9640    4.9490 hc        1 RIE      0.069000
     48 H15        -0.4570   -0.9700   -4.5110 ha        1 RIE      0.155500
     49 H21        -4.1090   -0.1160   -2.3310 ha        1 RIE      0.155500
     50 H24        -2.8580   -0.1480   -0.1990 ha        1 RIE      0.183000
     51 H26        -0.8790    3.8090    6.1120 hc        1 RIE      0.128000
     52 H1          0.2930    1.5220    5.7990 h1        1 RIE      0.130000
     53 H16         0.2470   -0.6810    6.9140 hc        1 RIE      0.082667
     54 H16A       -1.5640   -0.7030    6.9340 hc        1 RIE      0.082667
     55 H16B       -0.6670    0.5680    7.8650 hc        1 RIE      0.082667
     56 H23        -0.8250    3.1960    4.4060 hc        1 RIE      0.128000
     57 H29        -2.7730    4.5910    4.0150 ha        1 RIE      0.154000
     58 H14        -2.5370   -0.6320    4.6610 h1        1 RIE      0.083000
     59 H14A       -1.1310   -1.7820    4.8610 h1        1 RIE      0.083000
     60 H14B       -1.5990   -1.1950    3.2010 h1        1 RIE      0.083000
     61 H12         2.0990   -0.6740    4.3790 hc        1 RIE      0.087667
     62 H12A        2.8600   -2.3300    4.3910 hc        1 RIE      0.087667
     63 H12B        3.7300   -0.9310    3.6280 hc        1 RIE      0.087667
     64 H18         0.8300   -1.0170   -2.4150 ha        1 RIE      0.183000
     65 H9          2.9980   -1.8170   -4.7770 h1        1 RIE      0.192000
     66 HO4         3.5890   -0.1530   -3.4270 ho        1 RIE      0.231000
     67 H11         4.9930   -0.5410   -5.4400 ho        1 RIE      0.222000
     68 HO3         3.7390    0.0760   -6.0050 ho        1 RIE      0.222000
     69 H35         6.3670   -2.9230   -5.5240 hc        1 RIE      0.089000
     70 H35A        5.8910   -4.6440   -5.9220 hc        1 RIE      0.089000
     71 C3          0.2030    0.6890    3.4450 c2        1 RIE      0.394000
     72 H17        -3.3120    0.5480    6.6240 ha        1 RIE      0.134000
     73 H20        -4.6660    2.6310    7.4040 ha        1 RIE      0.149000
@<TRIPOS>BOND
     1    1    2 1   
     2    1   25 1   
     3    1   29 1   
     4    2    3 1   
     5    2    5 1   
     6    3    4 1   
     7    3   23 1   
     8    4   24 1   
     9    5   39 1   
    10    5   40 1   
    11    5   41 1   
    12    6   30 1   
    13    6   42 1   
    14    7   30 1   
    15    7   32 1   
    16    7   43 1   
    17    7   44 1   
    18    8   38 1   
    19    8   45 1   
    20    8   46 1   
    21    8   47 1   
    22    9   26 1   
    23    9   27 1   
    24    9   48 1   
    25   10   11 1   
    26   10   19 1   
    27   10   72 1   
    28   11   21 1   
    29   11   73 1   
    30   12   13 1   
    31   12   25 1   
    32   12   50 1   
    33   13   27 1   
    34   13   49 1   
    35   14   19 1   
    36   14   20 1   
    37   14   51 1   
    38   14   56 1   
    39   15   71 1   
    40   16   17 1   
    41   16   22 1   
    42   16   71 1   
    43   17   18 1   
    44   17   19 1   
    45   17   52 1   
    46   18   53 1   
    47   18   54 1   
    48   18   55 1   
    49   20   21 1   
    50   20   57 1   
    51   22   58 1   
    52   22   59 1   
    53   22   60 1   
    54   23   29 1   
    55   23   71 1   
    56   24   61 1   
    57   24   62 1   
    58   24   63 1   
    59   25   26 1   
    60   26   64 1   
    61   27   28 1   
    62   30   31 1   
    63   30   65 1   
    64   31   66 1   
    65   32   34 1   
    66   33   67 1   
    67   33   68 1   
    68   34   35 1   
    69   34   69 1   
    70   34   70 1   
    71   35   36 1   
    72   35   37 1   
@<TRIPOS>SUBSTRUCTURE
     1 RIE         1 TEMP              0 ****  ****    0 ROOT
