@<TRIPOS>MOLECULE
RIE
   73    75     1     0     0
SMALL
bcc


@<TRIPOS>ATOM
      1 N3         -0.5450    1.0920    1.2650 na        1 RIE      0.151300
      2 C4          0.1980   -0.1110    1.2770 cc        1 RIE     -0.066600
      3 C5         -0.7410   -1.1530    1.1230 cd        1 RIE     -0.206600
      4 C6         -0.4400   -2.5980    1.0850 c3        1 RIE      0.002600
      5 C7          1.6710   -0.2130    1.3740 c3        1 RIE     -0.024100
      6 C8          2.2950   -0.5310    0.0270 c3        1 RIE     -0.077400
      7 C10         4.4310   -1.0320   -1.1910 c3        1 RIE     -0.122400
      8 C13        -1.1070   -3.3330    2.2330 c3        1 RIE     -0.090600
      9 C15         1.2940    3.9810    2.7470 ca        1 RIE     -0.160000
     10 C17        -6.3440    0.2890   -1.9380 ca        1 RIE     -0.115000
     11 C20        -7.2680    1.3210   -2.1000 ca        1 RIE     -0.134500
     12 C21        -0.3060    3.4170    0.5120 ca        1 RIE     -0.094000
     13 C24         0.2030    4.6980    0.6880 ca        1 RIE     -0.160000
     14 C26        -7.1660   -0.0930    0.3000 ca        1 RIE     -0.115000
     15 O2         -3.9400   -1.6110    1.8640 o         1 RIE     -0.599100
     16 N2         -3.9360   -1.1260   -0.3870 n         1 RIE     -0.464800
     17 C1         -5.3150   -1.5690   -0.5400 c3        1 RIE      0.144000
     18 C16        -5.5010   -2.6060   -1.6510 c3        1 RIE     -0.100100
     19 C32        -6.2910   -0.4290   -0.7400 ca        1 RIE     -0.099300
     20 C23        -8.0900    0.9380    0.1360 ca        1 RIE     -0.134500
     21 C29        -8.1440    1.6450   -1.0650 ca        1 RIE     -0.129000
     22 C14        -3.2770   -0.5030   -1.4980 c3        1 RIE      0.079300
     23 C2         -2.0210   -0.4790    1.0160 cd        1 RIE      0.270800
     24 C12        -0.8360   -3.2100   -0.2460 c3        1 RIE     -0.090600
     25 C27        -0.0170    2.4050    1.4480 ca        1 RIE      0.006800
     26 C18         0.7780    2.7020    2.5740 ca        1 RIE     -0.094000
     27 C30         1.0080    4.9860    1.8050 ca        1 RIE      0.128900
     28 F1          1.5040    6.2340    1.9770 f         1 RIE     -0.138900
     29 N4         -1.8600    0.8720    1.1050 nc        1 RIE     -0.485800
     30 C9          3.7950   -0.7860    0.1720 c3        1 RIE      0.154100
     31 O4          3.9390   -1.9060    1.0370 oh        1 RIE     -0.637800
     32 C11         5.9500   -0.8590   -1.1610 c3        1 RIE      0.172100
     33 O3          6.4700   -1.9090   -0.3550 oh        1 RIE     -0.675800
     34 C35         6.5300   -0.8850   -2.5650 c3        1 RIE     -0.235400
     35 C36         8.0240   -0.5170   -2.5660 c         1 RIE      0.910600
     36 O6          8.7440   -0.9480   -1.6140 o         1 RIE     -0.844800
     37 O7          8.4610    0.1830   -3.5190 o         1 RIE     -0.844800
     38 H6          0.6810   -2.7190    1.1970 hc        1 RIE      0.070700
     39 H7          2.1220    0.7330    1.7760 hc        1 RIE      0.071700
     40 H7A         1.9260   -1.0390    2.0960 hc        1 RIE      0.071700
     41 H8          1.8080   -1.4420   -0.4090 hc        1 RIE      0.048700
     42 H8A         2.1400    0.3220   -0.6810 hc        1 RIE      0.048700
     43 H10         4.1850   -2.0710   -1.5290 hc        1 RIE      0.050200
     44 H10A        4.0100   -0.3080   -1.9340 hc        1 RIE      0.050200
     45 H13        -2.2150   -3.1920    2.2020 hc        1 RIE      0.037367
     46 H13A       -0.8780   -4.4240    2.1670 hc        1 RIE      0.037367
     47 H13B       -0.7290   -2.9470    3.2100 hc        1 RIE      0.037367
     48 H15         1.9240    4.2130    3.6170 ha        1 RIE      0.153000
     49 H21        -0.9410    3.2030   -0.3630 ha        1 RIE      0.156000
     50 H24        -0.0170    5.4900   -0.0430 ha        1 RIE      0.153000
     51 H26        -7.1170   -0.6390    1.2560 ha        1 RIE      0.136000
     52 H1         -5.5920   -2.0890    0.4340 h1        1 RIE      0.092700
     53 H16        -4.7780   -3.4470   -1.5280 hc        1 RIE      0.042367
     54 H16A       -6.5390   -3.0110   -1.5840 hc        1 RIE      0.042367
     55 H16B       -5.3640   -2.1610   -2.6650 hc        1 RIE      0.042367
     56 H23        -8.7730    1.1960    0.9580 ha        1 RIE      0.128500
     57 H29        -8.8720    2.4590   -1.1930 ha        1 RIE      0.127000
     58 H14        -2.1660   -0.6410   -1.4140 h1        1 RIE      0.043700
     59 H14A       -3.6190   -0.9810   -2.4550 h1        1 RIE      0.043700
     60 H14B       -3.5080    0.5960   -1.5430 h1        1 RIE      0.043700
     61 H12        -0.3150   -2.6870   -1.0830 hc        1 RIE      0.037367
     62 H12A       -0.5510   -4.2900   -0.2670 hc        1 RIE      0.037367
     63 H12B       -1.9380   -3.1300   -0.4050 hc        1 RIE      0.037367
     64 H18         0.9960    1.9260    3.3260 ha        1 RIE      0.156000
     65 H9          4.2830    0.1050    0.6640 h1        1 RIE      0.031700
     66 HO4         4.8480   -2.2250    0.9380 ho        1 RIE      0.442000
     67 H11         6.2090    0.1240   -0.6700 h1        1 RIE      0.028700
     68 HO3         7.4370   -1.9020   -0.4790 ho        1 RIE      0.467000
     69 H35         6.4270   -1.9120   -2.9950 hc        1 RIE      0.037200
     70 H35A        5.9750   -0.1690   -3.2190 hc        1 RIE      0.037200
     71 C3         -3.3640   -1.1050    0.8820 c         1 RIE      0.614600
     72 H17        -5.6500    0.0450   -2.7560 ha        1 RIE      0.136000
     73 H20        -7.3020    1.8810   -3.0460 ha        1 RIE      0.128500
@<TRIPOS>BOND
     1    1    2 1   
     2    1   25 1   
     3    1   29 1   
     4    2    3 2   
     5    2    5 1   
     6    3    4 1   
     7    3   23 1   
     8    4    8 1   
     9    4   24 1   
    10    4   38 1   
    11    5    6 1   
    12    5   39 1   
    13    5   40 1   
    14    6   30 1   
    15    6   41 1   
    16    6   42 1   
    17    7   30 1   
    18    7   32 1   
    19    7   43 1   
    20    7   44 1   
    21    8   45 1   
    22    8   46 1   
    23    8   47 1   
    24    9   26 ar  
    25    9   27 ar  
    26    9   48 1   
    27   10   11 ar  
    28   10   19 ar  
    29   10   72 1   
    30   11   21 ar  
    31   11   73 1   
    32   12   13 ar  
    33   12   25 ar  
    34   12   49 1   
    35   13   27 ar  
    36   13   50 1   
    37   14   19 ar  
    38   14   20 ar  
    39   14   51 1   
    40   15   71 2   
    41   16   17 1   
    42   16   22 1   
    43   16   71 1   
    44   17   18 1   
    45   17   19 1   
    46   17   52 1   
    47   18   53 1   
    48   18   54 1   
    49   18   55 1   
    50   20   21 ar  
    51   20   56 1   
    52   21   57 1   
    53   22   58 1   
    54   22   59 1   
    55   22   60 1   
    56   23   29 2   
    57   23   71 1   
    58   24   61 1   
    59   24   62 1   
    60   24   63 1   
    61   25   26 ar  
    62   26   64 1   
    63   27   28 1   
    64   30   31 1   
    65   30   65 1   
    66   31   66 1   
    67   32   33 1   
    68   32   34 1   
    69   32   67 1   
    70   33   68 1   
    71   34   35 1   
    72   34   69 1   
    73   34   70 1   
    74   35   36 1   
    75   35   37 1   
@<TRIPOS>SUBSTRUCTURE
     1 RIE         1 TEMP              0 ****  ****    0 ROOT
