@<TRIPOS>MOLECULE
RIL
   40    40     1     0     0
SMALL
bcc


@<TRIPOS>ATOM
      1 C1         -3.9500   -3.5420   -0.7850 c2        1 RIL     -0.253000
      2 C2         -3.3450   -2.3600   -0.8800 c2        1 RIL     -0.143200
      3 C5         -1.8950   -2.1460   -0.6560 c3        1 RIL     -0.059200
      4 C7         -1.6270   -0.8910    0.1520 c3        1 RIL     -0.066400
      5 C10        -0.1440   -0.6650    0.3350 c3        1 RIL     -0.070400
      6 C13         0.1690    0.5690    1.1260 c3        1 RIL     -0.340600
      7 P16         1.8550    0.6550    1.2890 p5        1 RIL      1.345600
      8 O20         2.4270   -0.6700    1.6070 o         1 RIL     -0.856000
      9 O21         2.3120    0.9860   -0.2900 os        1 RIL     -0.581200
     10 C23         2.3170    2.3160   -0.6820 c3        1 RIL      0.184400
     11 C24         3.7560    2.8000   -0.9170 c3        1 RIL      0.098100
     12 C27         4.4190    3.4280    0.3110 c3        1 RIL      0.098400
     13 O28         3.7470    3.8500   -1.9050 os        1 RIL     -0.454600
     14 C30         4.0890    5.0990   -1.3020 c3        1 RIL      0.345600
     15 O31         4.7470    4.7720   -0.0790 os        1 RIL     -0.459600
     16 C34         5.0640    5.8370   -2.2110 c3        1 RIL     -0.106600
     17 C38         2.8350    5.9220   -1.0280 c3        1 RIL     -0.106600
     18 O1          2.2110    1.8940    2.0250 o         1 RIL     -0.856000
     19 H11        -5.0230   -3.6690   -0.9710 ha        1 RIL      0.102000
     20 H12        -3.4160   -4.4620   -0.5140 ha        1 RIL      0.102000
     21 H2         -3.9130   -1.4530   -1.1480 ha        1 RIL      0.112000
     22 H51        -1.4380   -3.0290   -0.1340 hc        1 RIL      0.049700
     23 H52        -1.3870   -2.0570   -1.6550 hc        1 RIL      0.049700
     24 H71        -2.1210   -0.9770    1.1550 hc        1 RIL      0.029200
     25 H72        -2.0820   -0.0050   -0.3650 hc        1 RIL      0.029200
     26 H101        0.3270   -1.5440    0.8570 hc        1 RIL      0.062200
     27 H102        0.3610   -0.5760   -0.6650 hc        1 RIL      0.062200
     28 H131       -0.2340    1.4770    0.6190 hc        1 RIL      0.060200
     29 H132       -0.3160    0.5260    2.1310 hc        1 RIL      0.060200
     30 H231        1.7640    2.3990   -1.6620 h1        1 RIL      0.029200
     31 H232        1.8140    2.9660    0.0870 h1        1 RIL      0.029200
     32 H24         4.3690    1.9700   -1.3570 h1        1 RIL      0.075700
     33 H271        3.7400    3.4680    1.2040 h1        1 RIL      0.086700
     34 H272        5.3870    2.9360    0.5740 h1        1 RIL      0.086700
     35 H341        5.3660    6.7940   -1.7270 hc        1 RIL      0.042367
     36 H342        5.9700    5.2100   -2.3830 hc        1 RIL      0.042367
     37 H343        4.5710    6.0460   -3.1880 hc        1 RIL      0.042367
     38 H381        2.3260    6.1620   -1.9900 hc        1 RIL      0.042367
     39 H382        2.1390    5.3350   -0.3810 hc        1 RIL      0.042367
     40 H383        3.1140    6.8650   -0.5050 hc        1 RIL      0.042367
@<TRIPOS>BOND
     1    1    2 2   
     2    1   19 1   
     3    1   20 1   
     4    2    3 1   
     5    2   21 1   
     6    3    4 1   
     7    3   22 1   
     8    3   23 1   
     9    4    5 1   
    10    4   24 1   
    11    4   25 1   
    12    5    6 1   
    13    5   26 1   
    14    5   27 1   
    15    6    7 1   
    16    6   28 1   
    17    6   29 1   
    18    7    8 1   
    19    7    9 1   
    20    7   18 1   
    21    9   10 1   
    22   10   11 1   
    23   10   30 1   
    24   10   31 1   
    25   11   12 1   
    26   11   13 1   
    27   11   32 1   
    28   12   15 1   
    29   12   33 1   
    30   12   34 1   
    31   13   14 1   
    32   14   15 1   
    33   14   16 1   
    34   14   17 1   
    35   16   35 1   
    36   16   36 1   
    37   16   37 1   
    38   17   38 1   
    39   17   39 1   
    40   17   40 1   
@<TRIPOS>SUBSTRUCTURE
     1 RIL         1 TEMP              0 ****  ****    0 ROOT
