@<TRIPOS>MOLECULE
RIL
   40    38     1     0     0
SMALL
bcc


@<TRIPOS>ATOM
      1 C1         -5.6910    4.8160   -1.9010 c1        1 RIL     -0.195500
      2 C2         -5.2450    3.5650   -2.1300 c1        1 RIL     -0.195500
      3 C5         -4.8210    2.6890   -0.9720 c2        1 RIL     -0.142000
      4 C7         -3.8740    1.6200   -1.4680 c3        1 RIL     -0.144000
      5 C10        -3.1650    0.9870   -0.2910 c3        1 RIL     -0.150000
      6 C13        -2.0440    0.1040   -0.7920 c3        1 RIL     -0.818000
      7 P16        -1.2140   -0.6800    0.6190 p5        1 RIL      1.987000
      8 O20        -1.2050    0.2730    1.7910 o         1 RIL     -0.862500
      9 O21         0.2730   -1.0400    0.2220 os        1 RIL     -0.750000
     10 C23         1.0670   -1.7350    1.1550 c3        1 RIL      0.045000
     11 C24         2.5230   -1.9600    0.5500 c3        1 RIL     -0.015000
     12 C27         3.2250   -3.1720    1.2600 c3        1 RIL     -0.051000
     13 O28         3.2170   -1.0200    0.7850 os        1 RIL     -0.310000
     14 C30         4.6720   -1.5920    1.0040 c3        1 RIL      0.202000
     15 O31         4.5370   -2.6970    1.6310 os        1 RIL     -0.316000
     16 C34         5.3410   -1.8320   -0.3320 c3        1 RIL     -0.224500
     17 C38         5.4910   -0.6240    1.8290 c3        1 RIL     -0.224500
     18 O1         -1.9530   -1.9400    1.0010 o         1 RIL     -0.862500
     19 H11        -5.7400    5.1580   -0.9860 DU        1 RIL      0.107000
     20 H12        -5.9650    5.3830   -2.6500 ha        1 RIL      0.105500
     21 H2         -5.1960    3.2240   -3.0430 ha        1 RIL      0.105500
     22 H51        -5.6100    2.2680   -0.5760 ha        1 RIL      0.088000
     23 H52        -4.3710    3.2360   -0.2970 ha        1 RIL      0.088000
     24 H71        -4.3790    0.9350   -1.9510 hc        1 RIL      0.071500
     25 H72        -3.2140    2.0220   -2.0680 hc        1 RIL      0.071500
     26 H101       -3.8010    0.4480    0.2210 hc        1 RIL      0.095500
     27 H102       -2.7960    1.6890    0.2830 hc        1 RIL      0.095500
     28 H131       -2.4110   -0.5870   -1.3800 hc        1 RIL      0.106500
     29 H132       -1.3990    0.6460   -1.2900 hc        1 RIL      0.106500
     30 H231        0.6570   -2.6030    1.3500 h1        1 RIL      0.068500
     31 H232        1.1340   -1.2130    1.9810 h1        1 RIL      0.068500
     32 H24         2.4720   -2.1130   -0.4150 h1        1 RIL      0.107000
     33 H271        3.3010   -3.9270    0.6430 h1        1 RIL      0.124500
     34 H272        2.7230   -3.4340    2.0570 h1        1 RIL      0.124500
     35 H341        6.2860   -2.0490   -0.1890 hc        1 RIL      0.082000
     36 H342        4.9000   -2.5780   -0.7890 hc        1 RIL      0.082000
     37 H343        5.2720   -1.0240   -0.8820 hc        1 RIL      0.082000
     38 H381        6.4180   -0.9390    1.8770 hc        1 RIL      0.082000
     39 H382        5.4690    0.2620    1.4110 hc        1 RIL      0.082000
     40 H383        5.1180   -0.5690    2.7330 hc        1 RIL      0.082000
@<TRIPOS>BOND
     1    1    2 1   
     2    1   20 1   
     3    2   21 1   
     4    3    4 1   
     5    3   22 1   
     6    3   23 1   
     7    4    5 1   
     8    4   24 1   
     9    4   25 1   
    10    5    6 1   
    11    5   26 1   
    12    5   27 1   
    13    6    7 1   
    14    6   28 1   
    15    6   29 1   
    16    7    8 1   
    17    7    9 1   
    18    7   18 1   
    19    9   10 1   
    20   10   11 1   
    21   10   30 1   
    22   10   31 1   
    23   11   12 1   
    24   11   13 1   
    25   11   32 1   
    26   12   15 1   
    27   12   33 1   
    28   12   34 1   
    29   13   14 1   
    30   14   15 1   
    31   14   16 1   
    32   14   17 1   
    33   16   35 1   
    34   16   36 1   
    35   16   37 1   
    36   17   38 1   
    37   17   39 1   
    38   17   40 1   
@<TRIPOS>SUBSTRUCTURE
     1 RIL         1 TEMP              0 ****  ****    0 ROOT
