@<TRIPOS>MOLECULE
RIL
   40    40     1     0     0
SMALL
bcc


@<TRIPOS>ATOM
      1 C1         -1.0360    1.6780    0.5270 c2        1 RIL     -0.253000
      2 C2          0.1650    1.1120    0.4360 c2        1 RIL     -0.143200
      3 C5          1.1840    1.1400    1.5130 c3        1 RIL     -0.059200
      4 C7          2.5750    1.4060    0.9690 c3        1 RIL     -0.066400
      5 C10         3.6050    1.3890    2.0750 c3        1 RIL     -0.070400
      6 C13         4.9980    1.6440    1.5820 c3        1 RIL     -0.340600
      7 P16         6.0230    1.6450    2.9340 p5        1 RIL      1.345600
      8 O20         5.4190    2.3900    4.0580 o         1 RIL     -0.856000
      9 O21         5.9730    0.0280    3.3740 os        1 RIL     -0.581200
     10 C23         6.8640   -0.8270    2.7430 c3        1 RIL      0.184400
     11 C24         7.9240   -1.3250    3.7370 c3        1 RIL      0.098100
     12 C27         9.1890   -0.4660    3.7910 c3        1 RIL      0.098400
     13 O28         8.3840   -2.6280    3.3260 os        1 RIL     -0.454600
     14 C30         9.7380   -2.5560    2.8770 c3        1 RIL      0.345600
     15 O31        10.2640   -1.3470    3.4240 os        1 RIL     -0.459600
     16 C34        10.5110   -3.7380    3.4450 c3        1 RIL     -0.106600
     17 C38         9.7950   -2.5190    1.3540 c3        1 RIL     -0.106600
     18 O1          7.4230    1.8440    2.4830 o         1 RIL     -0.856000
     19 H11        -1.3650    2.2320    1.4160 ha        1 RIL      0.102000
     20 H12        -1.7720    1.6280   -0.2840 ha        1 RIL      0.102000
     21 H2          0.4680    0.5690   -0.4760 ha        1 RIL      0.112000
     22 H51         1.1780    0.1450    2.0380 hc        1 RIL      0.049700
     23 H52         0.9290    1.9180    2.2810 hc        1 RIL      0.049700
     24 H71         2.5920    2.4020    0.4540 hc        1 RIL      0.029200
     25 H72         2.8340    0.6310    0.2010 hc        1 RIL      0.029200
     26 H101        3.3620    2.1650    2.8520 hc        1 RIL      0.062200
     27 H102        3.5970    0.3940    2.5970 hc        1 RIL      0.062200
     28 H131        5.0540    2.6240    1.0520 hc        1 RIL      0.060200
     29 H132        5.3060    0.8660    0.8440 hc        1 RIL      0.060200
     30 H231        6.2900   -1.7270    2.3760 h1        1 RIL      0.029200
     31 H232        7.3620   -0.3200    1.8700 h1        1 RIL      0.029200
     32 H24         7.4600   -1.4680    4.7480 h1        1 RIL      0.075700
     33 H271        9.1670    0.3940    3.0700 h1        1 RIL      0.086700
     34 H272        9.4200   -0.1080    4.8240 h1        1 RIL      0.086700
     35 H341       10.4540   -3.7290    4.5590 hc        1 RIL      0.042367
     36 H342       10.0690   -4.6870    3.0630 hc        1 RIL      0.042367
     37 H343       11.5790   -3.6660    3.1320 hc        1 RIL      0.042367
     38 H381       10.8530   -2.4020    1.0220 hc        1 RIL      0.042367
     39 H382        9.3730   -3.4630    0.9400 hc        1 RIL      0.042367
     40 H383        9.1960   -1.6540    0.9800 hc        1 RIL      0.042367
@<TRIPOS>BOND
     1    1    2 2   
     2    1   19 1   
     3    1   20 1   
     4    2    3 1   
     5    2   21 1   
     6    3    4 1   
     7    3   22 1   
     8    3   23 1   
     9    4    5 1   
    10    4   24 1   
    11    4   25 1   
    12    5    6 1   
    13    5   26 1   
    14    5   27 1   
    15    6    7 1   
    16    6   28 1   
    17    6   29 1   
    18    7    8 1   
    19    7    9 1   
    20    7   18 1   
    21    9   10 1   
    22   10   11 1   
    23   10   30 1   
    24   10   31 1   
    25   11   12 1   
    26   11   13 1   
    27   11   32 1   
    28   12   15 1   
    29   12   33 1   
    30   12   34 1   
    31   13   14 1   
    32   14   15 1   
    33   14   16 1   
    34   14   17 1   
    35   16   35 1   
    36   16   36 1   
    37   16   37 1   
    38   17   38 1   
    39   17   39 1   
    40   17   40 1   
@<TRIPOS>SUBSTRUCTURE
     1 RIL         1 TEMP              0 ****  ****    0 ROOT
