@<TRIPOS>MOLECULE
RIL
   40    40     1     0     0
SMALL
bcc


@<TRIPOS>ATOM
      1 C1         -0.9300    0.6940    0.6730 c2        1 RIL     -0.254000
      2 C2          0.1290    1.5000    0.6720 c2        1 RIL     -0.142200
      3 C5          1.2210    1.4440    1.6740 c3        1 RIL     -0.059200
      4 C7          2.5870    1.5890    1.0320 c3        1 RIL     -0.066400
      5 C10         3.6830    1.5800    2.0720 c3        1 RIL     -0.071400
      6 C13         5.0540    1.7210    1.4810 c3        1 RIL     -0.340600
      7 P16         6.1590    1.7720    2.7670 p5        1 RIL      1.345600
      8 O20         5.6670    2.6400    3.8560 o         1 RIL     -0.856000
      9 O21         6.0510    0.2020    3.3440 os        1 RIL     -0.581200
     10 C23         6.8550   -0.7520    2.7390 c3        1 RIL      0.184400
     11 C24         7.9470   -1.2270    3.7090 c3        1 RIL      0.097100
     12 C27         9.2570   -0.4420    3.6160 c3        1 RIL      0.098400
     13 O28         8.3110   -2.5840    3.3860 os        1 RIL     -0.454600
     14 C30         9.6360   -2.6280    2.8550 c3        1 RIL      0.345600
     15 O31        10.2580   -1.4110    3.2650 os        1 RIL     -0.459600
     16 C34        10.3800   -3.8020    3.4770 c3        1 RIL     -0.106600
     17 C38         9.6000   -2.7200    1.3340 c3        1 RIL     -0.106600
     18 O1          7.5370    1.8520    2.2210 o         1 RIL     -0.856000
     19 H11        -1.0720   -0.0970    1.4200 ha        1 RIL      0.102000
     20 H12        -1.7270    0.7710   -0.0760 ha        1 RIL      0.102000
     21 H2          0.2460    2.2820   -0.0990 ha        1 RIL      0.112000
     22 H51         1.1810    0.4830    2.2520 hc        1 RIL      0.049200
     23 H52         1.0720    2.2790    2.4140 hc        1 RIL      0.049200
     24 H71         2.6300    2.5470    0.4500 hc        1 RIL      0.029200
     25 H72         2.7500    0.7530    0.3030 hc        1 RIL      0.029200
     26 H101        3.5330    2.4170    2.8090 hc        1 RIL      0.062200
     27 H102        3.6530    0.6220    2.6590 hc        1 RIL      0.062200
     28 H131        5.1250    2.6540    0.8720 hc        1 RIL      0.060200
     29 H132        5.2770    0.8740    0.7900 hc        1 RIL      0.060200
     30 H231        7.3240   -0.3480    1.7990 h1        1 RIL      0.029200
     31 H232        6.2130   -1.6450    2.4840 h1        1 RIL      0.029200
     32 H24         7.5400   -1.2590    4.7540 h1        1 RIL      0.075700
     33 H271        9.5700   -0.0140    4.6010 h1        1 RIL      0.086700
     34 H272        9.2360    0.3560    2.8270 h1        1 RIL      0.086700
     35 H341       11.4270   -3.8180    3.0970 hc        1 RIL      0.042367
     36 H342       10.3930   -3.6990    4.5870 hc        1 RIL      0.042367
     37 H343        9.8650   -4.7520    3.2040 hc        1 RIL      0.042367
     38 H381       10.6390   -2.6930    0.9330 hc        1 RIL      0.042367
     39 H382        9.1030   -3.6690    1.0270 hc        1 RIL      0.042367
     40 H383        9.0250   -1.8550    0.9220 hc        1 RIL      0.042367
@<TRIPOS>BOND
     1    1    2 2   
     2    1   19 1   
     3    1   20 1   
     4    2    3 1   
     5    2   21 1   
     6    3    4 1   
     7    3   22 1   
     8    3   23 1   
     9    4    5 1   
    10    4   24 1   
    11    4   25 1   
    12    5    6 1   
    13    5   26 1   
    14    5   27 1   
    15    6    7 1   
    16    6   28 1   
    17    6   29 1   
    18    7    8 1   
    19    7    9 1   
    20    7   18 1   
    21    9   10 1   
    22   10   11 1   
    23   10   30 1   
    24   10   31 1   
    25   11   12 1   
    26   11   13 1   
    27   11   32 1   
    28   12   15 1   
    29   12   33 1   
    30   12   34 1   
    31   13   14 1   
    32   14   15 1   
    33   14   16 1   
    34   14   17 1   
    35   16   35 1   
    36   16   36 1   
    37   16   37 1   
    38   17   38 1   
    39   17   39 1   
    40   17   40 1   
@<TRIPOS>SUBSTRUCTURE
     1 RIL         1 TEMP              0 ****  ****    0 ROOT
