@<TRIPOS>MOLECULE
RIM
   35    37     1     0     0
SMALL
bcc


@<TRIPOS>ATOM
      1 CA          0.0040    0.1630   -0.0630 c3        1 RIM     -0.137100
      2 CB          1.5130   -0.0150    0.0180 c3        1 RIM      0.134500
      3 NC          1.9560    0.0430    1.4620 n4        1 RIM     -0.845600
      4 CD          2.0290   -1.2990   -0.6760 c3        1 RIM     -0.072000
      5 CE1         1.4950   -1.3040   -2.1180 c3        1 RIM     -0.073067
      6 CE2         3.5640   -1.2770   -0.7260 c3        1 RIM     -0.073067
      7 CE3         1.5710   -2.5800    0.0260 c3        1 RIM     -0.073067
      8 CF1         2.0220   -2.5220   -2.8680 c3        1 RIM     -0.060033
      9 CF2         4.0820   -2.5000   -1.4780 c3        1 RIM     -0.060033
     10 CF3         2.0920   -3.8000   -0.7330 c3        1 RIM     -0.060033
     11 CG1         3.5440   -2.4860   -2.9040 c3        1 RIM     -0.077400
     12 CG2         3.6160   -3.7660   -0.7670 c3        1 RIM     -0.077400
     13 CG3         1.5530   -3.7890   -2.1590 c3        1 RIM     -0.077400
     14 HA1        -0.5400   -0.7550    0.2670 hc        1 RIM      0.080367
     15 HA2        -0.3440    1.0330    0.5470 hc        1 RIM      0.080367
     16 HA3        -0.2710    0.3730   -1.1290 hc        1 RIM      0.080367
     17 HB          2.0130    0.8700   -0.4870 hx        1 RIM      0.104700
     18 HNC1        2.9770   -0.0200    1.5130 hn        1 RIM      0.457467
     19 HNC2        1.5480   -0.7440    1.9760 hn        1 RIM      0.457467
     20 HE11        0.3750   -1.3450   -2.1090 hc        1 RIM      0.042367
     21 HE12        1.8130   -0.3660   -2.6400 hc        1 RIM      0.042367
     22 HE21        3.9990   -1.2960    0.3070 hc        1 RIM      0.042367
     23 HE22        3.9140   -0.3440   -1.2390 hc        1 RIM      0.042367
     24 HE31        0.4520   -2.6180    0.0660 hc        1 RIM      0.042367
     25 HE32        1.9650   -2.6240    1.0740 hc        1 RIM      0.042367
     26 HF1         1.6190   -2.5060   -3.9160 hc        1 RIM      0.074700
     27 HF2         5.2040   -2.4680   -1.4980 hc        1 RIM      0.074700
     28 HF3         1.7470   -4.7300   -0.2070 hc        1 RIM      0.074700
     29 HG11        3.8940   -1.5650   -3.4380 hc        1 RIM      0.059367
     30 HG12        3.9320   -3.3760   -3.4630 hc        1 RIM      0.059367
     31 HG21        4.0020   -4.6670   -1.3100 hc        1 RIM      0.059367
     32 HG22        4.0260   -3.7950    0.2750 hc        1 RIM      0.059367
     33 HG31        1.9250   -4.6910   -2.7100 hc        1 RIM      0.059367
     34 HG32        0.4340   -3.8300   -2.1470 hc        1 RIM      0.059367
     35 HC3         1.6430    0.9190    1.8870 hn        1 RIM      0.457467
@<TRIPOS>BOND
     1    1    2 1   
     2    1   14 1   
     3    1   15 1   
     4    1   16 1   
     5    2    3 1   
     6    2    4 1   
     7    2   17 1   
     8    3   18 1   
     9    3   19 1   
    10    3   35 1   
    11    4    5 1   
    12    4    6 1   
    13    4    7 1   
    14    5    8 1   
    15    5   20 1   
    16    5   21 1   
    17    6    9 1   
    18    6   22 1   
    19    6   23 1   
    20    7   10 1   
    21    7   24 1   
    22    7   25 1   
    23    8   11 1   
    24    8   13 1   
    25    8   26 1   
    26    9   11 1   
    27    9   12 1   
    28    9   27 1   
    29   10   12 1   
    30   10   13 1   
    31   10   28 1   
    32   11   29 1   
    33   11   30 1   
    34   12   31 1   
    35   12   32 1   
    36   13   33 1   
    37   13   34 1   
@<TRIPOS>SUBSTRUCTURE
     1 RIM         1 TEMP              0 ****  ****    0 ROOT
