@<TRIPOS>MOLECULE
RIM
   35    37     1     0     0
SMALL
bcc


@<TRIPOS>ATOM
      1 CA          0.0090    0.1680   -0.0620 c3        1 RIM     -0.137100
      2 CB          1.5180   -0.0100    0.0120 c3        1 RIM      0.134500
      3 NC          1.9690    0.0560    1.4520 nz        1 RIM     -0.845600
      4 CD          2.0300   -1.2980   -0.6780 c3        1 RIM     -0.072000
      5 CE1         1.4880   -1.3110   -2.1170 c3        1 RIM     -0.073067
      6 CE2         3.5650   -1.2760   -0.7370 c3        1 RIM     -0.073067
      7 CE3         1.5760   -2.5750    0.0330 c3        1 RIM     -0.073067
      8 CF1         2.0110   -2.5330   -2.8630 c3        1 RIM     -0.060033
      9 CF2         4.0780   -2.5030   -1.4850 c3        1 RIM     -0.060033
     10 CF3         2.0940   -3.7990   -0.7220 c3        1 RIM     -0.060033
     11 CG1         3.5330   -2.4970   -2.9080 c3        1 RIM     -0.077400
     12 CG2         3.6170   -3.7650   -0.7640 c3        1 RIM     -0.077400
     13 CG3         1.5460   -3.7960   -2.1450 c3        1 RIM     -0.077400
     14 HA1        -0.2730    0.3720   -1.1270 hc        1 RIM      0.080367
     15 HA2        -0.3360    1.0410    0.5460 hc        1 RIM      0.080367
     16 HA3        -0.5330   -0.7480    0.2760 hc        1 RIM      0.080367
     17 HB          2.0150    0.8720   -0.5010 hx        1 RIM      0.104700
     18 HNC1        1.6590    0.9350    1.8740 hn        1 RIM      0.457467
     19 HNC2        2.9910   -0.0060    1.4980 hn        1 RIM      0.457467
     20 HE11        0.3680   -1.3520   -2.1010 hc        1 RIM      0.042367
     21 HE12        1.8030   -0.3760   -2.6470 hc        1 RIM      0.042367
     22 HE21        3.9120   -0.3460   -1.2570 hc        1 RIM      0.042367
     23 HE22        4.0050   -1.2890    0.2940 hc        1 RIM      0.042367
     24 HE31        0.4580   -2.6130    0.0800 hc        1 RIM      0.042367
     25 HE32        1.9760   -2.6130    1.0790 hc        1 RIM      0.042367
     26 HF1         1.6020   -2.5230   -3.9090 hc        1 RIM      0.074700
     27 HF2         5.2010   -2.4720   -1.5120 hc        1 RIM      0.074700
     28 HF3         1.7510   -4.7260   -0.1890 hc        1 RIM      0.074700
     29 HG11        3.8800   -1.5790   -3.4490 hc        1 RIM      0.059367
     30 HG12        3.9180   -3.3900   -3.4650 hc        1 RIM      0.059367
     31 HG21        3.9990   -4.6690   -1.3050 hc        1 RIM      0.059367
     32 HG22        4.0320   -3.7880    0.2760 hc        1 RIM      0.059367
     33 HG31        0.4270   -3.8370   -2.1260 hc        1 RIM      0.059367
     34 HG32        1.9150   -4.7010   -2.6920 hc        1 RIM      0.059367
     35 HC3         1.5640   -0.7280    1.9740 hn        1 RIM      0.457467
@<TRIPOS>BOND
     1    1    2 1   
     2    1   14 1   
     3    1   15 1   
     4    1   16 1   
     5    2    3 1   
     6    2    4 1   
     7    2   17 1   
     8    3   18 1   
     9    3   19 1   
    10    3   35 1   
    11    4    5 1   
    12    4    6 1   
    13    4    7 1   
    14    5    8 1   
    15    5   20 1   
    16    5   21 1   
    17    6    9 1   
    18    6   22 1   
    19    6   23 1   
    20    7   10 1   
    21    7   24 1   
    22    7   25 1   
    23    8   11 1   
    24    8   13 1   
    25    8   26 1   
    26    9   11 1   
    27    9   12 1   
    28    9   27 1   
    29   10   12 1   
    30   10   13 1   
    31   10   28 1   
    32   11   29 1   
    33   11   30 1   
    34   12   31 1   
    35   12   32 1   
    36   13   33 1   
    37   13   34 1   
@<TRIPOS>SUBSTRUCTURE
     1 RIM         1 TEMP              0 ****  ****    0 ROOT
