@<TRIPOS>MOLECULE
RIM
   34    36     1     0     0
SMALL
bcc


@<TRIPOS>ATOM
      1 CA         -2.8670    1.2770   -0.0470 c3        1 RIM     -0.133100
      2 CB         -2.2070   -0.0260    0.4150 c3        1 RIM      0.170500
      3 NC         -2.8530   -1.2230   -0.0980 n3        1 RIM     -0.903800
      4 CD         -0.6770   -0.0160    0.1540 c3        1 RIM     -0.037000
      5 CE1        -0.0650    1.2500    0.7690 c3        1 RIM     -0.064400
      6 CE2        -0.0450   -1.2390    0.8330 c3        1 RIM     -0.064400
      7 CE3        -0.3290   -0.0510   -1.3360 c3        1 RIM     -0.064400
      8 CF1         1.4480    1.2540    0.5870 c3        1 RIM     -0.062700
      9 CF2         1.4680   -1.2310    0.6440 c3        1 RIM     -0.062700
     10 CF3         1.1870   -0.0380   -1.5230 c3        1 RIM     -0.062700
     11 CG1         2.0540    0.0310    1.2660 c3        1 RIM     -0.069400
     12 CG2         1.7930   -1.2630   -0.8460 c3        1 RIM     -0.069400
     13 CG3         1.7740    1.2240   -0.9030 c3        1 RIM     -0.069400
     14 HA1        -2.6130    1.5070   -1.1080 hc        1 RIM      0.036700
     15 HA2        -3.9790    1.2070    0.0410 hc        1 RIM      0.036700
     16 HA3        -2.5310    2.1270    0.5940 hc        1 RIM      0.036700
     17 HB         -2.3310   -0.0740    1.5420 h1        1 RIM      0.054700
     18 HNC1       -3.8390   -1.1740    0.0710 hn        1 RIM      0.344300
     19 HNC2       -2.7010   -1.3150   -1.0830 hn        1 RIM      0.344300
     20 HE11       -0.4870    2.1600    0.2710 hc        1 RIM      0.043200
     21 HE12       -0.3180    1.2970    1.8590 hc        1 RIM      0.043200
     22 HE21       -0.2890   -1.2260    1.9260 hc        1 RIM      0.043200
     23 HE22       -0.4660   -2.1810    0.3980 hc        1 RIM      0.043200
     24 HE31       -0.7390   -0.9780   -1.8120 hc        1 RIM      0.043200
     25 HE32       -0.7760    0.8350   -1.8550 hc        1 RIM      0.043200
     26 HF1         1.8740    2.1860    1.0450 hc        1 RIM      0.046700
     27 HF2         1.9090   -2.1340    1.1430 hc        1 RIM      0.046700
     28 HF3         1.4230   -0.0610   -2.6200 hc        1 RIM      0.046700
     29 HG11        3.1670    0.0380    1.1410 hc        1 RIM      0.039700
     30 HG12        1.8290    0.0550    2.3630 hc        1 RIM      0.039700
     31 HG21        2.9030   -1.2680   -0.9940 hc        1 RIM      0.039700
     32 HG22        1.3780   -2.1960   -1.3050 hc        1 RIM      0.039700
     33 HG31        1.3460    2.1300   -1.4040 hc        1 RIM      0.039700
     34 HG32        2.8840    1.2400   -1.0510 hc        1 RIM      0.039700
@<TRIPOS>BOND
     1    1    2 1   
     2    1   14 1   
     3    1   15 1   
     4    1   16 1   
     5    2    3 1   
     6    2    4 1   
     7    2   17 1   
     8    3   18 1   
     9    3   19 1   
    10    4    5 1   
    11    4    6 1   
    12    4    7 1   
    13    5    8 1   
    14    5   20 1   
    15    5   21 1   
    16    6    9 1   
    17    6   22 1   
    18    6   23 1   
    19    7   10 1   
    20    7   24 1   
    21    7   25 1   
    22    8   11 1   
    23    8   13 1   
    24    8   26 1   
    25    9   11 1   
    26    9   12 1   
    27    9   27 1   
    28   10   12 1   
    29   10   13 1   
    30   10   28 1   
    31   11   29 1   
    32   11   30 1   
    33   12   31 1   
    34   12   32 1   
    35   13   33 1   
    36   13   34 1   
@<TRIPOS>SUBSTRUCTURE
     1 RIM         1 TEMP              0 ****  ****    0 ROOT
