@<TRIPOS>MOLECULE
RIN
   41    41     1     0     0
SMALL
bcc


@<TRIPOS>ATOM
      1 N          -0.0630    0.5610   -0.0750 n4        1 RIN     -0.840600
      2 CA          1.1750   -0.2750    0.0980 c3        1 RIN      0.058500
      3 CB          1.9310    0.0770    1.3920 c3        1 RIN     -0.129400
      4 CG          3.4220    0.1990    1.1240 c3        1 RIN     -0.088400
      5 CD          4.2260    0.2600    2.4140 c3        1 RIN     -0.088400
      6 CE          5.1300   -0.9420    2.5990 c3        1 RIN     -0.099400
      7 CZ          4.3880   -2.1580    3.1150 c3        1 RIN     -0.064400
      8 C5          5.0980   -3.4640    2.8120 c3        1 RIN     -0.097400
      9 C4          4.4380   -4.2780    1.7180 c3        1 RIN     -0.085400
     10 C3          4.7250   -3.7390    0.3300 c3        1 RIN     -0.115400
     11 C2          3.7070   -4.1780   -0.7010 c3        1 RIN     -0.117400
     12 C1          2.6320   -3.1340   -0.9780 c3        1 RIN      0.119800
     13 N1          1.8860   -2.7580    0.2800 n4        1 RIN     -0.668800
     14 C           0.8100   -1.7670    0.0410 c         1 RIN      0.506100
     15 O          -0.3170   -2.1840   -0.1980 o         1 RIN     -0.381100
     16 H           0.2130    1.5470   -0.1980 hn        1 RIN      0.490467
     17 HN2        -0.6020    0.2530   -0.8970 hn        1 RIN      0.490467
     18 HA          1.8420   -0.0540   -0.8010 hx        1 RIN      0.158700
     19 HB1         1.7250   -0.6880    2.1870 hc        1 RIN      0.101200
     20 HB2         1.5770    1.0600    1.8150 hc        1 RIN      0.101200
     21 HG1         3.6090    1.1330    0.5280 hc        1 RIN      0.053700
     22 HG2         3.7750   -0.6600    0.4920 hc        1 RIN      0.053700
     23 HD1         3.5480    0.3620    3.3010 hc        1 RIN      0.077700
     24 HD2         4.8660    1.1850    2.3880 hc        1 RIN      0.077700
     25 HE1         5.9350   -0.6740    3.3380 hc        1 RIN      0.072700
     26 HE2         5.6550   -1.1740    1.6340 hc        1 RIN      0.072700
     27 HZ1         4.2620   -2.0560    4.2270 hc        1 RIN      0.018200
     28 HZ2         3.3460   -2.1750    2.6890 hc        1 RIN      0.018200
     29 H51         6.1690   -3.2680    2.5380 hc        1 RIN      0.081700
     30 H52         5.1160   -4.0900    3.7470 hc        1 RIN      0.081700
     31 H41         4.8190   -5.3350    1.7790 hc        1 RIN      0.043200
     32 H42         3.3330   -4.3360    1.9080 hc        1 RIN      0.043200
     33 H31         4.7990   -2.6180    0.3510 hc        1 RIN      0.070200
     34 H32         5.7400   -4.1100    0.0130 hc        1 RIN      0.070200
     35 H21         4.2180   -4.3530   -1.6920 hc        1 RIN      0.109700
     36 H22         3.2420   -5.1560   -0.4030 hc        1 RIN      0.109700
     37 H11         1.8800   -3.5370   -1.7170 hx        1 RIN      0.109700
     38 H12         3.1000   -2.1920   -1.3840 hx        1 RIN      0.109700
     39 HN1         1.4640   -3.6230    0.6670 hn        1 RIN      0.494800
     40 HN3        -0.6660    0.4890    0.7570 hn        1 RIN      0.490467
     41 H121        2.5750   -2.4020    0.9720 hn        1 RIN      0.494800
@<TRIPOS>BOND
     1    1    2 1   
     2    1   16 1   
     3    1   17 1   
     4    1   40 1   
     5    2    3 1   
     6    2   14 1   
     7    2   18 1   
     8    3    4 1   
     9    3   19 1   
    10    3   20 1   
    11    4    5 1   
    12    4   21 1   
    13    4   22 1   
    14    5    6 1   
    15    5   23 1   
    16    5   24 1   
    17    6    7 1   
    18    6   25 1   
    19    6   26 1   
    20    7    8 1   
    21    7   27 1   
    22    7   28 1   
    23    8    9 1   
    24    8   29 1   
    25    8   30 1   
    26    9   10 1   
    27    9   31 1   
    28    9   32 1   
    29   10   11 1   
    30   10   33 1   
    31   10   34 1   
    32   11   12 1   
    33   11   35 1   
    34   11   36 1   
    35   12   13 1   
    36   12   37 1   
    37   12   38 1   
    38   13   14 1   
    39   13   39 1   
    40   13   41 1   
    41   14   15 2   
@<TRIPOS>SUBSTRUCTURE
     1 RIN         1 TEMP              0 ****  ****    0 ROOT
