@<TRIPOS>MOLECULE
RIN
   41    41     1     0     0
SMALL
bcc


@<TRIPOS>ATOM
      1 N          -0.0840    0.5380   -0.0640 nz        1 RIN     -0.840600
      2 CA          1.1620   -0.2870    0.1050 c3        1 RIN      0.058500
      3 CB          1.9070    0.0580    1.4090 c3        1 RIN     -0.129400
      4 CG          3.3970    0.2010    1.1510 c3        1 RIN     -0.088400
      5 CD          4.1930    0.2550    2.4460 c3        1 RIN     -0.088400
      6 CE          5.1110   -0.9390    2.6210 c3        1 RIN     -0.099400
      7 CZ          4.3790   -2.1700    3.1180 c3        1 RIN     -0.064400
      8 C5          5.1070   -3.4630    2.8030 c3        1 RIN     -0.097400
      9 C4          4.4630   -4.2710    1.6940 c3        1 RIN     -0.085400
     10 C3          4.7520   -3.7100    0.3150 c3        1 RIN     -0.115400
     11 C2          3.7450   -4.1490   -0.7280 c3        1 RIN     -0.117400
     12 C1          2.6600   -3.1140   -0.9980 c3        1 RIN      0.119800
     13 N1          1.9020   -2.7630    0.2600 ny        1 RIN     -0.668800
     14 C           0.8160   -1.7820    0.0270 c         1 RIN      0.506100
     15 O          -0.3050   -2.2080   -0.2240 o         1 RIN     -0.381100
     16 H           0.1810    1.5280   -0.1730 hn        1 RIN      0.490467
     17 HN2        -0.6150    0.2330   -0.8930 hn        1 RIN      0.490467
     18 HA          1.8320   -0.0460   -0.7860 hx        1 RIN      0.158700
     19 HB1         1.7050   -0.7200    2.1930 hc        1 RIN      0.101200
     20 HB2         1.5390    1.0320    1.8420 hc        1 RIN      0.101200
     21 HG1         3.5770    1.1450    0.5680 hc        1 RIN      0.053200
     22 HG2         3.7640   -0.6460    0.5110 hc        1 RIN      0.053200
     23 HD1         3.5080    0.3370    3.3310 hc        1 RIN      0.077700
     24 HD2         4.8220    1.1870    2.4370 hc        1 RIN      0.077700
     25 HE1         5.6440   -1.1520    1.6570 hc        1 RIN      0.072700
     26 HE2         5.9080   -0.6710    3.3690 hc        1 RIN      0.072700
     27 HZ1         3.3410   -2.1940    2.6860 hc        1 RIN      0.018200
     28 HZ2         4.2460   -2.0840    4.2310 hc        1 RIN      0.018200
     29 H51         6.1770   -3.2510    2.5380 hc        1 RIN      0.081700
     30 H52         5.1270   -4.1010    3.7290 hc        1 RIN      0.081700
     31 H41         3.3580   -4.3450    1.8770 hc        1 RIN      0.043200
     32 H42         4.8570   -5.3240    1.7440 hc        1 RIN      0.043200
     33 H31         5.7730   -4.0660   -0.0000 hc        1 RIN      0.070200
     34 H32         4.8120   -2.5900    0.3510 hc        1 RIN      0.070200
     35 H21         4.2640   -4.3050   -1.7180 hc        1 RIN      0.109700
     36 H22         3.2900   -5.1360   -0.4450 hc        1 RIN      0.109700
     37 H11         3.1190   -2.1620   -1.3890 hx        1 RIN      0.109700
     38 H12         1.9170   -3.5160   -1.7470 hx        1 RIN      0.109700
     39 HN1         2.5820   -2.4080    0.9610 hn        1 RIN      0.494800
     40 HN3        -0.6920    0.4480    0.7630 hn        1 RIN      0.490467
     41 H121        1.4880   -3.6380    0.6340 hn        1 RIN      0.494800
@<TRIPOS>BOND
     1    1    2 1   
     2    1   16 1   
     3    1   17 1   
     4    1   40 1   
     5    2    3 1   
     6    2   14 1   
     7    2   18 1   
     8    3    4 1   
     9    3   19 1   
    10    3   20 1   
    11    4    5 1   
    12    4   21 1   
    13    4   22 1   
    14    5    6 1   
    15    5   23 1   
    16    5   24 1   
    17    6    7 1   
    18    6   25 1   
    19    6   26 1   
    20    7    8 1   
    21    7   27 1   
    22    7   28 1   
    23    8    9 1   
    24    8   29 1   
    25    8   30 1   
    26    9   10 1   
    27    9   31 1   
    28    9   32 1   
    29   10   11 1   
    30   10   33 1   
    31   10   34 1   
    32   11   12 1   
    33   11   35 1   
    34   11   36 1   
    35   12   13 1   
    36   12   37 1   
    37   12   38 1   
    38   13   14 1   
    39   13   39 1   
    40   13   41 1   
    41   14   15 2   
@<TRIPOS>SUBSTRUCTURE
     1 RIN         1 TEMP              0 ****  ****    0 ROOT
