@<TRIPOS>MOLECULE
RIN
   39    39     1     0     0
SMALL
bcc


@<TRIPOS>ATOM
      1 N          -4.1820    0.1170   -0.2230 n3        1 RIN     -0.889800
      2 CA         -2.7650    0.1170   -0.2230 c3        1 RIN      0.110500
      3 CB         -2.2630    0.1170    1.1950 c3        1 RIN     -0.087400
      4 CG         -1.4420    1.4160    1.4600 c3        1 RIN     -0.088400
      5 CD         -0.1580    1.0650    2.2790 c3        1 RIN     -0.080400
      6 CE          1.0620    1.8430    1.6990 c3        1 RIN     -0.080400
      7 CZ          2.1890    0.8310    1.3010 c3        1 RIN     -0.080400
      8 C5          2.4460    0.9150   -0.2280 c3        1 RIN     -0.082400
      9 C4          3.1280   -0.3950   -0.7190 c3        1 RIN     -0.079400
     10 C3          2.0520   -1.5070   -0.8990 c3        1 RIN     -0.082400
     11 C2          1.2130   -1.2200   -2.1650 c3        1 RIN     -0.104400
     12 C1         -0.2350   -1.7900   -1.9740 c3        1 RIN      0.083000
     13 N1         -0.8230   -1.2300   -0.7720 n         1 RIN     -0.560900
     14 C          -2.2620   -1.1220   -0.9370 c         1 RIN      0.606100
     15 O          -2.7830   -1.4790   -1.9730 o         1 RIN     -0.629100
     16 H          -4.4860    0.9770   -0.2210 hn        1 RIN      0.361800
     17 HN2        -4.4860   -0.3110   -0.9690 hn        1 RIN      0.361800
     18 HA         -2.4390    0.9130   -0.6840 h1        1 RIN      0.080700
     19 HB1        -3.0220    0.0820    1.8080 hc        1 RIN      0.058200
     20 HB2        -1.6930   -0.6630    1.3380 hc        1 RIN      0.058200
     21 HG1        -1.1840    1.8170    0.6080 hc        1 RIN      0.045200
     22 HG2        -1.9870    2.0480    1.9660 hc        1 RIN      0.045200
     23 HD1        -0.2900    1.3170    3.2130 hc        1 RIN      0.040200
     24 HD2         0.0110    0.1050    2.2220 hc        1 RIN      0.040200
     25 HE1         1.4030    2.4620    2.3720 hc        1 RIN      0.043200
     26 HE2         0.7820    2.3450    0.9090 hc        1 RIN      0.043200
     27 HZ1         1.9110   -0.0750    1.5340 hc        1 RIN      0.041200
     28 HZ2         3.0100    1.0530    1.7810 hc        1 RIN      0.041200
     29 H51         3.0280    1.6750   -0.4180 hc        1 RIN      0.039700
     30 H52         1.5960    1.0330   -0.6940 hc        1 RIN      0.039700
     31 H41         3.5720   -0.2310   -1.5720 hc        1 RIN      0.042700
     32 H42         3.7870   -0.6850   -0.0600 hc        1 RIN      0.042700
     33 H31         1.4670   -1.5220   -0.1180 hc        1 RIN      0.040700
     34 H32         2.4930   -2.3730   -0.9910 hc        1 RIN      0.040700
     35 H21         1.1660   -0.2560   -2.3120 hc        1 RIN      0.051700
     36 H22         1.6320   -1.6470   -2.9360 hc        1 RIN      0.051700
     37 H11        -0.1940   -2.7620   -1.8940 h1        1 RIN      0.061200
     38 H12        -0.7830   -1.5500   -2.7460 h1        1 RIN      0.061200
     39 HN1        -0.4720   -1.4330    0.0450 hn        1 RIN      0.314500
@<TRIPOS>BOND
     1    1    2 1   
     2    1   16 1   
     3    1   17 1   
     4    2    3 1   
     5    2   14 1   
     6    2   18 1   
     7    3    4 1   
     8    3   19 1   
     9    3   20 1   
    10    4    5 1   
    11    4   21 1   
    12    4   22 1   
    13    5    6 1   
    14    5   23 1   
    15    5   24 1   
    16    6    7 1   
    17    6   25 1   
    18    6   26 1   
    19    7    8 1   
    20    7   27 1   
    21    7   28 1   
    22    8    9 1   
    23    8   29 1   
    24    8   30 1   
    25    9   10 1   
    26    9   31 1   
    27    9   32 1   
    28   10   11 1   
    29   10   33 1   
    30   10   34 1   
    31   11   12 1   
    32   11   35 1   
    33   11   36 1   
    34   12   13 1   
    35   12   37 1   
    36   12   38 1   
    37   13   14 1   
    38   13   39 1   
    39   14   15 2   
@<TRIPOS>SUBSTRUCTURE
     1 RIN         1 TEMP              0 ****  ****    0 ROOT
