@<TRIPOS>MOLECULE
RIN
   39    39     1     0     0
SMALL
bcc


@<TRIPOS>ATOM
      1 N           1.1350   -0.2710    3.6730 n3        1 RIN     -0.903800
      2 CA          1.0480    0.3240    2.3600 c3        1 RIN      0.105500
      3 CB          1.9170   -0.4080    1.3280 c3        1 RIN     -0.078400
      4 CG          1.8630    0.2750   -0.0210 c3        1 RIN     -0.091400
      5 CD          2.5270   -0.5640   -1.0950 c3        1 RIN     -0.075400
      6 CE          2.0630   -0.1830   -2.4870 c3        1 RIN     -0.078400
      7 CZ          0.6060   -0.5350   -2.7330 c3        1 RIN     -0.079400
      8 C5         -0.2610    0.6890   -2.9510 c3        1 RIN     -0.079400
      9 C4         -1.7310    0.4130   -2.7010 c3        1 RIN     -0.077400
     10 C3         -2.1200    0.5320   -1.2390 c3        1 RIN     -0.085400
     11 C2         -2.3850   -0.8060   -0.5810 c3        1 RIN     -0.106400
     12 C1         -2.4010   -0.6890    0.9460 c3        1 RIN      0.074000
     13 N1         -1.1120   -0.7040    1.5870 n         1 RIN     -0.549900
     14 C          -0.4050    0.4620    1.8390 c         1 RIN      0.598100
     15 O          -0.9310    1.5870    1.7460 o         1 RIN     -0.599100
     16 H           0.8330   -1.2240    3.6660 hn        1 RIN      0.359300
     17 HN2         0.5900    0.2490    4.3330 hn        1 RIN      0.359300
     18 HA          1.4330    1.3870    2.4500 h1        1 RIN      0.094700
     19 HB1         2.9770   -0.4250    1.6960 hc        1 RIN      0.049700
     20 HB2         1.5900   -1.4770    1.2310 hc        1 RIN      0.049700
     21 HG1         0.7940    0.4700   -0.3080 hc        1 RIN      0.051700
     22 HG2         2.3670    1.2760    0.0420 hc        1 RIN      0.051700
     23 HD1         3.6400   -0.4380   -1.0290 hc        1 RIN      0.038700
     24 HD2         2.3090   -1.6510   -0.9210 hc        1 RIN      0.038700
     25 HE1         2.2320    0.9150   -2.6450 hc        1 RIN      0.042200
     26 HE2         2.7050   -0.7210   -3.2330 hc        1 RIN      0.042200
     27 HZ1         0.5280   -1.2010   -3.6320 hc        1 RIN      0.037700
     28 HZ2         0.2050   -1.1230   -1.8650 hc        1 RIN      0.037700
     29 H51         0.0800    1.5260   -2.2840 hc        1 RIN      0.041700
     30 H52        -0.1280    1.0430   -4.0080 hc        1 RIN      0.041700
     31 H41        -2.3330    1.1540   -3.2930 hc        1 RIN      0.039200
     32 H42        -1.9950   -0.6050   -3.0910 hc        1 RIN      0.039200
     33 H31        -1.3210    1.0770   -0.6660 hc        1 RIN      0.051700
     34 H32        -3.0480    1.1590   -1.1540 hc        1 RIN      0.051700
     35 H21        -3.3850   -1.1920   -0.9100 hc        1 RIN      0.043200
     36 H22        -1.6210   -1.5590   -0.9070 hc        1 RIN      0.043200
     37 H11        -2.9290    0.2650    1.2350 h1        1 RIN      0.063200
     38 H12        -2.9840   -1.5590    1.3640 h1        1 RIN      0.063200
     39 HN1        -0.5730   -1.5270    1.4390 hn        1 RIN      0.295500
@<TRIPOS>BOND
     1    1    2 1   
     2    1   16 1   
     3    1   17 1   
     4    2    3 1   
     5    2   14 1   
     6    2   18 1   
     7    3    4 1   
     8    3   19 1   
     9    3   20 1   
    10    4    5 1   
    11    4   21 1   
    12    4   22 1   
    13    5    6 1   
    14    5   23 1   
    15    5   24 1   
    16    6    7 1   
    17    6   25 1   
    18    6   26 1   
    19    7    8 1   
    20    7   27 1   
    21    7   28 1   
    22    8    9 1   
    23    8   29 1   
    24    8   30 1   
    25    9   10 1   
    26    9   31 1   
    27    9   32 1   
    28   10   11 1   
    29   10   33 1   
    30   10   34 1   
    31   11   12 1   
    32   11   35 1   
    33   11   36 1   
    34   12   13 1   
    35   12   37 1   
    36   12   38 1   
    37   13   14 1   
    38   13   39 1   
    39   14   15 2   
@<TRIPOS>SUBSTRUCTURE
     1 RIN         1 TEMP              0 ****  ****    0 ROOT
