@<TRIPOS>MOLECULE
RIN
   41    41     1     0     0
SMALL
bcc


@<TRIPOS>ATOM
      1 N           0.0480    0.6550   -0.1810 n4        1 RIN     -0.840600
      2 CA          1.2550   -0.2160    0.0340 c3        1 RIN      0.058500
      3 CB          1.9670    0.1050    1.3610 c3        1 RIN     -0.129400
      4 CG          3.4700    0.1900    1.1550 c3        1 RIN     -0.088400
      5 CD          4.2220    0.2180    2.4770 c3        1 RIN     -0.088400
      6 CE          5.0860   -1.0090    2.6870 c3        1 RIN     -0.099400
      7 CZ          4.2920   -2.2090    3.1600 c3        1 RIN     -0.064400
      8 C5          4.9800   -3.5300    2.8740 c3        1 RIN     -0.097400
      9 C4          4.3440   -4.3170    1.7460 c3        1 RIN     -0.085400
     10 C3          4.7020   -3.7730    0.3760 c3        1 RIN     -0.115400
     11 C2          3.7160   -4.1770   -0.7000 c3        1 RIN     -0.117400
     12 C1          2.6810   -3.1020   -1.0100 c3        1 RIN      0.119800
     13 N1          1.8940   -2.7180    0.2200 n4        1 RIN     -0.668800
     14 C           0.8540   -1.6970   -0.0530 c         1 RIN      0.506100
     15 O          -0.2720   -2.0820   -0.3410 o         1 RIN     -0.381100
     16 H          -0.5910    0.5910    0.6240 hn        1 RIN      0.490467
     17 HN2        -0.4650    0.3680   -1.0280 hn        1 RIN      0.490467
     18 HA          1.9640   -0.0050   -0.8350 hx        1 RIN      0.158700
     19 HB1         1.6210    1.0940    1.7790 hc        1 RIN      0.101200
     20 HB2         1.7080   -0.6610    2.1400 hc        1 RIN      0.101200
     21 HG1         3.7060    1.1240    0.5770 hc        1 RIN      0.053200
     22 HG2         3.8260   -0.6720    0.5300 hc        1 RIN      0.053200
     23 HD1         3.5100    0.3300    3.3370 hc        1 RIN      0.077700
     24 HD2         4.8860    1.1260    2.4870 hc        1 RIN      0.077700
     25 HE1         5.8670   -0.7690    3.4610 hc        1 RIN      0.072700
     26 HE2         5.6440   -1.2460    1.7420 hc        1 RIN      0.072700
     27 HZ1         4.1230   -2.1140    4.2680 hc        1 RIN      0.018200
     28 HZ2         3.2680   -2.1950    2.6930 hc        1 RIN      0.018200
     29 H51         6.0660   -3.3600    2.6460 hc        1 RIN      0.081700
     30 H52         4.9440   -4.1650    3.8020 hc        1 RIN      0.081700
     31 H41         3.2310   -4.3480    1.8900 hc        1 RIN      0.043200
     32 H42         4.6960   -5.3850    1.8120 hc        1 RIN      0.043200
     33 H31         4.8040   -2.6560    0.4110 hc        1 RIN      0.070200
     34 H32         5.7190   -4.1680    0.0970 hc        1 RIN      0.070200
     35 H21         4.2620   -4.3560   -1.6710 hc        1 RIN      0.109700
     36 H22         3.2130   -5.1450   -0.4300 hc        1 RIN      0.109700
     37 H11         3.1890   -2.1700   -1.3870 hx        1 RIN      0.109700
     38 H12         1.9500   -3.4790   -1.7830 hx        1 RIN      0.109700
     39 HN1         1.4350   -3.5750    0.5820 hn        1 RIN      0.494800
     40 HN3         0.3550    1.6340   -0.2830 hn        1 RIN      0.490467
     41 H121        2.5620   -2.3860    0.9430 hn        1 RIN      0.494800
@<TRIPOS>BOND
     1    1    2 1   
     2    1   16 1   
     3    1   17 1   
     4    1   40 1   
     5    2    3 1   
     6    2   14 1   
     7    2   18 1   
     8    3    4 1   
     9    3   19 1   
    10    3   20 1   
    11    4    5 1   
    12    4   21 1   
    13    4   22 1   
    14    5    6 1   
    15    5   23 1   
    16    5   24 1   
    17    6    7 1   
    18    6   25 1   
    19    6   26 1   
    20    7    8 1   
    21    7   27 1   
    22    7   28 1   
    23    8    9 1   
    24    8   29 1   
    25    8   30 1   
    26    9   10 1   
    27    9   31 1   
    28    9   32 1   
    29   10   11 1   
    30   10   33 1   
    31   10   34 1   
    32   11   12 1   
    33   11   35 1   
    34   11   36 1   
    35   12   13 1   
    36   12   37 1   
    37   12   38 1   
    38   13   14 1   
    39   13   39 1   
    40   13   41 1   
    41   14   15 2   
@<TRIPOS>SUBSTRUCTURE
     1 RIN         1 TEMP              0 ****  ****    0 ROOT
