@<TRIPOS>MOLECULE
RIP
   20    20     1     0     0
SMALL
bcc


@<TRIPOS>ATOM
      1 C1          0.4570    0.3970   -1.2550 c3        1 RIP      0.305900
      2 C2         -0.6770   -0.5490   -0.8110 c3        1 RIP      0.127100
      3 C3         -0.9660   -0.3230    0.6810 c3        1 RIP      0.152100
      4 C4          0.3520   -0.5470    1.4520 c3        1 RIP      0.065100
      5 C5          1.4460    0.3800    0.9090 c3        1 RIP      0.111400
      6 O1          0.8600    0.0230   -2.5480 oh        1 RIP     -0.610800
      7 O2         -1.8640   -0.3060   -1.5340 oh        1 RIP     -0.574800
      8 O3         -1.4180    1.0080    0.8510 oh        1 RIP     -0.585800
      9 O4          0.0650   -0.2410    2.8080 oh        1 RIP     -0.598800
     10 O5          1.6390    0.1910   -0.4840 os        1 RIP     -0.451600
     11 H1          0.1330    1.4740   -1.2140 h2        1 RIP      0.072700
     12 H2         -0.3500   -1.6170   -0.9630 h1        1 RIP      0.057700
     13 H3         -1.7510   -1.0440    1.0370 h1        1 RIP      0.067700
     14 H4          0.6680   -1.6210    1.3560 h1        1 RIP      0.055700
     15 H51         1.1650    1.4480    1.1160 h1        1 RIP      0.062700
     16 H52         2.4430    0.1430    1.3630 h1        1 RIP      0.062700
     17 HO1         1.7860    0.2790   -2.6590 ho        1 RIP      0.434000
     18 HO2        -1.6170   -0.3110   -2.4700 ho        1 RIP      0.419000
     19 HO3        -1.5920    1.1150    1.7970 ho        1 RIP      0.419000
     20 HO4         0.8850   -0.3560    3.3020 ho        1 RIP      0.411000
@<TRIPOS>BOND
     1    1    2 1   
     2    1    6 1   
     3    1   10 1   
     4    1   11 1   
     5    2    3 1   
     6    2    7 1   
     7    2   12 1   
     8    3    4 1   
     9    3    8 1   
    10    3   13 1   
    11    4    5 1   
    12    4    9 1   
    13    4   14 1   
    14    5   10 1   
    15    5   15 1   
    16    5   16 1   
    17    6   17 1   
    18    7   18 1   
    19    8   19 1   
    20    9   20 1   
@<TRIPOS>SUBSTRUCTURE
     1 RIP         1 TEMP              0 ****  ****    0 ROOT
