@<TRIPOS>MOLECULE
RIS
   24    23     1     0     0
SMALL
bcc


@<TRIPOS>ATOM
      1 O12        -2.0600   -1.9370   -0.3150 o         1 RIS     -1.248667
      2 P9         -1.3000   -1.6960    0.9590 p3        1 RIS      2.608000
      3 O11        -1.2240   -0.2380    1.3130 o         1 RIS     -1.248667
      4 O10        -1.7310   -2.5650    2.1050 o         1 RIS     -1.248667
      5 C8          0.7610   -2.2740    0.4540 c2        1 RIS     -1.196000
      6 O13         1.0990   -1.7460    1.7100 oh        1 RIS     -0.296000
      7 P14         1.4890   -3.7480    0.2700 p5        1 RIS      2.068000
      8 O16         2.3700   -3.6930   -1.1530 oh        1 RIS     -0.853000
      9 O15         0.6960   -4.9930    0.0280 o         1 RIS     -0.938500
     10 O17         2.6090   -3.8970    1.2690 o         1 RIS     -0.938500
     11 C7          0.8900   -1.3270   -0.6990 c3        1 RIS     -0.068000
     12 C2          2.0300   -0.3480   -0.7590 c2        1 RIS     -0.089000
     13 C1          2.2680    0.5170    0.3050 c2        1 RIS     -0.145000
     14 C6          3.2870    1.4870    0.2010 c2        1 RIS     -0.290000
     15 C5          4.0080    1.5550   -0.9880 c2        1 RIS     -0.182000
     16 N4          3.7750    0.7350   -2.0530 n2        1 RIS     -0.271000
     17 C3          2.8240   -0.1940   -1.9550 c1        1 RIS     -0.358000
     18 H13         2.0680   -1.7810    1.7780 ho        1 RIS      0.137000
     19 HC71        0.9150   -1.9460   -1.6410 hc        1 RIS      0.073500
     20 HC72       -0.0350   -0.6800   -0.7720 hc        1 RIS      0.073500
     21 HC1         1.6460    0.4500    1.2130 ha        1 RIS      0.150000
     22 HC6         3.4960    2.1680    1.0360 ha        1 RIS      0.037000
     23 HC5         4.8130    2.3040   -1.1030 h4        1 RIS      0.020000
     24 HC3         2.8060   -2.8590   -1.2810 ho        1 RIS      0.206000
@<TRIPOS>BOND
     1    1    2 1   
     2    2    3 1   
     3    2    4 1   
     4    5    6 1   
     5    5    7 1   
     6    5   11 1   
     7    6   18 1   
     8    7    8 1   
     9    7    9 1   
    10    7   10 1   
    11    8   24 1   
    12   11   12 1   
    13   11   19 1   
    14   11   20 1   
    15   12   13 1   
    16   12   17 1   
    17   13   14 1   
    18   13   21 1   
    19   14   15 1   
    20   14   22 1   
    21   15   16 1   
    22   15   23 1   
    23   16   17 1   
@<TRIPOS>SUBSTRUCTURE
     1 RIS         1 TEMP              0 ****  ****    0 ROOT
