@<TRIPOS>MOLECULE
RIS
   24    24     1     0     0
SMALL
bcc


@<TRIPOS>ATOM
      1 O12         0.6630    0.5060    1.0980 o         1 RIS     -0.973333
      2 P9          2.0310    0.5530    0.4400 p5        1 RIS      1.245200
      3 O11         2.8970    1.5590    1.2020 o         1 RIS     -0.973333
      4 O10         2.6860   -0.8070    0.3590 o         1 RIS     -0.973333
      5 C8          1.8060    1.3770   -1.3140 c3        1 RIS     -0.148600
      6 O13         3.1840    1.4960   -1.5790 oh        1 RIS     -0.623800
      7 P14         1.0260    1.0300   -2.9420 p5        1 RIS      1.245200
      8 O16        -0.1060    0.0260   -2.8860 o         1 RIS     -0.973333
      9 O15         2.1720    0.5820   -3.8460 o         1 RIS     -0.973333
     10 O17         0.5080    2.3830   -3.4550 o         1 RIS     -0.973333
     11 C7          1.1680    2.6850   -0.8620 c3        1 RIS     -0.055100
     12 C2          1.9660    3.9220   -1.0200 ca        1 RIS     -0.033600
     13 C1          2.9520    4.2810   -0.0780 ca        1 RIS     -0.136000
     14 C6          3.5770    5.5210   -0.1990 ca        1 RIS     -0.293300
     15 C5          3.2210    6.3640   -1.2660 ca        1 RIS      0.253200
     16 N4          2.3370    6.0160   -2.2280 nb        1 RIS     -0.753000
     17 C3          1.7450    4.8120   -2.1080 ca        1 RIS      0.331200
     18 H13         3.3050    1.5590   -2.5420 ho        1 RIS      0.368000
     19 HC71        0.1950    2.8190   -1.4210 hc        1 RIS      0.053700
     20 HC72        0.9080    2.6020    0.2370 hc        1 RIS      0.053700
     21 HC1         3.2040    3.5050    0.6940 ha        1 RIS      0.254000
     22 HC6         4.3450    5.8370    0.5170 ha        1 RIS      0.061000
     23 HC5         3.6780    7.3610   -1.3710 h4        1 RIS     -0.081900
     24 HC3         1.0790    4.4380   -2.9280 h4        1 RIS      0.100100
@<TRIPOS>BOND
     1    1    2 1   
     2    2    3 1   
     3    2    4 1   
     4    2    5 1   
     5    5    6 1   
     6    5    7 1   
     7    5   11 1   
     8    6   18 1   
     9    7    8 1   
    10    7    9 1   
    11    7   10 1   
    12   11   12 1   
    13   11   19 1   
    14   11   20 1   
    15   12   13 ar  
    16   12   17 ar  
    17   13   14 ar  
    18   13   21 1   
    19   14   15 ar  
    20   14   22 1   
    21   15   16 ar  
    22   15   23 1   
    23   16   17 ar  
    24   17   24 1   
@<TRIPOS>SUBSTRUCTURE
     1 RIS         1 TEMP              0 ****  ****    0 ROOT
