@<TRIPOS>MOLECULE
RIT
   98   101     1     0     0
SMALL
bcc


@<TRIPOS>ATOM
      1 C1          7.3320    3.5370    0.2790 cc        1 RIT      0.351200
      2 C2          6.9150    3.0720   -0.9690 cd        1 RIT     -0.246700
      3 S3          6.0990    4.2970   -1.7860 ss        1 RIT     -0.048300
      4 C4          6.3390    5.3620   -0.4820 cd        1 RIT      0.358300
      5 N5          6.9990    4.8500    0.5570 nc        1 RIT     -0.631000
      6 C6          7.1740    1.7220   -1.5030 c3        1 RIT      0.229700
      7 O7          6.6910    0.7030   -0.6170 os        1 RIT     -0.437900
      8 C10         5.3850    0.2870   -0.8010 c         1 RIT      0.729100
      9 O24         4.7700    0.6550   -1.8160 o         1 RIT     -0.592000
     10 N11         4.9170   -0.4800    0.2520 n         1 RIT     -0.513900
     11 C12         3.7610   -1.3360    0.0430 c3        1 RIT      0.064700
     12 C13         2.4860   -0.7830    0.7460 c3        1 RIT      0.133100
     13 C14         2.0250    0.5320    0.1250 c3        1 RIT     -0.134400
     14 C15         0.5560    0.4740   -0.3320 c3        1 RIT      0.107700
     15 C26         3.9890   -2.7720    0.5520 c3        1 RIT     -0.060100
     16 C28         5.2180   -3.3920   -0.0070 ca        1 RIT     -0.093300
     17 C31         6.3910   -3.4500    0.7550 ca        1 RIT     -0.127500
     18 C32         7.5400   -4.0430    0.2340 ca        1 RIT     -0.125500
     19 C33         7.5270   -4.5830   -1.0520 ca        1 RIT     -0.128000
     20 C34         6.3610   -4.5300   -1.8150 ca        1 RIT     -0.125500
     21 C35         5.2110   -3.9380   -1.2960 ca        1 RIT     -0.127500
     22 O41         2.6780   -0.6690    2.1440 oh        1 RIT     -0.598800
     23 C44         0.2520    1.7720   -1.1090 c3        1 RIT     -0.053100
     24 C45        -1.0960    1.7490   -1.7360 ca        1 RIT     -0.081300
     25 C48        -2.1350    2.5340   -1.2240 ca        1 RIT     -0.122500
     26 C49        -3.3990    2.4970   -1.8100 ca        1 RIT     -0.125000
     27 C50        -3.6360    1.6780   -2.9130 ca        1 RIT     -0.131000
     28 C51        -2.6020    0.9020   -3.4360 ca        1 RIT     -0.125000
     29 C52        -1.3370    0.9370   -2.8520 ca        1 RIT     -0.122500
     30 N58        -0.3710    0.2580    0.7540 n         1 RIT     -0.555900
     31 N20        -3.2620   -1.5440    1.5370 n         1 RIT     -0.545900
     32 C19        -2.0450   -1.0100    2.1040 c3        1 RIT      0.048700
     33 C18        -0.9780   -0.9550    0.9800 c         1 RIT      0.669100
     34 O61        -0.6880   -1.9670    0.3080 o         1 RIT     -0.633100
     35 C62        -1.4920   -1.7860    3.3210 c3        1 RIT     -0.086700
     36 C64        -1.2540   -3.2510    3.0320 c3        1 RIT     -0.101100
     37 C68        -0.2280   -1.1220    3.8220 c3        1 RIT     -0.101100
     38 N74        -5.6680   -1.9130    1.7250 n         1 RIT     -0.431800
     39 C75        -6.9230   -1.3040    2.1020 c3        1 RIT      0.060700
     40 O76        -4.5440   -0.3690    3.0500 o         1 RIT     -0.646100
     41 C77        -7.4370   -0.1750    1.2550 cc        1 RIT      0.315600
     42 C80        -8.3990    0.7220    1.7100 cd        1 RIT     -0.254400
     43 S81        -8.7520    1.8540    0.5380 ss        1 RIT     -0.097300
     44 C82        -7.6150    1.1290   -0.5440 cd        1 RIT      0.405700
     45 N83        -6.9930    0.0600   -0.0430 nc        1 RIT     -0.633000
     46 C85        -7.3550    1.7100   -1.8940 c3        1 RIT     -0.099000
     47 C86        -7.3270    0.6410   -2.9690 c3        1 RIT     -0.095600
     48 C90        -8.3810    2.7740   -2.2320 c3        1 RIT     -0.095600
     49 C95        -5.6510   -2.6660    0.4970 c3        1 RIT      0.063300
     50 H1          7.8800    2.9530    1.0270 h4        1 RIT      0.050100
     51 H4          5.9850    6.3960   -0.4760 h5        1 RIT      0.055100
     52 H61         6.7300    1.5910   -2.5270 h1        1 RIT      0.081200
     53 H62A        8.2820    1.5130   -1.5280 h1        1 RIT      0.081200
     54 H11         5.6090   -0.8270    0.8820 hn        1 RIT      0.319500
     55 H12         3.5330   -1.3780   -1.0650 h1        1 RIT      0.081700
     56 H13         1.6830   -1.5760    0.6510 h1        1 RIT      0.104700
     57 H141        2.1620    1.3660    0.8620 hc        1 RIT      0.066200
     58 H142        2.6500    0.7740   -0.7760 hc        1 RIT      0.066200
     59 H15         0.4480   -0.3960   -1.0500 h1        1 RIT      0.086700
     60 H261        4.0280   -2.7570    1.6750 hc        1 RIT      0.072700
     61 H262        3.0900   -3.3780    0.2570 hc        1 RIT      0.072700
     62 H31         6.4030   -3.0350    1.7740 ha        1 RIT      0.132500
     63 H32         8.4570   -4.0860    0.8400 ha        1 RIT      0.133500
     64 H33         8.4330   -5.0510   -1.4620 ha        1 RIT      0.133000
     65 H34         6.3470   -4.9570   -2.8290 ha        1 RIT      0.133500
     66 H35         4.2910   -3.8990   -1.8990 ha        1 RIT      0.132500
     67 HO4         3.2940    0.0570    2.3020 ho        1 RIT      0.403000
     68 H441        0.3510    2.6560   -0.4250 hc        1 RIT      0.057700
     69 H442        1.0330    1.8790   -1.9100 hc        1 RIT      0.057700
     70 H48        -1.9550    3.1790   -0.3510 ha        1 RIT      0.130000
     71 H49        -4.2130    3.1090   -1.3930 ha        1 RIT      0.130000
     72 H50        -4.6400    1.6340   -3.3620 ha        1 RIT      0.129000
     73 H51        -2.7840    0.2560   -4.3080 ha        1 RIT      0.130000
     74 H52        -0.5240    0.3190   -3.2620 ha        1 RIT      0.130000
     75 H58        -0.6240    1.0440    1.3030 hn        1 RIT      0.314500
     76 H20        -3.1600   -2.3960    1.0320 hn        1 RIT      0.320500
     77 H19        -2.2840    0.0360    2.4720 h1        1 RIT      0.091700
     78 H62        -2.2790   -1.7060    4.1280 hc        1 RIT      0.066700
     79 H641       -0.6010   -3.3770    2.1340 hc        1 RIT      0.043033
     80 H642       -0.7540   -3.7330    3.9070 hc        1 RIT      0.043033
     81 H643       -2.2180   -3.7820    2.8470 hc        1 RIT      0.043033
     82 H681        0.1030   -1.6070    4.7720 hc        1 RIT      0.043033
     83 H682        0.5990   -1.2140    3.0740 hc        1 RIT      0.043033
     84 H683       -0.4090   -0.0390    4.0240 hc        1 RIT      0.043033
     85 H751       -7.7030   -2.1210    2.0940 h1        1 RIT      0.077700
     86 H752       -6.8180   -0.9150    3.1590 h1        1 RIT      0.077700
     87 H80        -8.8510    0.7030    2.6990 h4        1 RIT      0.182000
     88 H85        -6.3320    2.1960   -1.8550 hc        1 RIT      0.071700
     89 H861       -8.2960    0.0900   -3.0040 hc        1 RIT      0.043867
     90 H862       -7.1490    1.1160   -3.9650 hc        1 RIT      0.043867
     91 H863       -6.5070   -0.0910   -2.7720 hc        1 RIT      0.043867
     92 H901       -8.4250    3.5520   -1.4290 hc        1 RIT      0.043867
     93 H902       -8.1050    3.2730   -3.1920 hc        1 RIT      0.043867
     94 H903       -9.3960    2.3230   -2.3490 hc        1 RIT      0.043867
     95 H951       -5.0260   -3.5880    0.6460 h1        1 RIT      0.045367
     96 H952       -6.6940   -2.9840    0.2360 h1        1 RIT      0.045367
     97 H953       -5.2370   -2.0800   -0.3680 h1        1 RIT      0.045367
     98 C21        -4.4900   -1.2300    2.1370 c         1 RIT      0.756100
@<TRIPOS>BOND
     1    1    2 2   
     2    1    5 1   
     3    1   50 1   
     4    2    3 1   
     5    2    6 1   
     6    3    4 1   
     7    4    5 2   
     8    4   51 1   
     9    6    7 1   
    10    6   52 1   
    11    6   53 1   
    12    7    8 1   
    13    8    9 2   
    14    8   10 1   
    15   10   11 1   
    16   10   54 1   
    17   11   12 1   
    18   11   15 1   
    19   11   55 1   
    20   12   13 1   
    21   12   22 1   
    22   12   56 1   
    23   13   14 1   
    24   13   57 1   
    25   13   58 1   
    26   14   23 1   
    27   14   30 1   
    28   14   59 1   
    29   15   16 1   
    30   15   60 1   
    31   15   61 1   
    32   16   17 ar  
    33   16   21 ar  
    34   17   18 ar  
    35   17   62 1   
    36   18   19 ar  
    37   18   63 1   
    38   19   20 ar  
    39   19   64 1   
    40   20   21 ar  
    41   20   65 1   
    42   21   66 1   
    43   22   67 1   
    44   23   24 1   
    45   23   68 1   
    46   23   69 1   
    47   24   25 ar  
    48   24   29 ar  
    49   25   26 ar  
    50   25   70 1   
    51   26   27 ar  
    52   26   71 1   
    53   27   28 ar  
    54   27   72 1   
    55   28   29 ar  
    56   28   73 1   
    57   29   74 1   
    58   30   33 1   
    59   30   75 1   
    60   31   32 1   
    61   31   76 1   
    62   31   98 1   
    63   32   33 1   
    64   32   35 1   
    65   32   77 1   
    66   33   34 2   
    67   35   36 1   
    68   35   37 1   
    69   35   78 1   
    70   36   79 1   
    71   36   80 1   
    72   36   81 1   
    73   37   82 1   
    74   37   83 1   
    75   37   84 1   
    76   38   39 1   
    77   38   49 1   
    78   38   98 1   
    79   39   41 1   
    80   39   85 1   
    81   39   86 1   
    82   40   98 2   
    83   41   42 2   
    84   41   45 1   
    85   42   43 1   
    86   42   87 1   
    87   43   44 1   
    88   44   45 2   
    89   44   46 1   
    90   46   47 1   
    91   46   48 1   
    92   46   88 1   
    93   47   89 1   
    94   47   90 1   
    95   47   91 1   
    96   48   92 1   
    97   48   93 1   
    98   48   94 1   
    99   49   95 1   
   100   49   96 1   
   101   49   97 1   
@<TRIPOS>SUBSTRUCTURE
     1 RIT         1 TEMP              0 ****  ****    0 ROOT
