@<TRIPOS>MOLECULE
RIV
   48    50     1     0     0
SMALL
bcc


@<TRIPOS>ATOM
      1 C1          1.2400    0.7110    1.4360 c3        1 RIV     -0.086000
      2 N2          1.3700    0.3900    0.0120 n         1 RIV     -0.290000
      3 C3          2.6480    1.1090    1.9590 c3        1 RIV      0.027000
      4 C4          2.7180    0.4590   -0.3950 c2        1 RIV      0.327000
      5 O5          2.6680    2.4240    2.4530 oh        1 RIV     -0.292000
      6 C6          3.5910    0.9000    0.7670 c3        1 RIV     -0.227000
      7 C7          0.8530   -0.6350   -4.2580 c2        1 RIV     -0.108000
      8 C8          0.8920    0.0030   -3.0570 c2        1 RIV      0.019000
      9 C9         -0.0810   -1.6940   -4.5880 c2        1 RIV     -0.489000
     10 C10         0.0370   -0.3430   -1.9610 c2        1 RIV     -0.259000
     11 C11        -1.4010   -1.6280   -4.6250 c1        1 RIV      0.319000
     12 C12         0.2710   -0.1300   -0.6410 c2        1 RIV      0.080000
     13 O13         3.1320    0.2040   -1.5360 o         1 RIV     -0.372000
     14 N14         1.7740   -0.2220   -5.3340 nx        1 RIV     -0.004000
     15 C15         2.0520   -1.2980   -6.3660 c2        1 RIV      0.344000
     16 C16         3.1400    0.1750   -4.8420 c3        1 RIV     -0.164000
     17 O17         3.3910   -1.4480   -6.5690 os        1 RIV     -0.170000
     18 C18         4.1470   -0.4510   -5.8300 c3        1 RIV     -0.008000
     19 O19         1.2460   -1.9580   -6.9910 o         1 RIV     -0.176000
     20 C20         4.7990    0.5670   -6.7850 c3        1 RIV     -0.031000
     21 N21         4.0420    0.9620   -7.9330 ns        1 RIV     -0.370000
     22 C22         2.9830    1.8500   -7.8830 c2        1 RIV      0.407000
     23 S23         1.5950    3.8170   -9.2130 ss        1 RIV      0.747000
     24 C24         1.4130    3.7500  -10.8670 c2        1 RIV     -0.377000
     25 C25         2.4780    2.3980   -9.1390 c2        1 RIV     -0.506000
     26 C26         2.0250    2.6220  -11.4110 c2        1 RIV     -0.157000
     27 C27         2.6460    1.8400  -10.4070 c2        1 RIV     -0.094000
     28 O28         2.4680    2.1300   -6.7690 o         1 RIV     -0.460000
     29 H11C        0.5180    1.5630    1.5670 h1        1 RIV      0.119000
     30 H12C        0.8540   -0.1800    2.0010 h1        1 RIV      0.119000
     31 H31C        2.9400    0.4770    2.8430 h1        1 RIV      0.153000
     32 H32C        4.1340    1.8420    0.4980 hc        1 RIV      0.148000
     33 H61C        2.4380    3.0250    1.7330 ho        1 RIV      0.206000
     34 H62C        4.3500    0.1050    0.9770 hc        1 RIV      0.148000
     35 H9          0.3560   -2.6990   -4.8080 ha        1 RIV      0.218000
     36 H10        -0.9150   -0.8460   -2.2190 ha        1 RIV      0.163000
     37 H11        -0.5490   -0.4060    0.0660 h4        1 RIV      0.162000
     38 H161        1.3520    0.5840   -5.8370 hn        1 RIV      0.292000
     39 H162        3.3070   -0.2270   -3.8000 hx        1 RIV      0.186500
     40 H18         3.2150    1.3000   -4.8320 hx        1 RIV      0.186500
     41 H201        4.9480   -1.0260   -5.2890 h1        1 RIV      0.167000
     42 H202        5.7640    0.1080   -7.1510 h1        1 RIV      0.125000
     43 H21         5.0490    1.4740   -6.1570 h1        1 RIV      0.125000
     44 H26         3.1680    0.9060  -10.6300 ha        1 RIV      0.160000
     45 H27         2.0310    2.3660  -12.4740 ha        1 RIV      0.184000
     46 Cl          0.5960    4.9020  -11.7520 cl        1 RIV      0.094000
     47 H212        4.4230    0.7260   -8.8220 hn        1 RIV      0.253000
     48 H8          1.5940    0.8430   -2.8820 ha        1 RIV      0.163000
@<TRIPOS>BOND
     1    1    2 1   
     2    1    3 1   
     3    1   29 1   
     4    1   30 1   
     5    2    4 1   
     6    2   12 1   
     7    3    5 1   
     8    3    6 1   
     9    3   31 1   
    10    4    6 1   
    11    4   13 1   
    12    5   33 1   
    13    6   32 1   
    14    6   34 1   
    15    7    8 1   
    16    7    9 1   
    17    7   14 1   
    18    8   10 1   
    19    8   48 1   
    20    9   11 1   
    21    9   35 1   
    22   10   12 1   
    23   10   36 1   
    24   12   37 1   
    25   14   15 1   
    26   14   16 1   
    27   14   38 1   
    28   15   17 1   
    29   15   19 1   
    30   16   18 1   
    31   16   39 1   
    32   16   40 1   
    33   17   18 1   
    34   18   20 1   
    35   18   41 1   
    36   20   21 1   
    37   20   42 1   
    38   20   43 1   
    39   21   22 1   
    40   21   47 1   
    41   22   25 1   
    42   22   28 1   
    43   23   24 1   
    44   23   25 1   
    45   24   26 1   
    46   24   46 1   
    47   25   27 1   
    48   26   27 1   
    49   26   45 1   
    50   27   44 1   
@<TRIPOS>SUBSTRUCTURE
     1 RIV         1 TEMP              0 ****  ****    0 ROOT
