@<TRIPOS>MOLECULE
RIV
   47    50     1     0     0
SMALL
bcc


@<TRIPOS>ATOM
      1 C1          9.2810    1.4320   18.6140 c3        1 RIV      0.064000
      2 N2          8.3350    2.4430   18.1880 n         1 RIV     -0.383000
      3 C3          9.5340    0.3580   17.5520 c3        1 RIV      0.109400
      4 C4          8.2020    2.7400   16.8340 c         1 RIV      0.673500
      5 O5          9.8440    0.9570   16.3000 os        1 RIV     -0.400600
      6 C6          8.7860    1.7660   15.8150 c3        1 RIV      0.058400
      7 C7          6.7310    4.9590   21.2220 ca        1 RIV      0.071600
      8 C8          7.3460    5.5140   20.0780 ca        1 RIV     -0.156500
      9 C9          6.6560    3.5530   21.3290 ca        1 RIV     -0.156500
     10 C10         7.8730    4.6950   19.0880 ca        1 RIV     -0.108000
     11 C11         7.1770    2.7400   20.3320 ca        1 RIV     -0.108000
     12 C12         7.8040    3.2920   19.1960 ca        1 RIV      0.026600
     13 O13         7.5650    3.7290   16.4290 o         1 RIV     -0.622500
     14 N14         6.2400    5.7980   22.2360 n         1 RIV     -0.381000
     15 C15         5.5010    5.3790   23.3540 c         1 RIV      0.825600
     16 C16         6.0390    7.2260   22.0220 c3        1 RIV      0.049000
     17 O17         4.8730    6.4630   23.9590 os        1 RIV     -0.403900
     18 C18         5.1530    7.6740   23.2120 c3        1 RIV      0.092100
     19 O19         5.3550    4.2850   23.9000 o         1 RIV     -0.589500
     20 C20         5.8160    8.7030   24.1370 c3        1 RIV      0.082000
     21 N21         6.9890    8.2570   24.8270 n         1 RIV     -0.551900
     22 C22         8.2630    8.5100   24.3450 c         1 RIV      0.705700
     23 S23        10.9280    7.8250   24.4440 ss        1 RIV      0.185200
     24 C24        11.5870    7.1780   25.8340 cc        1 RIV     -0.048700
     25 C25         9.3970    7.9600   25.1040 cc        1 RIV     -0.209700
     26 C26        10.6450    7.0580   26.8480 cd        1 RIV     -0.159000
     27 C27         9.3690    7.5140   26.4200 cd        1 RIV     -0.111000
     28 O28         8.4280    9.2050   23.3180 o         1 RIV     -0.622100
     29 H11C       10.2630    1.9290   18.8670 h1        1 RIV      0.056700
     30 H12C        8.8960    0.9320   19.5460 h1        1 RIV      0.056700
     31 H31C       10.4490   -0.2350   17.8140 h1        1 RIV      0.063700
     32 H32C        8.6490   -0.3230   17.4440 h1        1 RIV      0.063700
     33 H61C        7.9470    1.1180   15.4420 h1        1 RIV      0.085200
     34 H62C        9.2370    2.3470   14.9650 h1        1 RIV      0.085200
     35 H8          7.4250    6.6050   19.9530 ha        1 RIV      0.156000
     36 H9          6.1790    3.0830   22.2060 ha        1 RIV      0.156000
     37 H10         8.3260    5.1600   18.1960 ha        1 RIV      0.149000
     38 H11         7.0820    1.6480   20.4460 ha        1 RIV      0.149000
     39 H161        7.0310    7.7580   22.0270 h1        1 RIV      0.083200
     40 H162        5.5230    7.4200   21.0440 h1        1 RIV      0.083200
     41 H18         4.1610    8.0670   22.8660 h1        1 RIV      0.086700
     42 H201        6.0740    9.6060   23.5110 h1        1 RIV      0.080200
     43 H202        5.0540    8.9980   24.9150 h1        1 RIV      0.080200
     44 H21         6.8640    7.5410   25.5040 hn        1 RIV      0.323500
     45 H26        10.8440    6.6660   27.8480 ha        1 RIV      0.169000
     46 H27         8.4940    7.5140   27.0740 ha        1 RIV      0.160000
     47 CL         13.1930    6.7350   25.9710 cl        1 RIV     -0.021400
@<TRIPOS>BOND
     1    1    2 1   
     2    1    3 1   
     3    1   29 1   
     4    1   30 1   
     5    2    4 1   
     6    2   12 1   
     7    3    5 1   
     8    3   31 1   
     9    3   32 1   
    10    4    6 1   
    11    4   13 2   
    12    5    6 1   
    13    6   33 1   
    14    6   34 1   
    15    7    8 ar  
    16    7    9 ar  
    17    7   14 1   
    18    8   10 ar  
    19    8   35 1   
    20    9   11 ar  
    21    9   36 1   
    22   10   12 ar  
    23   10   37 1   
    24   11   12 ar  
    25   11   38 1   
    26   14   15 1   
    27   14   16 1   
    28   15   17 1   
    29   15   19 2   
    30   16   18 1   
    31   16   39 1   
    32   16   40 1   
    33   17   18 1   
    34   18   20 1   
    35   18   41 1   
    36   20   21 1   
    37   20   42 1   
    38   20   43 1   
    39   21   22 1   
    40   21   44 1   
    41   22   25 1   
    42   22   28 2   
    43   23   24 1   
    44   23   25 1   
    45   24   26 2   
    46   24   47 1   
    47   25   27 2   
    48   26   27 1   
    49   26   45 1   
    50   27   46 1   
@<TRIPOS>SUBSTRUCTURE
     1 RIV         1 TEMP              0 ****  ****    0 ROOT
