@<TRIPOS>MOLECULE
RIV
   48    49     1     0     0
SMALL
bcc


@<TRIPOS>ATOM
      1 C1          1.6020    1.2890   -0.9120 c3        1 RIV     -0.093000
      2 N2          1.8240    0.1040   -0.1250 n         1 RIV     -0.273000
      3 C3         -2.1480    0.8060    0.0440 c1        1 RIV      0.003000
      4 C4          1.0220   -0.1420    1.0200 c2        1 RIV      0.303000
      5 O5         -0.9120    1.0700    0.1520 os        1 RIV     -0.081000
      6 C6         -0.1230    0.7940    1.3510 c3        1 RIV     -0.173000
      7 C7          4.1710   -0.5490   -3.9080 c2        1 RIV     -0.154000
      8 C8          3.3110   -0.3670   -2.8620 c2        1 RIV      0.041000
      9 C9          5.4100   -1.3010   -3.8110 c2        1 RIV     -0.499000
     10 C10         3.5270   -0.9700   -1.5910 c2        1 RIV     -0.304000
     11 C11         5.6030   -2.5940   -4.0100 c1        1 RIV      0.330000
     12 C12         2.8200   -0.7990   -0.4360 c2        1 RIV      0.107000
     13 O13         1.2640   -1.1170    1.7460 o         1 RIV     -0.294000
     14 N14         3.8650    0.0430   -5.2150 n4        1 RIV      0.003000
     15 C15         3.6170   -0.9960   -6.2960 c2        1 RIV      0.332000
     16 C16         4.9600    0.9050   -5.7750 c3        1 RIV     -0.147000
     17 O17         4.3470   -0.7220   -7.4130 os        1 RIV     -0.166000
     18 C18         5.0690    0.5310   -7.2700 c3        1 RIV     -0.009000
     19 O19         2.8680   -1.9490   -6.2310 o         1 RIV     -0.167000
     20 C20         4.5040    1.6050   -8.2190 c3        1 RIV     -0.031000
     21 N21         3.0880    1.6190   -8.4220 n         1 RIV     -0.368000
     22 C22         2.1840    2.1070   -7.4970 c2        1 RIV      0.409000
     23 S23        -0.2210    3.3990   -7.1550 ss        1 RIV      0.740000
     24 C24        -1.4980    3.0880   -8.1810 c2        1 RIV     -0.375000
     25 C25         0.8060    2.3300   -7.9290 c2        1 RIV     -0.507000
     26 C26        -1.1670    2.1420   -9.1480 c2        1 RIV     -0.157000
     27 C27         0.1720    1.7050   -9.0020 c2        1 RIV     -0.094000
     28 O28         2.5620    2.3120   -6.3140 o         1 RIV     -0.465000
     29 H11C        2.5640    1.6130   -1.3910 h1        1 RIV      0.100000
     30 H12C        1.2400    2.1280   -0.2580 h1        1 RIV      0.100000
     31 H31C        0.8210    1.1000   -1.6980 h1        1 RIV      0.100000
     32 H32C       -2.7290    0.3300    0.8590 ha        1 RIV      0.062000
     33 H61C       -0.7570    0.3180    2.1440 h1        1 RIV      0.140000
     34 H62C        0.2670    1.7840    1.7030 h1        1 RIV      0.140000
     35 H9          6.2900   -0.7250   -3.4360 ha        1 RIV      0.208000
     36 H10         4.3480   -1.7120   -1.5400 ha        1 RIV      0.163000
     37 H11         3.0630   -1.4920    0.4100 h4        1 RIV      0.190000
     38 H161        3.0040    0.6190   -5.1420 hn        1 RIV      0.287000
     39 H162        5.9240    0.6900   -5.2390 hx        1 RIV      0.172000
     40 H18         4.6790    1.9890   -5.6380 hx        1 RIV      0.172000
     41 H201        6.1300    0.2950   -7.5590 h1        1 RIV      0.166000
     42 H202        4.9930    1.4480   -9.2260 h1        1 RIV      0.125500
     43 H21         4.8440    2.6030   -7.8080 h1        1 RIV      0.125500
     44 H26         0.6190    0.9520   -9.6580 ha        1 RIV      0.161000
     45 H27        -1.8460    1.7760   -9.9240 ha        1 RIV      0.185000
     46 CL         -2.9840    3.8300   -8.0520 cl        1 RIV      0.095000
     47 H212        2.7670    1.4310   -9.3450 hn        1 RIV      0.254000
     48 H8          2.3860    0.2260   -3.0020 ha        1 RIV      0.141000
@<TRIPOS>BOND
     1    1    2 1   
     2    1   29 1   
     3    1   30 1   
     4    1   31 1   
     5    2    4 1   
     6    2   12 1   
     7    3    5 1   
     8    3   32 1   
     9    4    6 1   
    10    4   13 1   
    11    5    6 1   
    12    6   33 1   
    13    6   34 1   
    14    7    8 1   
    15    7    9 1   
    16    7   14 1   
    17    8   10 1   
    18    8   48 1   
    19    9   11 1   
    20    9   35 1   
    21   10   12 1   
    22   10   36 1   
    23   12   37 1   
    24   14   15 1   
    25   14   16 1   
    26   14   38 1   
    27   15   17 1   
    28   15   19 1   
    29   16   18 1   
    30   16   39 1   
    31   16   40 1   
    32   17   18 1   
    33   18   20 1   
    34   18   41 1   
    35   20   21 1   
    36   20   42 1   
    37   20   43 1   
    38   21   22 1   
    39   21   47 1   
    40   22   25 1   
    41   22   28 1   
    42   23   24 1   
    43   23   25 1   
    44   24   26 1   
    45   24   46 1   
    46   25   27 1   
    47   26   27 1   
    48   26   45 1   
    49   27   44 1   
@<TRIPOS>SUBSTRUCTURE
     1 RIV         1 TEMP              0 ****  ****    0 ROOT
