@<TRIPOS>MOLECULE
RIV
   47    44     1     0     0
SMALL
bcc


@<TRIPOS>ATOM
      1 C1         -3.3420   -3.5520    3.5760 c3        1 RIV     -0.055000
      2 N2         -2.7980   -2.2160    3.7700 n         1 RIV     -0.281000
      3 C3         -3.6690   -4.2270    4.7980 c3        1 RIV     -0.040000
      4 C4         -3.5820   -1.4270    4.6110 c2        1 RIV      0.282000
      5 O5         -4.5110   -3.4190    5.6880 os        1 RIV     -0.257000
      6 C6         -3.9710   -2.1540    5.9660 c3        1 RIV     -0.042000
      7 C7         -0.3690    0.0180    1.1310 c1        1 RIV      0.067000
      8 C8         -1.7280   -0.1730    0.8140 c1        1 RIV     -0.149000
      9 C9          0.1790   -0.6020    2.2490 c1        1 RIV     -0.141000
     10 C10        -2.5220   -0.9750    1.6130 c1        1 RIV     -0.149000
     11 C11        -0.6070   -1.4030    3.0480 c1        1 RIV     -0.101000
     12 C12        -1.9780   -1.5950    2.7300 c1        1 RIV      0.047000
     13 O13        -3.4980   -0.2300    4.5710 o         1 RIV     -0.342000
     14 N14         0.4070    0.8840    0.3660 n         1 RIV     -0.281000
     15 C15         0.5310    2.3090    0.5640 c2        1 RIV      0.394000
     16 C16         1.1040    0.5420   -0.8230 c3        1 RIV     -0.058000
     17 O17         1.3410    2.8310   -0.4850 os        1 RIV     -0.245000
     18 C18         1.5620    1.7960   -1.4200 c3        1 RIV     -0.024000
     19 O19         0.0430    2.9570    1.4960 o         1 RIV     -0.306000
     20 C20         3.0590    1.6920   -1.7440 c3        1 RIV     -0.039000
     21 N21         3.3390    2.3790   -3.0530 n         1 RIV     -0.361000
     22 C22         3.7970    1.6310   -4.1560 c2        1 RIV      0.374000
     23 S23         2.5290    3.2610   -5.9430 ss        1 RIV      0.631000
     24 C24         2.4930    3.3400   -7.4750 c1        1 RIV     -0.367000
     25 C25         3.4590    2.0750   -5.5580 c2        1 RIV     -0.454000
     26 C26         3.3320    2.2880   -7.9930 c1        1 RIV     -0.164000
     27 C27         3.9450    1.4860   -6.7650 c1        1 RIV     -0.075000
     28 O28         4.5640    0.6510   -3.9750 o         1 RIV     -0.356000
     29 CL          1.6820    4.6190   -8.4470 cl        1 RIV      0.060000
     30 H11C       -4.1350   -3.4860    3.0400 h1        1 RIV      0.096000
     31 H12C       -2.6780   -4.0930    3.0900 h1        1 RIV      0.096000
     32 H31C       -4.1510   -5.0690    4.5790 h1        1 RIV      0.104500
     33 H32C       -2.8600   -4.4450    5.2530 h1        1 RIV      0.104500
     34 H61C       -3.1490   -2.1050    6.5150 h1        1 RIV      0.126000
     35 H62C       -4.6140   -1.6730    6.5360 h1        1 RIV      0.126000
     36 H8         -2.1290    0.2840   -0.0080 ha        1 RIV      0.134500
     37 H9          1.0870   -0.4730    2.4590 ha        1 RIV      0.174000
     38 H10        -3.4830   -1.1080    1.3860 ha        1 RIV      0.134500
     39 H11        -0.2140   -1.8460    3.8460 ha        1 RIV      0.166000
     40 H161        0.4270    0.1540   -1.4510 h1        1 RIV      0.110000
     41 H162        1.8950    0.0650   -0.5500 h1        1 RIV      0.110000
     42 H18         1.0890    1.9660   -2.1900 h1        1 RIV      0.134000
     43 H201        3.3100    0.7590   -1.8100 h1        1 RIV      0.119000
     44 H202        3.5770    2.1180   -1.0340 h1        1 RIV      0.119000
     45 H21         3.2470    3.2750   -3.1210 hn        1 RIV      0.228000
     46 H26         3.4850    2.1140   -8.8720 DU        1 RIV      0.175000
     47 H27         4.5050    0.7760   -6.8210 DU        1 RIV      0.175000
@<TRIPOS>BOND
     1    1    2 1   
     2    1    3 1   
     3    1   30 1   
     4    1   31 1   
     5    2    4 1   
     6    2   12 1   
     7    3    5 1   
     8    3   32 1   
     9    3   33 1   
    10    4    6 1   
    11    4   13 1   
    12    5    6 1   
    13    6   34 1   
    14    6   35 1   
    15    7    9 1   
    16    7   14 1   
    17    8   10 1   
    18    8   36 1   
    19    9   37 1   
    20   10   38 1   
    21   11   12 1   
    22   11   39 1   
    23   14   15 1   
    24   14   16 1   
    25   15   17 1   
    26   15   19 1   
    27   16   18 1   
    28   16   40 1   
    29   16   41 1   
    30   17   18 1   
    31   18   20 1   
    32   18   42 1   
    33   20   21 1   
    34   20   43 1   
    35   20   44 1   
    36   21   22 1   
    37   21   45 1   
    38   22   25 1   
    39   22   28 1   
    40   23   24 1   
    41   23   25 1   
    42   24   26 1   
    43   25   27 1   
    44   26   27 1   
@<TRIPOS>SUBSTRUCTURE
     1 RIV         1 TEMP              0 ****  ****    0 ROOT
