@<TRIPOS>MOLECULE
RIV
   48    49     1     0     0
SMALL
bcc


@<TRIPOS>ATOM
      1 C1          0.6930    0.6000   -1.2150 c3        1 RIV     -0.133000
      2 N2          1.5850    0.2970   -0.1260 n         1 RIV     -0.269000
      3 C3         -1.8510    0.1960    0.6190 c1        1 RIV     -0.076000
      4 C4          1.2340    0.6370    1.2060 c2        1 RIV      0.284000
      5 O5         -1.1430    0.4840    1.6860 os        1 RIV     -0.148000
      6 C6         -0.0510    1.4100    1.4820 c3        1 RIV     -0.040000
      7 C7          3.9110   -0.6020   -3.8840 c2        1 RIV     -0.110000
      8 C8          3.2240   -0.1320   -2.7940 c2        1 RIV      0.052000
      9 C9          4.8420   -1.6540   -3.8310 c1        1 RIV     -0.193000
     10 C10         3.4590   -0.6300   -1.4860 c2        1 RIV     -0.302000
     11 C11         5.6160   -2.5630   -3.7290 c1        1 RIV     -0.096000
     12 C12         2.7700   -0.3790   -0.3340 c2        1 RIV      0.106000
     13 O13         1.9950    0.3420    2.1370 o         1 RIV     -0.282000
     14 N14         3.6790   -0.0090   -5.2090 n4        1 RIV      0.005000
     15 C15         3.0860   -1.0040   -6.1920 c2        1 RIV      0.339000
     16 C16         4.9310    0.4800   -5.8810 c3        1 RIV     -0.148000
     17 O17         3.8050   -1.0350   -7.3490 os        1 RIV     -0.167000
     18 C18         4.8590   -0.0350   -7.3360 c3        1 RIV     -0.009000
     19 O19         2.0950   -1.6870   -6.0290 o         1 RIV     -0.169000
     20 C20         4.5840    1.0740   -8.3700 c3        1 RIV     -0.030000
     21 N21         3.2220    1.4680   -8.5630 n         1 RIV     -0.367000
     22 C22         2.5070    2.2370   -7.6650 c2        1 RIV      0.409000
     23 S23         0.5720    4.1810   -7.4300 ss        1 RIV      0.737000
     24 C24        -0.7760    4.1500   -8.4110 c2        1 RIV     -0.376000
     25 C25         1.2320    2.8010   -8.1050 c2        1 RIV     -0.504000
     26 C26        -0.7560    3.0650   -9.2840 c2        1 RIV     -0.156000
     27 C27         0.4120    2.2840   -9.1080 c2        1 RIV     -0.095000
     28 O28         2.9520    2.4030   -6.5000 o         1 RIV     -0.464000
     29 H11C        0.7900   -0.1860   -2.0130 h1        1 RIV      0.112333
     30 H12C       -0.3850    0.5970   -0.8700 h1        1 RIV      0.112333
     31 H31C        0.9350    1.6090   -1.6470 h1        1 RIV      0.112333
     32 H32C       -2.6780   -0.4890    0.9250 ha        1 RIV      0.082000
     33 H61C        0.0550    1.9200    2.4800 h1        1 RIV      0.145500
     34 H62C       -0.2950    2.1450    0.6740 h1        1 RIV      0.145500
     35 H9          6.3010   -3.3730   -3.6390 ha        1 RIV      0.250000
     36 H10         4.3380   -1.2960   -1.3740 ha        1 RIV      0.166000
     37 H11         3.2200   -0.7770    0.6120 h4        1 RIV      0.190000
     38 H161        3.0160    0.7840   -5.1270 hn        1 RIV      0.288000
     39 H162        5.8320    0.0620   -5.3520 hx        1 RIV      0.176000
     40 H18         4.9510    1.6060   -5.8400 hx        1 RIV      0.176000
     41 H201        5.7960   -0.5890   -7.6210 h1        1 RIV      0.165000
     42 H202        5.2000    1.9660   -8.0510 h1        1 RIV      0.124500
     43 H21         4.9760    0.7050   -9.3640 h1        1 RIV      0.124500
     44 H26         0.6080    1.3800   -9.6900 ha        1 RIV      0.161000
     45 H27        -1.5370    2.8380  -10.0160 ha        1 RIV      0.184000
     46 CL         -1.9890    5.2900   -8.3430 cl        1 RIV      0.093000
     47 H212        2.8360    1.3140   -9.4680 hn        1 RIV      0.254000
     48 H8          2.4940    0.6910   -2.9180 ha        1 RIV      0.139000
@<TRIPOS>BOND
     1    1    2 1   
     2    1   29 1   
     3    1   30 1   
     4    1   31 1   
     5    2    4 1   
     6    2   12 1   
     7    3    5 1   
     8    3   32 1   
     9    4    6 1   
    10    4   13 1   
    11    5    6 1   
    12    6   33 1   
    13    6   34 1   
    14    7    8 1   
    15    7    9 1   
    16    7   14 1   
    17    8   10 1   
    18    8   48 1   
    19    9   11 1   
    20   10   12 1   
    21   10   36 1   
    22   11   35 1   
    23   12   37 1   
    24   14   15 1   
    25   14   16 1   
    26   14   38 1   
    27   15   17 1   
    28   15   19 1   
    29   16   18 1   
    30   16   39 1   
    31   16   40 1   
    32   17   18 1   
    33   18   20 1   
    34   18   41 1   
    35   20   21 1   
    36   20   42 1   
    37   20   43 1   
    38   21   22 1   
    39   21   47 1   
    40   22   25 1   
    41   22   28 1   
    42   23   24 1   
    43   23   25 1   
    44   24   26 1   
    45   24   46 1   
    46   25   27 1   
    47   26   27 1   
    48   26   45 1   
    49   27   44 1   
@<TRIPOS>SUBSTRUCTURE
     1 RIV         1 TEMP              0 ****  ****    0 ROOT
