@<TRIPOS>MOLECULE
RJ1
   30    30     1     0     0
SMALL
bcc


@<TRIPOS>ATOM
      1 C1         -0.1180    0.1610   -0.2180 ca        1 RJ1     -0.145300
      2 C2          1.2430    0.4910   -0.1940 ca        1 RJ1      0.049000
      3 C3          1.9700    0.3650    0.9980 ca        1 RJ1     -0.082000
      4 C4          1.3500   -0.0920    2.1600 ca        1 RJ1      0.052400
      5 C5         -0.0280   -0.4500    2.1180 ca        1 RJ1     -0.168400
      6 C6         -0.7620   -0.3140    0.9190 ca        1 RJ1     -0.041000
      7 CL7         2.2280   -0.2560    3.5910 cl        1 RJ1      0.007600
      8 C8         -0.9420    0.3250   -1.5180 c3        1 RJ1      0.699200
      9 F9         -1.8650   -0.6740   -1.6800 f         1 RJ1     -0.191967
     10 F10        -1.6610    1.4910   -1.5180 f         1 RJ1     -0.191967
     11 F11        -0.1790    0.3380   -2.6470 f         1 RJ1     -0.191967
     12 N12        -0.6520   -1.0840    3.2760 n4        1 RJ1     -0.599400
     13 C13        -1.3780   -0.0690    4.1390 c2        1 RJ1      0.605100
     14 N14        -2.1400   -0.6500    5.3290 n4        1 RJ1     -0.737000
     15 C15        -1.9900    0.2350    6.5670 c2        1 RJ1      0.640100
     16 N16        -3.0800    1.2500    6.7460 n4        1 RJ1     -0.849600
     17 N17        -1.4470    1.1940    4.0090 n2        1 RJ1     -0.656100
     18 N18        -0.9670    0.0120    7.2800 n2        1 RJ1     -0.596100
     19 H2          1.7480    0.8460   -1.1210 ha        1 RJ1      0.236000
     20 H3          3.0510    0.6220    1.0110 ha        1 RJ1      0.232000
     21 H6         -1.8280   -0.6010    0.8430 ha        1 RJ1      0.185000
     22 HN12       -1.3180   -1.7990    2.9340 hn        1 RJ1      0.504800
     23 HN14       -3.1360   -0.7580    5.0650 hn        1 RJ1      0.517800
     24 HN16       -2.8980    1.8000    7.6130 hn        1 RJ1      0.517800
     25 HN1A       -3.1140    1.9190    5.9560 hn        1 RJ1      0.517800
     26 HN17       -1.0060    1.7050    3.2570 hn        1 RJ1      0.565400
     27 HN18       -0.6970    0.4650    8.1420 hn        1 RJ1      0.580400
     28 H122        0.1010   -1.5360    3.8400 hn        1 RJ1      0.504800
     29 H142       -1.7740   -1.5930    5.5780 hn        1 RJ1      0.517800
     30 H163       -4.0070    0.8010    6.8580 hn        1 RJ1      0.517800
@<TRIPOS>BOND
     1    1    2 ar  
     2    1    6 ar  
     3    1    8 1   
     4    2    3 ar  
     5    2   19 1   
     6    3    4 ar  
     7    3   20 1   
     8    4    5 ar  
     9    4    7 1   
    10    5    6 ar  
    11    5   12 1   
    12    6   21 1   
    13    8    9 1   
    14    8   10 1   
    15    8   11 1   
    16   12   13 1   
    17   12   22 1   
    18   12   28 1   
    19   13   14 1   
    20   13   17 2   
    21   14   15 1   
    22   14   23 1   
    23   14   29 1   
    24   15   16 1   
    25   15   18 2   
    26   16   24 1   
    27   16   25 1   
    28   16   30 1   
    29   17   26 1   
    30   18   27 1   
@<TRIPOS>SUBSTRUCTURE
     1 RJ1         1 TEMP              0 ****  ****    0 ROOT
