@<TRIPOS>MOLECULE
RJ1
   29    28     1     0     0
SMALL
bcc


@<TRIPOS>ATOM
      1 C1        200.7310   45.6490 -451.1380 ca        1 RJ1     -0.156300
      2 C2        200.7590   46.8500 -451.8500 ca        1 RJ1     -0.022000
      3 C3        200.5540   46.8430 -453.2310 ca        1 RJ1     -0.105000
      4 C4        200.3270   45.6410 -453.9050 ca        1 RJ1      0.045400
      5 C5        200.2950   44.4270 -453.1750 ca        1 RJ1     -0.104200
      6 C6        200.4990   44.4360 -451.7840 ca        1 RJ1     -0.044000
      7 Cl7       200.0840   45.6470 -455.5770 cl        1 RJ1     -0.025400
      8 C8        200.9410   45.6500 -449.6200 c3        1 RJ1      0.692200
      9 F9        199.7700   45.6790 -448.9070 f         1 RJ1     -0.216300
     10 F10       201.6040   44.5390 -449.1600 f         1 RJ1     -0.216300
     11 F11       201.6690   46.7150 -449.1590 f         1 RJ1     -0.216300
     12 N12       199.9890   43.1950 -453.8380 nu        1 RJ1     -0.137500
     13 C13       200.9100   42.2670 -453.9980 c1        1 RJ1      0.530400
     14 N14      -385.2610  -84.7110  868.0880 nv        1 RJ1     -0.889800
     15 C15      -383.9220  -84.5930  867.6320 c2        1 RJ1      0.716100
     16 N16      -382.9670  -85.1530  868.7280 nz        1 RJ1     -0.886600
     17 N17       201.7730   41.4870 -454.2170 n2        1 RJ1     -0.574800
     18 N18      -383.5050  -84.0910  866.5380 n2        1 RJ1     -0.692100
     19 H2        200.9460   47.8030 -451.3220 ha        1 RJ1      0.192000
     20 H3        200.5730   47.7940 -453.7930 ha        1 RJ1      0.192000
     21 H6        200.4710   43.5040 -451.1920 ha        1 RJ1      0.174000
     22 HN12      199.2030   43.1940 -454.4750 hn        1 RJ1      0.366700
     23 HN14     -385.7240  -85.5220  867.7210 hn        1 RJ1      0.445300
     24 HN16     -381.9870  -85.0320  868.4680 hn        1 RJ1      0.463133
     25 HN1A     -383.1460  -84.6620  869.6110 hn        1 RJ1      0.463133
     26 HN17      202.2270   40.6360 -453.9830 hn        1 RJ1      0.625400
     27 HN18     -382.5420  -83.9800  866.3090 hn        1 RJ1      0.471400
     28 H142     -385.7910  -83.8700  867.9450 hn        1 RJ1      0.445300
     29 H163     -383.1570  -86.1490  868.8690 hn        1 RJ1      0.463133
@<TRIPOS>BOND
     1    1    2 ar  
     2    1    6 ar  
     3    1    8 1   
     4    2    3 ar  
     5    2   19 1   
     6    3    4 ar  
     7    3   20 1   
     8    4    5 ar  
     9    4    7 1   
    10    5    6 ar  
    11    5   12 1   
    12    6   21 1   
    13    8    9 1   
    14    8   10 1   
    15    8   11 1   
    16   12   13 2   
    17   12   22 1   
    18   13   17 2   
    19   14   15 1   
    20   14   23 1   
    21   14   28 1   
    22   15   16 1   
    23   15   18 2   
    24   16   24 1   
    25   16   25 1   
    26   16   29 1   
    27   17   26 1   
    28   18   27 1   
@<TRIPOS>SUBSTRUCTURE
     1 RJ1         1 TEMP              0 ****  ****    0 ROOT
