@<TRIPOS>MOLECULE
RJ1
   27    27     1     0     0
SMALL
bcc


@<TRIPOS>ATOM
      1 C1          2.3460    0.1300    0.0590 ca        1 RJ1     -0.156300
      2 C2          2.4740    1.5170   -0.0430 ca        1 RJ1     -0.094000
      3 C3          1.3360    2.3120    0.0320 ca        1 RJ1     -0.115000
      4 C4          0.0770    1.7280    0.1960 ca        1 RJ1     -0.000600
      5 C5         -0.0660    0.3220    0.3040 ca        1 RJ1      0.148600
      6 C6          1.1020   -0.4700    0.2340 ca        1 RJ1     -0.059000
      7 CL7        -1.2800    2.7500    0.2760 cl        1 RJ1     -0.078400
      8 C8          3.5920   -0.7430   -0.0350 c3        1 RJ1      0.689200
      9 F9          3.5090   -1.9400    0.6340 f         1 RJ1     -0.236300
     10 F10         3.9360   -1.0990   -1.3170 f         1 RJ1     -0.236300
     11 F11         4.7320   -0.1600    0.4650 f         1 RJ1     -0.236300
     12 N12        -1.3180   -0.2700    0.5790 nh        1 RJ1     -0.668600
     13 C13        -1.8250   -1.3010   -0.2740 c2        1 RJ1      0.810100
     14 N14        -3.1420   -1.7860    0.1170 nh        1 RJ1     -0.821200
     15 C15        -4.2740   -0.9060    0.0020 c2        1 RJ1      0.766100
     16 N16        -5.5250   -1.4990    0.3690 nh        1 RJ1     -0.935800
     17 N17        -1.0930   -1.8180   -1.2240 n2        1 RJ1     -0.851100
     18 N18        -4.1120    0.3110   -0.4520 n2        1 RJ1     -0.878100
     19 H2          3.4670    1.9730   -0.1760 ha        1 RJ1      0.155000
     20 H3          1.4270    3.4070   -0.0460 ha        1 RJ1      0.155000
     21 H6          1.0380   -1.5680    0.3200 ha        1 RJ1      0.173000
     22 HN12       -2.0120    0.3860    0.8850 hn        1 RJ1      0.444800
     23 HN14       -3.3290   -2.7100   -0.2190 hn        1 RJ1      0.420800
     24 HN16       -5.4680   -2.3010    0.9580 hn        1 RJ1      0.399300
     25 HN1A       -6.2010   -0.8410    0.6880 hn        1 RJ1      0.399300
     26 HN17       -1.4960   -2.5720   -1.7350 hn        1 RJ1      0.402400
     27 HN18       -4.9230    0.8900   -0.4510 hn        1 RJ1      0.403400
@<TRIPOS>BOND
     1    1    2 ar  
     2    1    6 ar  
     3    1    8 1   
     4    2    3 ar  
     5    2   19 1   
     6    3    4 ar  
     7    3   20 1   
     8    4    5 ar  
     9    4    7 1   
    10    5    6 ar  
    11    5   12 1   
    12    6   21 1   
    13    8    9 1   
    14    8   10 1   
    15    8   11 1   
    16   12   13 1   
    17   12   22 1   
    18   13   14 1   
    19   13   17 2   
    20   14   15 1   
    21   14   23 1   
    22   15   16 1   
    23   15   18 2   
    24   16   24 1   
    25   16   25 1   
    26   17   26 1   
    27   18   27 1   
@<TRIPOS>SUBSTRUCTURE
     1 RJ1         1 TEMP              0 ****  ****    0 ROOT
