@<TRIPOS>MOLECULE
RJ1
   27    22     1     0     0
SMALL
bcc


@<TRIPOS>ATOM
      1 C1          0.9460   -0.9470   -2.8520 c1        1 RJ1     -0.139000
      2 C2          2.3310   -0.8920   -2.6250 c2        1 RJ1     -0.103000
      3 C3          2.8280   -0.2970   -1.4560 c1        1 RJ1     -0.111000
      4 C4          1.9390    0.2450   -0.5110 c1        1 RJ1     -0.057000
      5 C5          0.5610    0.1910   -0.7360 c1        1 RJ1      0.062000
      6 C6          0.0610   -0.4060   -1.9090 c1        1 RJ1     -0.123000
      7 CL7         2.5590    1.0530    0.9060 cl        1 RJ1      0.010000
      8 C8          0.4020   -1.4980   -4.2140 c2        1 RJ1      0.466000
      9 F9         -0.5000   -2.4730   -3.9780 f         1 RJ1     -0.165000
     10 F10        -0.1860   -0.4990   -4.9050 f         1 RJ1     -0.165000
     11 F11         1.4420   -2.0050   -4.9440 f         1 RJ1     -0.165000
     12 N12        -0.3490    0.7770    0.2160 n3        1 RJ1     -0.257000
     13 C13        -0.3890    0.2840    1.5580 c2        1 RJ1      0.185000
     14 N14        -1.6660    0.1150    2.2330 n3        1 RJ1     -0.264000
     15 C15        -1.9490    0.8530    3.4230 c2        1 RJ1      0.177000
     16 N16        -3.2730    1.1780    3.7420 n3        1 RJ1     -0.372000
     17 N17         0.7560   -0.0240    2.1970 n1        1 RJ1     -0.266000
     18 N18        -1.0180    1.1290    4.2320 n1        1 RJ1     -0.363000
     19 H2          2.9490   -1.2700   -3.2830 ha        1 RJ1      0.157000
     20 H3          3.7950   -0.2590   -1.2970 ha        1 RJ1      0.156000
     21 H6         -0.9260   -0.4440   -2.0690 ha        1 RJ1      0.160000
     22 HN12       -0.9760    1.3830   -0.0660 hn        1 RJ1      0.224000
     23 HN14       -2.3200   -0.4180    1.8570 hn        1 RJ1      0.225000
     24 HN16       -3.4500    1.7530    4.4320 hn        1 RJ1      0.195500
     25 HN1A       -3.9580    0.7800    3.2940 hn        1 RJ1      0.195500
     26 HN17        1.5910    0.0860    1.7560 DU        1 RJ1      0.169000
     27 HN18       -1.1990    1.6040    4.9980 DU        1 RJ1      0.169000
@<TRIPOS>BOND
     1    1    2 1   
     2    1    6 1   
     3    2    3 1   
     4    2   19 1   
     5    3   20 1   
     6    4    5 1   
     7    4    7 1   
     8    5   12 1   
     9    6   21 1   
    10    8    9 1   
    11    8   10 1   
    12    8   11 1   
    13   12   13 1   
    14   12   22 1   
    15   13   14 1   
    16   13   17 1   
    17   14   15 1   
    18   14   23 1   
    19   15   16 1   
    20   15   18 1   
    21   16   24 1   
    22   16   25 1   
@<TRIPOS>SUBSTRUCTURE
     1 RJ1         1 TEMP              0 ****  ****    0 ROOT
