@<TRIPOS>MOLECULE
RJ1
   29    28     1     0     0
SMALL
bcc


@<TRIPOS>ATOM
      1 C1         29.1020   10.8340  -63.8920 ca        1 RJ1     -0.156300
      2 C2         28.7470   12.1790  -63.7790 ca        1 RJ1     -0.022000
      3 C3         28.8470   13.0200  -64.8880 ca        1 RJ1     -0.105000
      4 C4         29.3060   12.5230  -66.1110 ca        1 RJ1      0.045400
      5 C5         29.6560   11.1550  -66.2210 ca        1 RJ1     -0.105200
      6 C6         29.5530   10.3090  -65.1020 ca        1 RJ1     -0.043000
      7 CL7        29.4260   13.5520  -67.4460 cl        1 RJ1     -0.025400
      8 C8         29.0160    9.9100  -62.6720 c3        1 RJ1      0.692200
      9 F9         28.1180   10.3200  -61.7230 f         1 RJ1     -0.215967
     10 F10        28.6500    8.6240  -62.9820 f         1 RJ1     -0.215967
     11 F11        30.2090    9.7820  -62.0060 f         1 RJ1     -0.215967
     12 N12        30.0510   10.6100  -67.4850 nh        1 RJ1     -0.137500
     13 C13        31.3000   10.2570  -67.7070 c1        1 RJ1      0.531400
     14 N14       -57.4980  -20.0930  132.0700 nh        1 RJ1     -0.888800
     15 C15       -58.8780  -20.4210  132.0460 c2        1 RJ1      0.716100
     16 N16       -59.3130  -20.8700  133.4730 n4        1 RJ1     -0.886600
     17 N17        32.4430   10.0340  -67.9190 n2        1 RJ1     -0.575800
     18 N18       -59.6730  -20.4050  131.0510 n2        1 RJ1     -0.692100
     19 H2         28.3820   12.5770  -62.8130 ha        1 RJ1      0.192000
     20 H3         28.5630   14.0840  -64.7990 ha        1 RJ1      0.191000
     21 H6         29.8030    9.2350  -65.1670 ha        1 RJ1      0.175000
     22 HN12       29.4750   10.8340  -68.2870 hn        1 RJ1      0.366700
     23 HN14      -57.3370  -19.1060  132.1570 hn        1 RJ1      0.445300
     24 HN16      -59.1930  -20.0920  134.1270 hn        1 RJ1      0.463133
     25 HN1A      -58.7120  -21.6440  133.7780 hn        1 RJ1      0.463133
     26 HN17       33.1790    9.3730  -68.0030 hn        1 RJ1      0.625400
     27 HN18      -60.6200  -20.7120  131.0910 hn        1 RJ1      0.471400
     28 H142      -56.9930  -20.4970  131.3020 hn        1 RJ1      0.445300
     29 H163      -60.2870  -21.1750  133.4890 hn        1 RJ1      0.463133
@<TRIPOS>BOND
     1    1    2 ar  
     2    1    6 ar  
     3    1    8 1   
     4    2    3 ar  
     5    2   19 1   
     6    3    4 ar  
     7    3   20 1   
     8    4    5 ar  
     9    4    7 1   
    10    5    6 ar  
    11    5   12 1   
    12    6   21 1   
    13    8    9 1   
    14    8   10 1   
    15    8   11 1   
    16   12   13 2   
    17   12   22 1   
    18   13   17 2   
    19   14   15 1   
    20   14   23 1   
    21   14   28 1   
    22   15   16 1   
    23   15   18 2   
    24   16   24 1   
    25   16   25 1   
    26   16   29 1   
    27   17   26 1   
    28   18   27 1   
@<TRIPOS>SUBSTRUCTURE
     1 RJ1         1 TEMP              0 ****  ****    0 ROOT
