@<TRIPOS>MOLECULE
RJ6
   34    33     1     0     0
SMALL
bcc


@<TRIPOS>ATOM
      1 C1       -173.1690  256.7870 -124.3510 ca        1 RJ6      0.211600
      2 C2       -173.3510  256.3870 -123.0210 ca        1 RJ6     -0.262000
      3 C3       -173.9630  257.2740 -122.1290 ca        1 RJ6      0.211600
      4 C4       -174.3980  258.5520 -122.5400 ca        1 RJ6     -0.214000
      5 C5       -174.2010  258.9160 -123.8790 ca        1 RJ6      0.012800
      6 C6       -173.5880  258.0550 -124.8000 ca        1 RJ6     -0.214000
      7 O7       -172.5850  256.0160 -125.3230 os        1 RJ6     -0.310400
      8 C8       -172.1350  254.7160 -124.9340 c3        1 RJ6      0.106700
      9 O9       -174.1980  257.0070 -120.8050 os        1 RJ6     -0.310400
     10 C10      -173.7840  255.7300 -120.3180 c3        1 RJ6      0.106700
     11 N11      -174.6600  260.2130 -124.2860 nu        1 RJ6     -0.129500
     12 C12      -174.5160  260.6650 -125.5010 c1        1 RJ6      0.505400
     13 N13       420.8670 -619.3470  302.9820 nv        1 RJ6     -0.889800
     14 C14       420.2820 -619.8520  304.1720 c2        1 RJ6      0.716100
     15 N15       421.3160 -620.7690  304.8910 nz        1 RJ6     -0.886600
     16 N16      -174.2040  261.1490 -126.5480 n2        1 RJ6     -0.566800
     17 N17       419.1240 -619.6070  304.6450 n2        1 RJ6     -0.692100
     18 H2       -173.0170  255.3940 -122.6840 ha        1 RJ6      0.172000
     19 H4       -174.8750  259.2120 -121.8000 ha        1 RJ6      0.166000
     20 H6       -173.4160  258.3230 -125.8510 ha        1 RJ6      0.166000
     21 H8       -172.9950  254.0950 -124.5850 h1        1 RJ6      0.063033
     22 H8A      -171.3480  254.7940 -124.1460 h1        1 RJ6      0.063033
     23 H8B      -171.7080  254.3050 -125.8860 h1        1 RJ6      0.063033
     24 H10      -172.6780  255.6130 -120.4190 h1        1 RJ6      0.063033
     25 H10A     -174.3250  254.9130 -120.8540 h1        1 RJ6      0.063033
     26 H10B     -174.0830  255.7660 -119.2390 h1        1 RJ6      0.063033
     27 HN11     -175.0360  260.8270 -123.5760 hn        1 RJ6      0.366700
     28 HN13      420.7290 -618.3580  302.8760 hn        1 RJ6      0.445300
     29 HN15      421.5400 -621.5670  304.2900 hn        1 RJ6      0.463133
     30 HN1A      420.9570 -621.1110  305.7830 hn        1 RJ6      0.463133
     31 HN16     -174.5550  261.2830 -127.4680 hn        1 RJ6      0.603400
     32 HN17      418.8000 -619.9480  305.5240 hn        1 RJ6      0.471400
     33 H132      420.5880 -619.8620  302.1670 hn        1 RJ6      0.445300
     34 H153      422.1780 -620.2370  305.0550 hn        1 RJ6      0.463133
@<TRIPOS>BOND
     1    1    2 ar  
     2    1    6 ar  
     3    1    7 1   
     4    2    3 ar  
     5    2   18 1   
     6    3    4 ar  
     7    3    9 1   
     8    4    5 ar  
     9    4   19 1   
    10    5    6 ar  
    11    5   11 1   
    12    6   20 1   
    13    7    8 1   
    14    8   21 1   
    15    8   22 1   
    16    8   23 1   
    17    9   10 1   
    18   10   24 1   
    19   10   25 1   
    20   10   26 1   
    21   11   12 2   
    22   11   27 1   
    23   12   16 2   
    24   13   14 1   
    25   13   28 1   
    26   13   33 1   
    27   14   15 1   
    28   14   17 2   
    29   15   29 1   
    30   15   30 1   
    31   15   34 1   
    32   16   31 1   
    33   17   32 1   
@<TRIPOS>SUBSTRUCTURE
     1 RJ6         1 TEMP              0 ****  ****    0 ROOT
