@<TRIPOS>MOLECULE
RJ6
   34    33     1     0     0
SMALL
bcc


@<TRIPOS>ATOM
      1 C1        -55.7490   91.1730  -36.5890 ca        1 RJ6      0.211600
      2 C2        -55.7270   91.9990  -35.4580 ca        1 RJ6     -0.262000
      3 C3        -56.2650   93.2880  -35.5540 ca        1 RJ6      0.211600
      4 C4        -56.8230   93.7620  -36.7580 ca        1 RJ6     -0.214000
      5 C5        -56.8250   92.9100  -37.8700 ca        1 RJ6      0.012800
      6 C6        -56.2970   91.6130  -37.8120 ca        1 RJ6     -0.214000
      7 O7        -55.2570   89.8950  -36.6280 os        1 RJ6     -0.310400
      8 C8        -54.6890   89.3820  -35.4220 c3        1 RJ6      0.106700
      9 O9        -56.3050   94.1930  -34.5260 os        1 RJ6     -0.310400
     10 C10       -55.7680   93.7710  -33.2710 c3        1 RJ6      0.106700
     11 N11       -57.3730   93.3440  -39.1240 nh        1 RJ6     -0.129500
     12 C12       -57.8430   94.5460  -39.3110 c1        1 RJ6      0.505400
     13 N13       138.9260 -223.5280   93.8500 nh        1 RJ6     -0.889800
     14 C14       138.4860 -224.2880   94.9650 c2        1 RJ6      0.716100
     15 N15       139.4900 -225.4540   95.2060 n4        1 RJ6     -0.886600
     16 N16       -58.4560   95.5670  -39.4170 n2        1 RJ6     -0.566800
     17 N17       137.4700 -224.0810   95.7060 n2        1 RJ6     -0.692100
     18 H2        -55.2960   91.6410  -34.5120 ha        1 RJ6      0.172000
     19 H4        -57.2420   94.7780  -36.7790 ha        1 RJ6      0.166000
     20 H6        -56.2880   90.9260  -38.6720 ha        1 RJ6      0.166000
     21 H8        -53.8080   89.9940  -35.1140 h1        1 RJ6      0.063033
     22 H8A       -54.3730   88.3470  -35.7160 h1        1 RJ6      0.063033
     23 H8B       -55.4580   89.3470  -34.6120 h1        1 RJ6      0.063033
     24 H10       -56.3330   92.8910  -32.8800 h1        1 RJ6      0.063033
     25 H10A      -55.9250   94.6680  -32.6180 h1        1 RJ6      0.063033
     26 H10B      -54.6800   93.5370  -33.3710 h1        1 RJ6      0.063033
     27 HN11      -57.4570   92.6630  -39.8660 hn        1 RJ6      0.366700
     28 HN13      138.4520 -223.7780   93.0020 hn        1 RJ6      0.445300
     29 HN15      140.4330 -225.0660   95.3200 hn        1 RJ6      0.463133
     30 HN1A      139.2450 -225.9930   96.0380 hn        1 RJ6      0.463133
     31 HN16      -58.3320   96.5100  -39.7080 hn        1 RJ6      0.603400
     32 HN17      137.2550 -224.6190   96.5160 hn        1 RJ6      0.471400
     33 H132      138.9030 -222.5390   94.0260 hn        1 RJ6      0.445300
     34 H153      139.4930 -226.0750   94.3920 hn        1 RJ6      0.463133
@<TRIPOS>BOND
     1    1    2 ar  
     2    1    6 ar  
     3    1    7 1   
     4    2    3 ar  
     5    2   18 1   
     6    3    4 ar  
     7    3    9 1   
     8    4    5 ar  
     9    4   19 1   
    10    5    6 ar  
    11    5   11 1   
    12    6   20 1   
    13    7    8 1   
    14    8   21 1   
    15    8   22 1   
    16    8   23 1   
    17    9   10 1   
    18   10   24 1   
    19   10   25 1   
    20   10   26 1   
    21   11   12 2   
    22   11   27 1   
    23   12   16 2   
    24   13   14 1   
    25   13   28 1   
    26   13   33 1   
    27   14   15 1   
    28   14   17 2   
    29   15   29 1   
    30   15   30 1   
    31   15   34 1   
    32   16   31 1   
    33   17   32 1   
@<TRIPOS>SUBSTRUCTURE
     1 RJ6         1 TEMP              0 ****  ****    0 ROOT
