@<TRIPOS>MOLECULE
RJ6
   35    35     1     0     0
SMALL
bcc


@<TRIPOS>ATOM
      1 C1          0.7870   -0.6660   -0.2380 c2        1 RJ6      0.282000
      2 C2          1.6580    0.4140   -0.3130 c2        1 RJ6     -0.368000
      3 C3          1.9620    1.1550    0.8360 c2        1 RJ6      0.293000
      4 C4          1.3810    0.8340    2.1820 c3        1 RJ6     -0.176000
      5 C5          0.4510   -0.3390    2.1670 c2        1 RJ6     -0.106000
      6 C6          0.1680   -1.0440    1.0430 c2        1 RJ6     -0.069000
      7 O7          0.4070   -1.4530   -1.2390 os        1 RJ6     -0.118000
      8 C8          0.8960   -1.1980   -2.5820 c3        1 RJ6     -0.090000
      9 O9          2.7720    2.1990    0.8890 os        1 RJ6     -0.117000
     10 C10         3.4240    2.6890   -0.3150 c3        1 RJ6     -0.090000
     11 N11        -0.2270   -0.6440    3.4340 n4        1 RJ6     -0.048000
     12 C12         0.5060   -1.6980    4.3200 c2        1 RJ6      0.142000
     13 N13        -0.1730   -1.9500    5.5640 n3        1 RJ6     -0.238000
     14 C14         0.6860   -2.4520    6.6310 c2        1 RJ6      0.105000
     15 N15         0.1850   -3.7910    7.1490 n4        1 RJ6     -0.082000
     16 N16         1.5350   -2.3550    3.9610 n2        1 RJ6     -0.164000
     17 N17         1.7120   -1.8150    7.0370 n2        1 RJ6     -0.121000
     18 H2          2.1090    0.6970   -1.2840 ha        1 RJ6      0.222000
     19 H4          0.8440    1.7680    2.5450 hc        1 RJ6      0.198500
     20 H6         -0.5350   -1.9030    0.9960 ha        1 RJ6      0.221000
     21 H8          2.0060   -1.3100   -2.6030 h1        1 RJ6      0.150000
     22 H8A         0.3850   -2.0140   -3.1650 h1        1 RJ6      0.150000
     23 H8B         0.5620   -0.1850   -2.9150 h1        1 RJ6      0.150000
     24 H10         4.0970    1.8970   -0.7220 h1        1 RJ6      0.152333
     25 H10A        4.0080    3.5630    0.0890 h1        1 RJ6      0.152333
     26 H10B        2.6510    3.0180   -1.0500 h1        1 RJ6      0.152333
     27 HN11       -0.3210    0.2350    3.9670 hn        1 RJ6      0.282000
     28 HN13        2.2390    0.6650    2.9020 hc        1 RJ6      0.198500
     29 HN15       -0.8040   -3.7250    7.4280 hn        1 RJ6      0.287000
     30 HN1A        0.2740   -4.5060    6.4130 hn        1 RJ6      0.287000
     31 HN16        1.9820   -2.2630    3.0750 hn        1 RJ6      0.254000
     32 HN17        2.3240   -2.1280    7.7660 hn        1 RJ6      0.273000
     33 H112       -1.1750   -1.0030    3.2270 hn        1 RJ6      0.282000
     34 H132       -0.7680   -1.2070    5.8980 hn        1 RJ6      0.264000
     35 H153        0.7360   -4.0890    7.9680 hn        1 RJ6      0.287000
@<TRIPOS>BOND
     1    1    2 1   
     2    1    6 1   
     3    1    7 1   
     4    2    3 1   
     5    2   18 1   
     6    3    4 1   
     7    3    9 1   
     8    4    5 1   
     9    4   19 1   
    10    4   28 1   
    11    5    6 1   
    12    5   11 1   
    13    6   20 1   
    14    7    8 1   
    15    8   21 1   
    16    8   22 1   
    17    8   23 1   
    18    9   10 1   
    19   10   24 1   
    20   10   25 1   
    21   10   26 1   
    22   11   12 1   
    23   11   27 1   
    24   11   33 1   
    25   12   13 1   
    26   12   16 1   
    27   13   14 1   
    28   13   34 1   
    29   14   15 1   
    30   14   17 1   
    31   15   29 1   
    32   15   30 1   
    33   15   35 1   
    34   16   31 1   
    35   17   32 1   
@<TRIPOS>SUBSTRUCTURE
     1 RJ6         1 TEMP              0 ****  ****    0 ROOT
