@<TRIPOS>MOLECULE
RJ6
   32    32     1     0     0
SMALL
bcc


@<TRIPOS>ATOM
      1 C1          2.6190    0.8790   -0.3030 ca        1 RJ6      0.187100
      2 C2          2.7940   -0.4560    0.0810 ca        1 RJ6     -0.304000
      3 C3          1.6620   -1.1690    0.4910 ca        1 RJ6      0.187100
      4 C4          0.3870   -0.5850    0.5240 ca        1 RJ6     -0.237500
      5 C5          0.2350    0.7630    0.1460 ca        1 RJ6      0.193600
      6 C6          1.3620    1.4970   -0.2840 ca        1 RJ6     -0.237500
      7 O7          3.6460    1.6960   -0.7350 os        1 RJ6     -0.324900
      8 C8          4.9440    1.1150   -0.7740 c3        1 RJ6      0.113700
      9 O9          1.6880   -2.4910    0.8920 os        1 RJ6     -0.324900
     10 C10         2.9550   -3.1380    0.8590 c3        1 RJ6      0.113700
     11 N11        -1.0030    1.4280    0.2590 nh        1 RJ6     -0.729600
     12 C12        -2.2170    0.6230    0.2850 c2        1 RJ6      0.772100
     13 N13        -2.7480    0.2480   -0.9930 nh        1 RJ6     -0.793200
     14 C14        -4.1200   -0.2240   -1.0420 c2        1 RJ6      0.764100
     15 N15        -4.4000   -1.4670   -0.3800 nh        1 RJ6     -0.889800
     16 N16        -2.7920    0.2390    1.3880 n2        1 RJ6     -0.835100
     17 N17        -4.9690    0.4490   -1.7680 n2        1 RJ6     -0.843100
     18 H2          3.7830   -0.9260    0.0610 ha        1 RJ6      0.145000
     19 H4         -0.4680   -1.1990    0.8410 ha        1 RJ6      0.155500
     20 H6          1.2830    2.5490   -0.5940 ha        1 RJ6      0.155500
     21 H8          5.5900    1.9510   -1.1450 h1        1 RJ6      0.045700
     22 H8A         5.2640    0.7930    0.2460 h1        1 RJ6      0.045700
     23 H8B         4.9700    0.2530   -1.4840 h1        1 RJ6      0.045700
     24 H10         3.3630   -3.1550   -0.1810 h1        1 RJ6      0.045700
     25 H10A        3.6720   -2.6370    1.5540 h1        1 RJ6      0.045700
     26 H10B        2.7240   -4.1750    1.2110 h1        1 RJ6      0.045700
     27 HN11       -1.0730    2.2390   -0.3240 hn        1 RJ6      0.412800
     28 HN13       -2.5200    0.8800   -1.7360 hn        1 RJ6      0.428800
     29 HN15       -3.5800   -1.9460   -0.0650 hn        1 RJ6      0.390300
     30 HN1A       -5.0370   -1.3310    0.3810 hn        1 RJ6      0.390300
     31 HN16       -2.3210    0.4760    2.2340 hn        1 RJ6      0.423400
     32 HN17       -5.8780    0.0510   -1.8580 hn        1 RJ6      0.411400
@<TRIPOS>BOND
     1    1    2 ar  
     2    1    6 ar  
     3    1    7 1   
     4    2    3 ar  
     5    2   18 1   
     6    3    4 ar  
     7    3    9 1   
     8    4    5 ar  
     9    4   19 1   
    10    5    6 ar  
    11    5   11 1   
    12    6   20 1   
    13    7    8 1   
    14    8   21 1   
    15    8   22 1   
    16    8   23 1   
    17    9   10 1   
    18   10   24 1   
    19   10   25 1   
    20   10   26 1   
    21   11   12 1   
    22   11   27 1   
    23   12   13 1   
    24   12   16 2   
    25   13   14 1   
    26   13   28 1   
    27   14   15 1   
    28   14   17 2   
    29   15   29 1   
    30   15   30 1   
    31   16   31 1   
    32   17   32 1   
@<TRIPOS>SUBSTRUCTURE
     1 RJ6         1 TEMP              0 ****  ****    0 ROOT
