@<TRIPOS>MOLECULE
RJA
   77    77     1     0     0
SMALL
bcc


@<TRIPOS>ATOM
      1 C1          3.6250   -4.4160   -0.2030 c         1 RJA      0.910600
      2 O1          4.2400   -5.5120   -0.3190 o         1 RJA     -0.854300
      3 C2          4.4580   -3.1240   -0.1420 c3        1 RJA     -0.195400
      4 O2          4.6220   -0.1650    3.1830 oh        1 RJA     -0.621800
      5 C3          3.9180   -2.1790    0.9030 c3        1 RJA     -0.069400
      6 O3         -4.8290    1.7100   -0.6490 oh        1 RJA     -0.603800
      7 C4          4.5740   -0.8170    0.8250 c3        1 RJA     -0.113400
      8 O4         -6.9680   -2.8500    0.3720 oh        1 RJA     -0.601800
      9 C5          4.0490    0.1260    1.9070 c3        1 RJA      0.165300
     10 O5         -3.6350   -0.7300   -0.7840 os        1 RJA     -0.424600
     11 C6          4.3800    1.5550    1.6130 c2        1 RJA     -0.135200
     12 C7          3.8360    2.2270    0.5910 ce        1 RJA     -0.159000
     13 C8          4.1270    3.6210    0.2850 ce        1 RJA     -0.065200
     14 C9          3.2840    4.4310   -0.3810 c2        1 RJA     -0.177200
     15 O1'         2.3620   -4.3200   -0.1480 o         1 RJA     -0.854300
     16 C10         1.9320    4.0820   -0.8960 c3        1 RJA     -0.027500
     17 C11         0.8790    4.8960   -0.1420 c3        1 RJA     -0.038200
     18 C12        -0.5080    4.4250   -0.4250 c2        1 RJA     -0.105400
     19 C13        -1.0140    3.3650    0.2340 ce        1 RJA     -0.141000
     20 C14        -2.3470    2.8380    0.0450 ce        1 RJA     -0.122000
     21 C15        -2.7920    1.7380    0.6690 c2        1 RJA     -0.189200
     22 C16        -4.1730    1.1970    0.4960 c3        1 RJA      0.182300
     23 C17        -4.1680   -0.3470    0.4820 c3        1 RJA      0.118100
     24 C18        -5.5820   -0.8840    0.6570 c3        1 RJA     -0.144400
     25 C19        -5.6200   -2.3950    0.4470 c3        1 RJA      0.144100
     26 C20        -4.9460   -2.7790   -0.8740 c3        1 RJA     -0.080700
     27 C21        -3.5470   -2.1510   -0.9610 c3        1 RJA      0.192300
     28 C22        -2.5690   -2.7700   -0.0200 c2        1 RJA     -0.285200
     29 C23        -1.3050   -3.0460   -0.3600 c2        1 RJA     -0.075200
     30 C24        -0.3200   -3.6670    0.5400 c3        1 RJA     -0.095900
     31 C25         5.4420    4.1390    0.7530 c3        1 RJA     -0.060900
     32 C26         1.8620    4.3510   -2.3880 c3        1 RJA     -0.086100
     33 C27        -1.2760    5.1850   -1.4400 c3        1 RJA     -0.059900
     34 C28        -4.8830   -4.2780   -1.0400 c3        1 RJA     -0.085100
     35 H2          5.5250   -3.3790    0.0730 hc        1 RJA      0.024700
     36 H2A         4.4150   -2.6430   -1.1530 hc        1 RJA      0.024700
     37 H3          2.8080   -2.0830    0.7600 hc        1 RJA      0.041700
     38 H3A         4.0810   -2.6230    1.9210 hc        1 RJA      0.041700
     39 H4          5.6850   -0.9190    0.9340 hc        1 RJA      0.046200
     40 H4A         4.3710   -0.3620   -0.1790 hc        1 RJA      0.046200
     41 HO4        -7.4050   -2.5430    1.1750 ho        1 RJA      0.393000
     42 H5          2.9290    0.0080    1.9960 h1        1 RJA      0.047700
     43 H6          5.0930    2.0190    2.3140 ha        1 RJA      0.133000
     44 H7          3.1250    1.7200   -0.0850 ha        1 RJA      0.133000
     45 H9          3.5830    5.4740   -0.5870 ha        1 RJA      0.111000
     46 H10         1.7090    2.9910   -0.7230 hc        1 RJA      0.067700
     47 H11         1.0850    4.8110    0.9600 hc        1 RJA      0.045200
     48 H11A        0.9830    5.9790   -0.4160 hc        1 RJA      0.045200
     49 H13        -0.3860    2.8340    0.9730 ha        1 RJA      0.128000
     50 H14        -3.0090    3.3850   -0.6500 ha        1 RJA      0.129000
     51 H15        -2.1520    1.1660    1.3590 ha        1 RJA      0.133000
     52 H16        -4.8140    1.5430    1.3600 h1        1 RJA      0.071700
     53 H17        -3.5000   -0.7340    1.3000 h1        1 RJA      0.055700
     54 H18        -5.9530   -0.6340    1.6830 hc        1 RJA      0.055700
     55 H18A       -6.2570   -0.3880   -0.0890 hc        1 RJA      0.055700
     56 H19        -5.1070   -2.9160    1.3040 h1        1 RJA      0.038700
     57 H20        -5.5690   -2.3440   -1.7060 hc        1 RJA      0.062700
     58 H21        -3.1760   -2.2340   -2.0260 h1        1 RJA      0.074700
     59 H22        -2.9500   -2.9960    0.9870 ha        1 RJA      0.114000
     60 H23        -0.9270   -2.8160   -1.3730 ha        1 RJA      0.123000
     61 H24         0.0580   -4.6310    0.1050 hc        1 RJA      0.071700
     62 H24A        0.5900   -3.0160    0.6350 hc        1 RJA      0.071700
     63 H24B       -0.7390   -3.8620    1.5560 hc        1 RJA      0.071700
     64 H25         6.2570    3.4230    0.4830 hc        1 RJA      0.039700
     65 H25A        5.6770    5.1320    0.2990 hc        1 RJA      0.039700
     66 H25B        5.4310    4.2540    1.8660 hc        1 RJA      0.039700
     67 H26         2.6080    3.7220   -2.9290 hc        1 RJA      0.034033
     68 H26A        0.8400    4.1090   -2.7700 hc        1 RJA      0.034033
     69 H26B        2.0760    5.4250   -2.6070 hc        1 RJA      0.034033
     70 H27        -1.7440    4.4920   -2.1840 hc        1 RJA      0.040033
     71 H27A       -2.0920    5.7720   -0.9490 hc        1 RJA      0.040033
     72 H27B       -0.6170    5.8960   -1.9980 hc        1 RJA      0.040033
     73 H28        -5.9090   -4.7110   -0.9550 hc        1 RJA      0.041033
     74 H28A       -4.4610   -4.5380   -2.0410 hc        1 RJA      0.041033
     75 H28B       -4.2340   -4.7360   -0.2540 hc        1 RJA      0.041033
     76 HO2         4.6500   -1.1270    3.2600 ho        1 RJA      0.413000
     77 HO3        -4.3710    1.3500   -1.4210 ho        1 RJA      0.420000
@<TRIPOS>BOND
     1    1    2 1   
     2    1    3 1   
     3    1   15 1   
     4    3    5 1   
     5    3   35 1   
     6    3   36 1   
     7    4    9 1   
     8    4   76 1   
     9    5    7 1   
    10    5   37 1   
    11    5   38 1   
    12    6   22 1   
    13    6   77 1   
    14    7    9 1   
    15    7   39 1   
    16    7   40 1   
    17    8   25 1   
    18    8   41 1   
    19    9   11 1   
    20    9   42 1   
    21   10   23 1   
    22   10   27 1   
    23   11   12 2   
    24   11   43 1   
    25   12   13 1   
    26   12   44 1   
    27   13   14 2   
    28   13   31 1   
    29   14   16 1   
    30   14   45 1   
    31   16   17 1   
    32   16   32 1   
    33   16   46 1   
    34   17   18 1   
    35   17   47 1   
    36   17   48 1   
    37   18   19 2   
    38   18   33 1   
    39   19   20 1   
    40   19   49 1   
    41   20   21 2   
    42   20   50 1   
    43   21   22 1   
    44   21   51 1   
    45   22   23 1   
    46   22   52 1   
    47   23   24 1   
    48   23   53 1   
    49   24   25 1   
    50   24   54 1   
    51   24   55 1   
    52   25   26 1   
    53   25   56 1   
    54   26   27 1   
    55   26   34 1   
    56   26   57 1   
    57   27   28 1   
    58   27   58 1   
    59   28   29 2   
    60   28   59 1   
    61   29   30 1   
    62   29   60 1   
    63   30   61 1   
    64   30   62 1   
    65   30   63 1   
    66   31   64 1   
    67   31   65 1   
    68   31   66 1   
    69   32   67 1   
    70   32   68 1   
    71   32   69 1   
    72   33   70 1   
    73   33   71 1   
    74   33   72 1   
    75   34   73 1   
    76   34   74 1   
    77   34   75 1   
@<TRIPOS>SUBSTRUCTURE
     1 RJA         1 TEMP              0 ****  ****    0 ROOT
