@<TRIPOS>MOLECULE
RJA
   77    76     1     0     0
SMALL
bcc


@<TRIPOS>ATOM
      1 C1          0.0630   -0.9950    2.7000 c         1 RJA      0.908600
      2 O1          0.6240   -1.7300    3.5600 o         1 RJA     -0.849300
      3 C2         -1.4070   -1.2970    2.3520 c3        1 RJA     -0.197400
      4 O2         -3.8590    1.7530    0.2500 oh        1 RJA     -0.628800
      5 C3         -2.2000   -0.0230    2.1900 c3        1 RJA     -0.072400
      6 O3        -10.8020    6.0400   -1.4900 oh        1 RJA     -0.591800
      7 C4         -3.5590   -0.2780    1.5750 c3        1 RJA     -0.112400
      8 O4         -9.7150    5.4090   -6.6280 oh        1 RJA     -0.599800
      9 C5         -4.3430    1.0190    1.3770 c3        1 RJA      0.166300
     10 O5         -8.5020    5.4410   -2.6830 os        1 RJA     -0.418600
     11 C6         -5.7860    0.7320    1.1040 c2        1 RJA     -0.135200
     12 C7         -6.7530    0.6980    2.0240 ce        1 RJA     -0.155000
     13 C8         -6.6000    0.9380    3.4580 ce        1 RJA     -0.068200
     14 C9         -6.7060    2.1520    4.0200 c2        1 RJA     -0.175200
     15 O1'         0.6390   -0.0420    2.0980 o         1 RJA     -0.849300
     16 C10        -6.9300    3.4190    3.2690 c3        1 RJA     -0.029500
     17 C11        -8.2260    4.0790    3.7410 c3        1 RJA     -0.040200
     18 C12        -8.7390    5.0740    2.7520 c2        1 RJA     -0.071500
     19 C13        -9.2430    4.6920    1.5990 c1        1 RJA     -0.072900
     20 C14        -9.6930    4.3000    0.4880 c1        1 RJA     -0.017900
     21 C15       -10.1250    3.8480   -0.6600 c2        1 RJA     -0.214300
     22 C16       -10.5800    4.6840   -1.8120 c3        1 RJA      0.197300
     23 C17        -9.5730    4.5420   -2.9770 c3        1 RJA      0.111100
     24 C18       -10.2190    4.8900   -4.3100 c3        1 RJA     -0.142400
     25 C19        -9.1670    4.9040   -5.4160 c3        1 RJA      0.144100
     26 C20        -8.0060    5.8250   -5.0270 c3        1 RJA     -0.082700
     27 C21        -7.4510    5.4100   -3.6570 c3        1 RJA      0.184300
     28 C22        -6.7100    4.1140   -3.6570 c2        1 RJA     -0.245200
     29 C23        -6.5460    3.3670   -2.5610 c2        1 RJA     -0.123200
     30 C24        -5.7740    2.1130   -2.5170 c3        1 RJA     -0.084900
     31 C25        -6.3540   -0.2770    4.2770 c3        1 RJA     -0.060900
     32 C26        -5.7450    4.3480    3.4570 c3        1 RJA     -0.087100
     33 C27        -8.6520    6.5040    3.1350 c3        1 RJA     -0.058900
     34 C28        -6.9440    5.8600   -6.0990 c3        1 RJA     -0.083100
     35 H2         -1.4160   -1.8800    1.3960 hc        1 RJA      0.021700
     36 H2A        -1.8540   -1.9380    3.1510 hc        1 RJA      0.021700
     37 H3         -2.3260    0.4680    3.1900 hc        1 RJA      0.045700
     38 H3A        -1.6040    0.6830    1.5500 hc        1 RJA      0.045700
     39 H4         -4.1490   -0.9620    2.2390 hc        1 RJA      0.042700
     40 H4A        -3.4400   -0.7870    0.5840 hc        1 RJA      0.042700
     41 HO4       -10.5080    4.8910   -6.8080 ho        1 RJA      0.396000
     42 H5         -4.2400    1.6740    2.2910 h1        1 RJA      0.048700
     43 H6         -6.0150    0.5490    0.0390 ha        1 RJA      0.127000
     44 H7         -7.7880    0.4550    1.7240 ha        1 RJA      0.119000
     45 H9         -6.6110    2.2720    5.1120 ha        1 RJA      0.118000
     46 H10        -7.0300    3.1890    2.1680 hc        1 RJA      0.072700
     47 H11        -8.0510    4.5820    4.7290 hc        1 RJA      0.050700
     48 H11A       -9.0030    3.2840    3.9010 hc        1 RJA      0.050700
     49 H13       -14.7760    8.2500   -0.1410 ha        1 RJA      0.000000
     50 H14       -14.1880    7.9330   -0.2480 ha        1 RJA      0.000000
     51 H15       -10.1500    2.7600   -0.8470 ha        1 RJA      0.139000
     52 H16       -11.5900    4.3160   -2.1610 h1        1 RJA      0.074700
     53 H17        -9.1710    3.4910   -3.0090 h1        1 RJA      0.054700
     54 H18       -10.7010    5.8990   -4.2370 hc        1 RJA      0.058200
     55 H18A      -11.0140    4.1390   -4.5490 hc        1 RJA      0.058200
     56 H19        -8.7800    3.8600   -5.5930 h1        1 RJA      0.039700
     57 H20        -8.4280    6.8640   -4.9110 hc        1 RJA      0.068700
     58 H21        -6.7570    6.2250   -3.2890 h1        1 RJA      0.080700
     59 H22        -6.2560    3.8290   -4.6180 ha        1 RJA      0.127000
     60 H23        -7.0040    3.6760   -1.6030 ha        1 RJA      0.135000
     61 H24        -6.4570    1.2520   -2.3010 hc        1 RJA      0.054367
     62 H24A       -5.2440    1.9100   -3.4790 hc        1 RJA      0.054367
     63 H24B       -5.0130    2.1570   -1.6910 hc        1 RJA      0.054367
     64 H25        -7.1010   -1.0710    4.0260 hc        1 RJA      0.045033
     65 H25A       -5.3300   -0.6770    4.0610 hc        1 RJA      0.045033
     66 H25B       -6.4220   -0.0560    5.3700 hc        1 RJA      0.045033
     67 H26        -4.8160    3.8640    3.0700 hc        1 RJA      0.037033
     68 H26A       -5.5970    4.5870    4.5380 hc        1 RJA      0.037033
     69 H26B       -5.9120    5.3000    2.9000 hc        1 RJA      0.037033
     70 H27        -9.0160    7.1740    2.3200 hc        1 RJA      0.047700
     71 H27A       -9.2680    6.6880    4.0510 hc        1 RJA      0.047700
     72 H27B       -7.5890    6.7680    3.3690 hc        1 RJA      0.047700
     73 H28        -6.6310    4.8300   -6.3970 hc        1 RJA      0.039367
     74 H28A       -6.0460    6.4160   -5.7380 hc        1 RJA      0.039367
     75 H28B       -7.3490    6.3710   -7.0060 hc        1 RJA      0.039367
     76 HO2        -2.8950    1.6980    0.2770 ho        1 RJA      0.421000
     77 HO3        -9.9550    6.4090   -1.2020 ho        1 RJA      0.422000
@<TRIPOS>BOND
     1    1    2 1   
     2    1    3 1   
     3    1   15 1   
     4    3    5 1   
     5    3   35 1   
     6    3   36 1   
     7    4    9 1   
     8    4   76 1   
     9    5    7 1   
    10    5   37 1   
    11    5   38 1   
    12    6   22 1   
    13    6   77 1   
    14    7    9 1   
    15    7   39 1   
    16    7   40 1   
    17    8   25 1   
    18    8   41 1   
    19    9   11 1   
    20    9   42 1   
    21   10   23 1   
    22   10   27 1   
    23   11   12 2   
    24   11   43 1   
    25   12   13 1   
    26   12   44 1   
    27   13   14 2   
    28   13   31 1   
    29   14   16 1   
    30   14   45 1   
    31   16   17 1   
    32   16   32 1   
    33   16   46 1   
    34   17   18 1   
    35   17   47 1   
    36   17   48 1   
    37   18   19 2   
    38   18   33 1   
    39   19   20 2   
    40   20   21 2   
    41   21   22 1   
    42   21   51 1   
    43   22   23 1   
    44   22   52 1   
    45   23   24 1   
    46   23   53 1   
    47   24   25 1   
    48   24   54 1   
    49   24   55 1   
    50   25   26 1   
    51   25   56 1   
    52   26   27 1   
    53   26   34 1   
    54   26   57 1   
    55   27   28 1   
    56   27   58 1   
    57   28   29 2   
    58   28   59 1   
    59   29   30 1   
    60   29   60 1   
    61   30   61 1   
    62   30   62 1   
    63   30   63 1   
    64   31   64 1   
    65   31   65 1   
    66   31   66 1   
    67   32   67 1   
    68   32   68 1   
    69   32   69 1   
    70   33   70 1   
    71   33   71 1   
    72   33   72 1   
    73   34   73 1   
    74   34   74 1   
    75   34   75 1   
    76   49   50 1   
@<TRIPOS>SUBSTRUCTURE
     1 RJA         1 TEMP              0 ****  ****    0 ROOT
