@<TRIPOS>MOLECULE
RJA
   77    77     1     0     0
SMALL
bcc


@<TRIPOS>ATOM
      1 C1         -0.8320   -1.4370    1.9540 c         1 RJA      0.908600
      2 O1         -0.5200   -2.5150    2.5350 o         1 RJA     -0.848800
      3 C2         -2.2390   -1.3410    1.3330 c3        1 RJA     -0.197400
      4 O2         -3.8580    2.6380    0.2380 oh        1 RJA     -0.629800
      5 C3         -2.8440    0.0210    1.5690 c3        1 RJA     -0.072400
      6 O3        -11.1910    5.9410   -2.2710 oh        1 RJA     -0.600800
      7 C4         -4.0730    0.2500    0.7160 c3        1 RJA     -0.112400
      8 O4         -9.0920    1.9120   -4.7520 oh        1 RJA     -0.592800
      9 C5         -4.6440    1.6540    0.9140 c3        1 RJA      0.166300
     10 O5         -8.5580    5.5510   -2.7940 os        1 RJA     -0.436600
     11 C6         -6.0220    1.7510    0.3410 c2        1 RJA     -0.136200
     12 C7         -7.1540    1.6740    1.0440 ce        1 RJA     -0.155000
     13 C8         -7.2610    1.4750    2.4890 ce        1 RJA     -0.071200
     14 C9         -7.3780    2.4820    3.3670 c2        1 RJA     -0.175200
     15 O1'        -0.0560   -0.4440    1.8370 o         1 RJA     -0.848800
     16 C10        -7.3550    3.9310    3.0160 c3        1 RJA     -0.026500
     17 C11        -8.5620    4.6250    3.6460 c3        1 RJA     -0.043200
     18 C12        -8.6840    6.0560    3.2490 c2        1 RJA     -0.089400
     19 C13        -9.1400    6.4750    2.0540 ce        1 RJA     -0.151000
     20 C14        -9.5780    5.6150    0.9760 ce        1 RJA     -0.118000
     21 C15        -9.9450    6.0900   -0.2230 c2        1 RJA     -0.192200
     22 C16       -10.4080    5.2140   -1.3400 c3        1 RJA      0.181300
     23 C17        -9.2160    4.5270   -2.0420 c3        1 RJA      0.112100
     24 C18        -9.7100    3.3980   -2.9390 c3        1 RJA     -0.139400
     25 C19        -8.5950    2.8810   -3.8480 c3        1 RJA      0.140100
     26 C20        -7.9630    4.0740   -4.5730 c3        1 RJA     -0.114700
     27 C21        -7.4200    5.0550   -3.5310 c3        1 RJA      0.195300
     28 C22        -6.3680    4.6580   -2.5500 c2        1 RJA     -0.233200
     29 C23        -5.4230    3.7190   -2.4910 c2        1 RJA     -0.137200
     30 C24        -5.0690    2.6280   -3.4130 c3        1 RJA     -0.078900
     31 C25        -7.2590    0.0560    2.9300 c3        1 RJA     -0.060900
     32 C26        -6.0520    4.5490    3.4870 c3        1 RJA     -0.087100
     33 C27        -8.2820    7.0360    4.2910 c3        1 RJA     -0.063900
     34 C28        -6.9660    3.7060   -5.6430 c3        1 RJA     -0.093100
     35 H2         -2.1370   -1.5330    0.2340 hc        1 RJA      0.022200
     36 H2A        -2.8910   -2.1410    1.7630 hc        1 RJA      0.022200
     37 H3         -2.0600    0.7950    1.3470 hc        1 RJA      0.045700
     38 H3A        -3.1140    0.1270    2.6520 hc        1 RJA      0.045700
     39 H4         -4.8590   -0.5040    0.9790 hc        1 RJA      0.042700
     40 H4A        -3.8180    0.1110   -0.3670 hc        1 RJA      0.042700
     41 HO4        -9.7390    2.3510   -5.3170 ho        1 RJA      0.394000
     42 H5         -4.6550    1.9110    2.0140 h1        1 RJA      0.048700
     43 H6         -6.0460    1.9080   -0.7530 ha        1 RJA      0.131000
     44 H7         -8.1290    1.7430    0.5290 ha        1 RJA      0.116000
     45 H9         -7.4780    2.2710    4.4450 ha        1 RJA      0.118000
     46 H10        -7.4220    4.0530    1.8960 hc        1 RJA      0.064700
     47 H11        -8.4820    4.5500    4.7640 hc        1 RJA      0.045200
     48 H11A       -9.4920    4.0720    3.3440 hc        1 RJA      0.045200
     49 H13        -9.5940    4.5300    1.1820 ha        1 RJA      0.127000
     50 H14        -9.1990    7.5590    1.8480 ha        1 RJA      0.118000
     51 H15        -9.9270    7.1670   -0.4520 ha        1 RJA      0.130000
     52 H16       -11.1060    4.4150   -0.9570 h1        1 RJA      0.078700
     53 H17        -8.5030    4.1250   -1.2680 h1        1 RJA      0.064700
     54 H18       -10.5620    3.7740   -3.5640 hc        1 RJA      0.058700
     55 H18A      -10.0930    2.5590   -2.3050 hc        1 RJA      0.058700
     56 H19        -7.8240    2.3250   -3.2430 h1        1 RJA      0.091700
     57 H20        -8.8150    4.6180   -5.0840 hc        1 RJA      0.049700
     58 H21        -7.0530    5.9810   -4.0700 h1        1 RJA      0.071700
     59 H22        -6.4040    5.3620   -1.6880 ha        1 RJA      0.129000
     60 H23        -4.7650    3.7350   -1.5910 ha        1 RJA      0.156000
     61 H24        -5.9540    2.1950   -3.9400 hc        1 RJA      0.048367
     62 H24A       -4.5730    1.8000   -2.8420 hc        1 RJA      0.048367
     63 H24B       -4.3430    2.9960   -4.1820 hc        1 RJA      0.048367
     64 H25        -8.0280   -0.5260    2.3630 hc        1 RJA      0.045700
     65 H25A       -6.2550   -0.3990    2.7280 hc        1 RJA      0.045700
     66 H25B       -7.4760   -0.0360    4.0210 hc        1 RJA      0.045700
     67 H26        -6.0030    5.6210    3.1780 hc        1 RJA      0.038033
     68 H26A       -5.1860    4.0060    3.0350 hc        1 RJA      0.038033
     69 H26B       -5.9670    4.4930    4.5990 hc        1 RJA      0.038033
     70 H27        -8.2850    8.0830    3.9020 hc        1 RJA      0.042033
     71 H27A       -8.9870    6.9790    5.1580 hc        1 RJA      0.042033
     72 H27B       -7.2530    6.7970    4.6630 hc        1 RJA      0.042033
     73 H28        -7.0020    2.6080   -5.8520 hc        1 RJA      0.043033
     74 H28A       -7.2020    4.2470   -6.5920 hc        1 RJA      0.043033
     75 H28B       -5.9260    3.9840   -5.3450 hc        1 RJA      0.043033
     76 HO2        -2.9330    2.4010    0.3840 ho        1 RJA      0.421000
     77 HO3       -10.6010    6.5640   -2.7170 ho        1 RJA      0.414000
@<TRIPOS>BOND
     1    1    2 1   
     2    1    3 1   
     3    1   15 1   
     4    3    5 1   
     5    3   35 1   
     6    3   36 1   
     7    4    9 1   
     8    4   76 1   
     9    5    7 1   
    10    5   37 1   
    11    5   38 1   
    12    6   22 1   
    13    6   77 1   
    14    7    9 1   
    15    7   39 1   
    16    7   40 1   
    17    8   25 1   
    18    8   41 1   
    19    9   11 1   
    20    9   42 1   
    21   10   23 1   
    22   10   27 1   
    23   11   12 2   
    24   11   43 1   
    25   12   13 1   
    26   12   44 1   
    27   13   14 2   
    28   13   31 1   
    29   14   16 1   
    30   14   45 1   
    31   16   17 1   
    32   16   32 1   
    33   16   46 1   
    34   17   18 1   
    35   17   47 1   
    36   17   48 1   
    37   18   19 2   
    38   18   33 1   
    39   19   20 1   
    40   19   50 1   
    41   20   21 2   
    42   20   49 1   
    43   21   22 1   
    44   21   51 1   
    45   22   23 1   
    46   22   52 1   
    47   23   24 1   
    48   23   53 1   
    49   24   25 1   
    50   24   54 1   
    51   24   55 1   
    52   25   26 1   
    53   25   56 1   
    54   26   27 1   
    55   26   34 1   
    56   26   57 1   
    57   27   28 1   
    58   27   58 1   
    59   28   29 2   
    60   28   59 1   
    61   29   30 1   
    62   29   60 1   
    63   30   61 1   
    64   30   62 1   
    65   30   63 1   
    66   31   64 1   
    67   31   65 1   
    68   31   66 1   
    69   32   67 1   
    70   32   68 1   
    71   32   69 1   
    72   33   70 1   
    73   33   71 1   
    74   33   72 1   
    75   34   73 1   
    76   34   74 1   
    77   34   75 1   
@<TRIPOS>SUBSTRUCTURE
     1 RJA         1 TEMP              0 ****  ****    0 ROOT
