@<TRIPOS>MOLECULE
RJP
   39    38     1     0     0
SMALL
bcc


@<TRIPOS>ATOM
      1 OAA         0.2570    1.4580   -0.9610 o         1 RJP     -0.302000
      2 OAC         0.3850    1.3850    6.7350 o         1 RJP     -0.540500
      3 OAD         2.0860   -2.8900    4.5870 oh        1 RJP     -0.323000
      4 OAE         0.7080   -1.7980    2.5310 o         1 RJP     -0.354000
      5 OAF         3.7110    1.0280    5.3980 oh        1 RJP     -0.357000
      6 CAG         1.9510    1.2530    0.7490 c3        1 RJP     -0.204000
      7 CAH         0.8400    0.9710    1.7430 c3        1 RJP     -0.102000
      8 CAI         1.8220    1.2630    4.0040 c2        1 RJP     -0.003000
      9 CAJ        -0.0810   -1.9410   -0.6170 c2        1 RJP      0.160000
     10 CAK         2.4480    2.2130   -1.5080 c2        1 RJP     -0.178000
     11 CAL        -0.0680   -2.7490   -1.6620 c1        1 RJP     -0.577000
     12 CAM         2.9430    1.6180   -2.5970 c2        1 RJP     -0.123000
     13 CAN        -0.0420   -3.5260   -2.6680 c1        1 RJP      0.115000
     14 CAO         2.0420   -0.6760    5.5960 c3        1 RJP     -0.172000
     15 NAP         2.1840   -0.6550   -2.3040 n2        1 RJP     -0.232000
     16 CAQ         1.4300    1.6210   -0.6090 c2        1 RJP      0.273000
     17 CAR         1.5710    1.6700    6.4470 c2        1 RJP      0.327000
     18 CAS         1.3800    0.4480    3.0270 c2        1 RJP     -0.243000
     19 CAT         2.5410    0.2920   -3.0880 c2        1 RJP     -0.039000
     20 CAU         2.2690   -1.5070    4.3410 c3        1 RJP     -0.016000
     21 CAV         1.3770   -1.0100    3.2170 c2        1 RJP      0.262000
     22 CAW         2.3060    0.8050    5.3460 c3        1 RJP     -0.007000
     23 HOAD        1.1350   -3.0410    4.6600 ho        1 RJP      0.202000
     24 HOAF        3.8590    1.7740    6.0050 ho        1 RJP      0.233000
     25 HAG         2.6090    2.0750    1.1340 hc        1 RJP      0.115500
     26 HAGA        2.5920    0.3370    0.6240 hc        1 RJP      0.115500
     27 HAH         0.2570    1.9130    1.9240 hc        1 RJP      0.096500
     28 HAHA        0.1300    0.2210    1.2980 hc        1 RJP      0.096500
     29 HAI         1.8390    2.3570    3.8660 ha        1 RJP      0.132000
     30 HAJ         2.7880    3.2170   -1.2020 ha        1 RJP      0.142000
     31 HAK        -0.2000   -0.8450   -0.7260 ha        1 RJP      0.150500
     32 HAL         0.0380   -2.3030    0.4230 ha        1 RJP      0.150500
     33 HAM         3.7080    2.1160   -3.2160 ha        1 RJP      0.128000
     34 HAN         2.5800    0.2140   -4.1990 h4        1 RJP      0.093000
     35 HAO         0.9850   -0.7920    5.9550 hc        1 RJP      0.112000
     36 HAOA        2.7280   -1.0420    6.4030 hc        1 RJP      0.112000
     37 HNAP        1.9110   -1.5130   -2.7400 hn        1 RJP      0.161000
     38 HAU         3.3460   -1.4200    4.0120 h1        1 RJP      0.137000
     39 OAB         2.2640    2.5990    6.9440 o         1 RJP     -0.540500
@<TRIPOS>BOND
     1    1   16 1   
     2    2   17 1   
     3    3   20 1   
     4    3   23 1   
     5    4   21 1   
     6    5   22 1   
     7    5   24 1   
     8    6    7 1   
     9    6   16 1   
    10    6   25 1   
    11    6   26 1   
    12    7   18 1   
    13    7   27 1   
    14    7   28 1   
    15    8   18 1   
    16    8   22 1   
    17    8   29 1   
    18    9   11 1   
    19    9   31 1   
    20    9   32 1   
    21   10   12 1   
    22   10   16 1   
    23   10   30 1   
    24   11   13 1   
    25   12   19 1   
    26   12   33 1   
    27   14   20 1   
    28   14   22 1   
    29   14   35 1   
    30   14   36 1   
    31   15   19 1   
    32   15   37 1   
    33   17   22 1   
    34   17   39 1   
    35   18   21 1   
    36   19   34 1   
    37   20   21 1   
    38   20   38 1   
@<TRIPOS>SUBSTRUCTURE
     1 RJP         1 TEMP              0 ****  ****    0 ROOT
