@<TRIPOS>MOLECULE
RJP
   39    38     1     0     0
SMALL
bcc


@<TRIPOS>ATOM
      1 OAA         1.4620    0.5530   -1.1980 o         1 RJP     -0.319000
      2 OAC         1.0540    2.2770    7.1260 o         1 RJP     -0.536500
      3 OAD         0.4790   -2.3810    5.3700 oh        1 RJP     -0.318000
      4 OAE        -0.0410   -1.4970    2.8630 o         1 RJP     -0.346000
      5 OAF         3.5080    0.7820    5.7220 oh        1 RJP     -0.285000
      6 CAG         2.5950    0.9150    0.8960 c3        1 RJP     -0.205000
      7 CAH         1.2590    0.7180    1.5840 c3        1 RJP     -0.103000
      8 CAI         2.0450    1.2230    3.8860 c2        1 RJP     -0.028000
      9 CAJ        -0.8320   -1.8280   -0.3420 c2        1 RJP      0.132000
     10 CAK         3.6830    1.4320   -1.2940 c2        1 RJP     -0.218000
     11 CAL        -1.4490   -2.6790   -1.1370 c1        1 RJP     -0.570000
     12 CAM         4.0190    1.2460   -2.5770 c2        1 RJP     -0.071000
     13 CAN        -2.0450   -3.5030   -1.9050 c1        1 RJP      0.141000
     14 CAO         1.2550   -0.1240    5.8510 c3        1 RJP     -0.199000
     15 NAP         3.5100    0.4870   -4.8030 n2        1 RJP     -0.230000
     16 CAQ         2.4790    0.9360   -0.6020 c2        1 RJP      0.262000
     17 CAR         1.7460    2.3790    6.0870 c2        1 RJP      0.372000
     18 CAS         1.4170    0.3960    3.0280 c2        1 RJP     -0.258000
     19 CAT         3.2180    0.4920   -3.5530 c2        1 RJP     -0.052000
     20 CAU         1.2540   -1.3000    4.8840 c3        1 RJP     -0.022000
     21 CAV         0.7960   -0.8470    3.5070 c2        1 RJP      0.254000
     22 CAW         2.1500    1.0120    5.3650 c3        1 RJP     -0.021000
     23 HOAD       -0.4480   -2.1230    5.2920 ho        1 RJP      0.205000
     24 HOAF        3.7360   -0.0930    5.3840 ho        1 RJP      0.159000
     25 HAG         3.0630    1.8720    1.2510 hc        1 RJP      0.114000
     26 HAGA        3.2960    0.0800    1.1690 hc        1 RJP      0.114000
     27 HAH         0.6460    1.6540    1.4730 hc        1 RJP      0.097000
     28 HAHA        0.6920   -0.1060    1.0690 hc        1 RJP      0.097000
     29 HAI         2.5020    2.1730    3.5500 ha        1 RJP      0.165000
     30 HAJ         4.3650    2.0110   -0.6430 ha        1 RJP      0.142000
     31 HAK        -0.8480   -1.9190    0.7630 ha        1 RJP      0.148000
     32 HAL        -0.2550   -0.9700   -0.7380 ha        1 RJP      0.148000
     33 HAM         4.9690    1.6730   -2.9530 ha        1 RJP      0.141000
     34 HAN         2.3510   -0.0510   -3.1090 h4        1 RJP      0.131000
     35 HAO         0.2150    0.2710    5.9860 hc        1 RJP      0.119500
     36 HAOA        1.6100   -0.4630    6.8580 hc        1 RJP      0.119500
     37 HNAP        2.8950   -0.0560   -5.3740 hn        1 RJP      0.142000
     38 HAU         2.2920   -1.7320    4.7860 h1        1 RJP      0.115000
     39 OAB         2.1320    3.4340    5.5280 o         1 RJP     -0.536500
@<TRIPOS>BOND
     1    1   16 1   
     2    2   17 1   
     3    3   20 1   
     4    3   23 1   
     5    4   21 1   
     6    5   22 1   
     7    5   24 1   
     8    6    7 1   
     9    6   16 1   
    10    6   25 1   
    11    6   26 1   
    12    7   18 1   
    13    7   27 1   
    14    7   28 1   
    15    8   18 1   
    16    8   22 1   
    17    8   29 1   
    18    9   11 1   
    19    9   31 1   
    20    9   32 1   
    21   10   12 1   
    22   10   16 1   
    23   10   30 1   
    24   11   13 1   
    25   12   19 1   
    26   12   33 1   
    27   14   20 1   
    28   14   22 1   
    29   14   35 1   
    30   14   36 1   
    31   15   19 1   
    32   15   37 1   
    33   17   22 1   
    34   17   39 1   
    35   18   21 1   
    36   19   34 1   
    37   20   21 1   
    38   20   38 1   
@<TRIPOS>SUBSTRUCTURE
     1 RJP         1 TEMP              0 ****  ****    0 ROOT
