@<TRIPOS>MOLECULE
RJP
   39    40     1     0     0
SMALL
bcc


@<TRIPOS>ATOM
      1 OAA        -2.9810   -2.5570    0.8820 o         1 RJP     -0.618100
      2 OAC         4.2920    0.2150   -2.3730 o         1 RJP     -0.803800
      3 OAD         1.8520    3.0030    1.0890 oh        1 RJP     -0.594800
      4 OAE        -0.1460    1.4050    0.2160 o         1 RJP     -0.603100
      5 OAF         4.4170   -0.4790    1.1620 oh        1 RJP     -0.628800
      6 CAG        -0.7420   -1.6730    0.9840 c3        1 RJP     -0.149400
      7 CAH         0.0750   -1.4160   -0.2720 c3        1 RJP     -0.019200
      8 CAI         2.5140   -0.9580   -0.1500 c2        1 RJP      0.002800
      9 CAJ        -6.6430    0.9750   -0.4220 ca        1 RJP     -0.175000
     10 CAK        -6.4160   -0.3430   -0.0330 ca        1 RJP     -0.109000
     11 CAL        -5.5620    1.8490   -0.5350 ca        1 RJP     -0.109000
     12 CAM        -5.1300   -0.7980    0.2450 ca        1 RJP     -0.175500
     13 CAN        -4.2700    1.4190   -0.2640 ca        1 RJP     -0.175500
     14 CAO         3.3840    1.3950    0.0910 c3        1 RJP     -0.094400
     15 NAP        -2.7090   -0.3020    0.4090 n         1 RJP     -0.471100
     16 CAQ        -2.2400   -1.5640    0.7450 c         1 RJP      0.667100
     17 CAR         4.6320   -0.3260   -1.2940 c         1 RJP      0.908600
     18 CAS         1.2440   -0.5320   -0.0090 ce        1 RJP     -0.275400
     19 CAT        -4.0280    0.0780    0.1360 ca        1 RJP      0.086600
     20 CAU         2.1400    1.6240    0.9380 c3        1 RJP      0.046100
     21 CAV         0.9630    0.8620    0.3560 c         1 RJP      0.570300
     22 CAW         3.7260   -0.0870   -0.0180 c3        1 RJP      0.016000
     23 HOAD        1.5080    3.3140    0.2430 ho        1 RJP      0.403000
     24 HOAF        5.2280   -0.9380    0.8790 ho        1 RJP      0.435000
     25 HAG        -0.5400   -2.7070    1.3680 hc        1 RJP      0.073200
     26 HAGA       -0.4540   -0.9480    1.7910 hc        1 RJP      0.073200
     27 HAH         0.4230   -2.3980   -0.6900 hc        1 RJP      0.055200
     28 HAHA       -0.5540   -0.9300   -1.0670 hc        1 RJP      0.055200
     29 HAI         2.7390   -2.0090   -0.4030 ha        1 RJP      0.136000
     30 HAJ        -7.6610    1.3230   -0.6400 ha        1 RJP      0.121000
     31 HAK        -7.2610   -1.0410    0.0580 ha        1 RJP      0.123000
     32 HAL        -5.7300    2.8920   -0.8430 ha        1 RJP      0.123000
     33 HAM        -4.9830   -1.8470    0.5500 ha        1 RJP      0.156500
     34 HAN        -3.4320    2.1270   -0.3610 ha        1 RJP      0.156500
     35 HAO         3.2300    1.8000   -0.9440 hc        1 RJP      0.073200
     36 HAOA        4.2450    1.9400    0.5560 hc        1 RJP      0.073200
     37 HNAP       -2.0150    0.4150    0.2880 hn        1 RJP      0.354500
     38 HAU         2.3190    1.2570    1.9910 h1        1 RJP      0.098700
     39 OAB         5.6380   -1.0620   -1.1020 o         1 RJP     -0.803800
@<TRIPOS>BOND
     1    1   16 2   
     2    2   17 1   
     3    3   20 1   
     4    3   23 1   
     5    4   21 2   
     6    5   22 1   
     7    5   24 1   
     8    6    7 1   
     9    6   16 1   
    10    6   25 1   
    11    6   26 1   
    12    7   18 1   
    13    7   27 1   
    14    7   28 1   
    15    8   18 2   
    16    8   22 1   
    17    8   29 1   
    18    9   10 ar  
    19    9   11 ar  
    20    9   30 1   
    21   10   12 ar  
    22   10   31 1   
    23   11   13 ar  
    24   11   32 1   
    25   12   19 ar  
    26   12   33 1   
    27   13   19 ar  
    28   13   34 1   
    29   14   20 1   
    30   14   22 1   
    31   14   35 1   
    32   14   36 1   
    33   15   16 1   
    34   15   19 1   
    35   15   37 1   
    36   17   22 1   
    37   17   39 1   
    38   18   21 1   
    39   20   21 1   
    40   20   38 1   
@<TRIPOS>SUBSTRUCTURE
     1 RJP         1 TEMP              0 ****  ****    0 ROOT
