@<TRIPOS>MOLECULE
RJP
   40    36     1     0     0
SMALL
bcc


@<TRIPOS>ATOM
      1 OAA         0.6440    4.0640    3.2310 o         1 RJP     -0.199000
      2 OAC         0.9760    4.1440    8.7450 o         1 RJP     -0.214000
      3 OAD         2.1560   -2.2420    6.0420 oh        1 RJP     -0.308000
      4 OAE         2.0930   -3.0990    3.4700 o         1 RJP     -0.276000
      5 OAF         2.0890    2.1280    3.9130 oh        1 RJP     -0.281000
      6 CAG         3.3960   -1.1410    0.0880 c2        1 RJP     -0.233000
      7 CAH         2.8400   -1.6040    1.2060 c2        1 RJP     -0.158000
      8 CAI         2.9440    0.2870    2.7660 c2        1 RJP     -0.234000
      9 CAJ         1.2660   -3.0270   -4.8750 c2        1 RJP      0.137000
     10 CAK        -0.9250    3.4280   -0.8840 c1        1 RJP     -0.196000
     11 CAL         1.4050   -2.2340   -3.8370 c1        1 RJP     -0.543000
     12 CAM        -0.5640    2.3060   -1.5930 c2        1 RJP     -0.376000
     13 CAN         1.5360   -1.4600   -2.8300 c1        1 RJP      0.162000
     14 CAO         1.9390   -0.0510    5.0420 c3        1 RJP     -0.182000
     15 NAP         1.1190    1.3200   -0.1310 n3        1 RJP     -0.340000
     16 CAQ         0.8540    3.5340    2.2080 c1        1 RJP      0.203000
     17 CAR         1.2120    3.3830    7.8670 c1        1 RJP      0.429000
     18 CAS         3.2490   -1.1580    2.5720 c3        1 RJP     -0.074000
     19 CAT         0.3700    1.3290   -1.2420 c2        1 RJP      0.114000
     20 CAU         2.6780   -1.3880    5.0460 c3        1 RJP     -0.009000
     21 CAV         2.6200   -2.0010    3.6570 c2        1 RJP      0.203000
     22 CAW         2.3520    0.7740    3.8740 c2        1 RJP      0.041000
     23 HOAD        1.4100   -2.7250    5.6600 ho        1 RJP      0.219000
     24 HOAF        1.7440    2.3530    4.7910 ho        1 RJP      0.240000
     25 HAG         4.3690   -1.2970    2.6760 hc        1 RJP      0.131000
     26 HAGA        4.2090   -0.4020    0.0890 ha        1 RJP      0.126500
     27 HAH         3.0670   -1.4740   -0.9090 ha        1 RJP      0.126500
     28 HAHA        2.0380   -2.3620    1.1810 ha        1 RJP      0.148000
     29 HAI         3.2310    0.9530    1.9380 ha        1 RJP      0.148000
     30 HAJ        -0.4370    3.6320    0.0840 ha        1 RJP      0.009000
     31 HAK         2.0380   -3.7620   -5.1660 ha        1 RJP      0.124500
     32 HAL         0.3670   -3.0050   -5.5180 ha        1 RJP      0.124500
     33 HAM        -1.0700    2.1340   -2.5600 ha        1 RJP      0.132000
     34 HAN         0.5380    0.4580   -1.9220 h4        1 RJP      0.155000
     35 HAO         0.8310   -0.2290    5.0030 hc        1 RJP      0.120000
     36 HAOA        2.1510    0.4910    6.0040 hc        1 RJP      0.120000
     37 HNAP        1.0540    2.0550    0.5410 hn        1 RJP      0.243000
     38 HAU         3.7580   -1.2340    5.3370 h1        1 RJP      0.138000
     39 HAP2        1.7390    0.5670    0.0590 hn        1 RJP      0.243000
     40 OAB         1.4500    2.6130    6.9880 o         1 RJP     -0.214000
@<TRIPOS>BOND
     1    1   16 1   
     2    2   17 1   
     3    3   20 1   
     4    3   23 1   
     5    4   21 1   
     6    5   22 1   
     7    5   24 1   
     8    6    7 1   
     9    6   26 1   
    10    6   27 1   
    11    7   18 1   
    12    7   28 1   
    13    8   18 1   
    14    8   22 1   
    15    8   29 1   
    16    9   11 1   
    17    9   31 1   
    18    9   32 1   
    19   10   12 1   
    20   10   30 1   
    21   11   13 1   
    22   12   19 1   
    23   12   33 1   
    24   14   20 1   
    25   14   22 1   
    26   14   35 1   
    27   14   36 1   
    28   15   19 1   
    29   15   37 1   
    30   15   39 1   
    31   17   40 1   
    32   18   21 1   
    33   18   25 1   
    34   19   34 1   
    35   20   21 1   
    36   20   38 1   
@<TRIPOS>SUBSTRUCTURE
     1 RJP         1 TEMP              0 ****  ****    0 ROOT
