@<TRIPOS>MOLECULE
RKA
   60    64     1     0     0
SMALL
bcc


@<TRIPOS>ATOM
      1 C1         -0.0430    0.4940    0.1610 cc        1 RKA     -0.176000
      2 C2          1.3800    0.5750    0.1650 cc        1 RKA     -0.176000
      3 C3          1.8100    0.4310    1.5020 cd        1 RKA     -0.066300
      4 N4          0.6780    0.2600    2.3030 na        1 RKA     -0.160100
      5 C5         -0.4610    0.2950    1.4950 cd        1 RKA     -0.066300
      6 C6          3.1660    0.4460    2.0130 ca        1 RKA     -0.029000
      7 C7          3.4600    0.8460    3.3230 ca        1 RKA     -0.099000
      8 C8          4.7690    0.8600    3.7920 ca        1 RKA     -0.162750
      9 C9          5.8340    0.4590    2.9560 ca        1 RKA      0.130600
     10 C10         5.5330    0.0690    1.6290 ca        1 RKA     -0.162750
     11 C11         4.2240    0.0680    1.1710 ca        1 RKA     -0.099000
     12 C12        -1.8130    0.1490    1.9960 ca        1 RKA     -0.029000
     13 C13        -2.8760    0.7330    1.2900 ca        1 RKA     -0.099000
     14 C14        -4.1840    0.5940    1.7300 ca        1 RKA     -0.162750
     15 C15        -4.4760   -0.1330    2.9090 ca        1 RKA      0.130600
     16 C16        -3.4020   -0.7030    3.6250 ca        1 RKA     -0.162750
     17 C17        -2.0960   -0.5680    3.1660 ca        1 RKA     -0.099000
     18 N18        -5.7970   -0.2130    3.3860 nh        1 RKA     -0.746600
     19 C19        -6.4130   -1.4560    3.7020 ce        1 RKA      0.665300
     20 N20        -5.8770   -2.6310    3.7800 n2        1 RKA     -0.813600
     21 C21        -7.8700   -1.3090    4.0250 ca        1 RKA     -0.133900
     22 C22        -8.3430   -1.7070    5.2780 ca        1 RKA     -0.102250
     23 C23        -9.6990   -1.5730    5.5780 ca        1 RKA     -0.132500
     24 C24       -10.5780   -1.0500    4.6300 ca        1 RKA     -0.118000
     25 C25       -10.1040   -0.6610    3.3770 ca        1 RKA     -0.132500
     26 C26        -8.7500   -0.7890    3.0710 ca        1 RKA     -0.102250
     27 N27         7.1690    0.5140    3.3950 nh        1 RKA     -0.746600
     28 C28         7.6010   -0.1300    4.5870 ce        1 RKA      0.665300
     29 N29         6.8900   -0.6880    5.5120 n2        1 RKA     -0.813600
     30 C30         9.0900   -0.0790    4.7590 ca        1 RKA     -0.133900
     31 C31         9.6340    0.5390    5.8880 ca        1 RKA     -0.102250
     32 C32        11.0190    0.5840    6.0510 ca        1 RKA     -0.132500
     33 C33        11.8560    0.0100    5.0940 ca        1 RKA     -0.118000
     34 C34        11.3090   -0.6140    3.9720 ca        1 RKA     -0.132500
     35 C35         9.9270   -0.6600    3.8010 ca        1 RKA     -0.102250
     36 H1         -0.6920    0.5610   -0.7060 ha        1 RKA      0.153000
     37 H2          2.0220    0.7300   -0.6970 ha        1 RKA      0.153000
     38 HN4         0.6830    0.1350    3.2810 hn        1 RKA      0.295700
     39 H7          2.6560    1.1780    3.9970 ha        1 RKA      0.136000
     40 H8          4.9650    1.2210    4.8130 ha        1 RKA      0.139500
     41 H10         6.3400   -0.2340    0.9440 ha        1 RKA      0.139500
     42 H11         4.0080   -0.2410    0.1360 ha        1 RKA      0.136000
     43 H13        -2.6660    1.3080    0.3740 ha        1 RKA      0.136000
     44 H14        -4.9960    1.0640    1.1530 ha        1 RKA      0.139500
     45 H16        -3.5810   -1.2410    4.5690 ha        1 RKA      0.139500
     46 H17        -1.2850   -1.0450    3.7380 ha        1 RKA      0.136000
     47 HN18       -6.4160    0.4790    3.0190 hn        1 RKA      0.425300
     48 HN20       -4.9100   -2.7100    3.5450 hn        1 RKA      0.396400
     49 H22        -7.6490   -2.1300    6.0200 ha        1 RKA      0.140000
     50 H23       -10.0730   -1.8860    6.5640 ha        1 RKA      0.136000
     51 H24       -11.6470   -0.9470    4.8690 ha        1 RKA      0.134000
     52 H25       -10.7990   -0.2570    2.6270 ha        1 RKA      0.136000
     53 H26        -8.3850   -0.4970    2.0750 ha        1 RKA      0.140000
     54 HN27        7.8480    0.5460    2.6650 hn        1 RKA      0.425300
     55 HN29        5.9030   -0.7260    5.3690 hn        1 RKA      0.396400
     56 H31         8.9710    0.9810    6.6480 ha        1 RKA      0.140000
     57 H32        11.4490    1.0700    6.9390 ha        1 RKA      0.136000
     58 H33        12.9470    0.0460    5.2260 ha        1 RKA      0.134000
     59 H34        11.9690   -1.0740    3.2220 ha        1 RKA      0.136000
     60 H35         9.5010   -1.1680    2.9230 ha        1 RKA      0.140000
@<TRIPOS>BOND
     1    1    2 1   
     2    1    5 2   
     3    1   36 1   
     4    2    3 2   
     5    2   37 1   
     6    3    4 1   
     7    3    6 1   
     8    4    5 1   
     9    4   38 1   
    10    5   12 1   
    11    6    7 ar  
    12    6   11 ar  
    13    7    8 ar  
    14    7   39 1   
    15    8    9 ar  
    16    8   40 1   
    17    9   10 ar  
    18    9   27 1   
    19   10   11 ar  
    20   10   41 1   
    21   11   42 1   
    22   12   13 ar  
    23   12   17 ar  
    24   13   14 ar  
    25   13   43 1   
    26   14   15 ar  
    27   14   44 1   
    28   15   16 ar  
    29   15   18 1   
    30   16   17 ar  
    31   16   45 1   
    32   17   46 1   
    33   18   19 1   
    34   18   47 1   
    35   19   20 2   
    36   19   21 1   
    37   20   48 1   
    38   21   22 ar  
    39   21   26 ar  
    40   22   23 ar  
    41   22   49 1   
    42   23   24 ar  
    43   23   50 1   
    44   24   25 ar  
    45   24   51 1   
    46   25   26 ar  
    47   25   52 1   
    48   26   53 1   
    49   27   28 1   
    50   27   54 1   
    51   28   29 2   
    52   28   30 1   
    53   29   55 1   
    54   30   31 ar  
    55   30   35 ar  
    56   31   32 ar  
    57   31   56 1   
    58   32   33 ar  
    59   32   57 1   
    60   33   34 ar  
    61   33   58 1   
    62   34   35 ar  
    63   34   59 1   
    64   35   60 1   
@<TRIPOS>SUBSTRUCTURE
     1 RKA         1 TEMP              0 ****  ****    0 ROOT
