@<TRIPOS>MOLECULE
RKA
   60    49     1     0     0
SMALL
bcc


@<TRIPOS>ATOM
      1 C1         -0.3760   -0.1550   -2.9920 c1        1 RKA     -0.175000
      2 C2          0.9950   -0.1000   -2.9400 c1        1 RKA     -0.175000
      3 C3          1.3630   -0.0570   -1.6270 c2        1 RKA     -0.042000
      4 N4          0.2240   -0.0860   -0.8670 n2        1 RKA     -0.160000
      5 C5         -0.8480   -0.1460   -1.7130 c2        1 RKA     -0.042000
      6 C6          2.6710   -0.0500   -1.1390 c1        1 RKA     -0.028500
      7 C7          3.3760   -1.2390   -1.0210 c1        1 RKA     -0.126375
      8 C8          4.6840   -1.2260   -0.5420 c1        1 RKA     -0.126375
      9 C9          5.2860   -0.0100   -0.1800 c1        1 RKA      0.048500
     10 C10         4.5710    1.1790   -0.3020 c1        1 RKA     -0.170500
     11 C11         3.2700    1.1610   -0.7780 c1        1 RKA     -0.098000
     12 C12        -2.2190   -0.2480   -1.3240 c1        1 RKA     -0.028500
     13 C13        -3.0020    0.9090   -1.2210 c1        1 RKA     -0.126375
     14 C14        -4.3250    0.8230   -0.7730 c1        1 RKA     -0.126375
     15 C15        -4.8750   -0.4360   -0.4200 c1        1 RKA      0.048500
     16 C16        -4.0900   -1.5930   -0.5230 c1        1 RKA     -0.170500
     17 C17        -2.7620   -1.5040   -0.9740 c1        1 RKA     -0.098000
     18 N18        -6.1650   -0.5050    0.1870 n3        1 RKA     -0.308000
     19 C19        -7.2550    0.0540   -0.4420 c2        1 RKA      0.141500
     20 N20        -7.1110    1.0910   -1.1670 n1        1 RKA     -0.281000
     21 C21        -8.6650   -0.5800   -0.2590 c2        1 RKA     -0.050000
     22 C22        -8.9020   -1.8510   -0.6940 c2        1 RKA     -0.102000
     23 C23       -10.1300   -2.4750   -0.4100 c1        1 RKA     -0.132500
     24 C24       -11.0980   -1.7990    0.3110 c1        1 RKA     -0.126375
     25 C25       -10.8570   -0.5110    0.7520 c1        1 RKA     -0.126375
     26 C26        -9.6460    0.1030    0.4710 c1        1 RKA     -0.102500
     27 N27         6.6630    0.0260    0.1550 n3        1 RKA     -0.308000
     28 C28         7.0720   -0.0320    1.5520 c2        1 RKA      0.141500
     29 N29         6.4660   -0.8520    2.3780 n1        1 RKA     -0.281000
     30 C30         8.2420    0.8720    2.0670 c2        1 RKA     -0.050000
     31 C31         9.4730    0.3110    2.3120 c2        1 RKA     -0.102000
     32 C32        10.5100    1.0910    2.7350 c1        1 RKA     -0.132500
     33 C33        10.3290    2.4430    2.9190 c1        1 RKA     -0.126375
     34 C34         9.1140    3.0090    2.6790 c1        1 RKA     -0.126375
     35 C35         8.0560    2.2200    2.2490 c1        1 RKA     -0.102500
     36 H1         -0.9120   -0.1910   -3.7930 DU        1 RKA      0.171600
     37 H2          1.6150   -0.0930   -3.7280 DU        1 RKA      0.171600
     38 HN4         0.1880   -0.0680    0.0300 DU        1 RKA      0.171600
     39 H7          2.9530   -2.0890   -1.2720 ha        1 RKA      0.137625
     40 H8          5.1840   -2.0670   -0.4590 ha        1 RKA      0.137625
     41 H10         5.0000    2.0560   -0.0410 ha        1 RKA      0.133000
     42 H11         2.7870    1.9660   -0.8610 ha        1 RKA      0.135000
     43 H13        -2.6160    1.7970   -1.4710 ha        1 RKA      0.137625
     44 H14        -4.8880    1.6600   -0.7000 ha        1 RKA      0.137625
     45 H16        -4.4780   -2.4890   -0.2730 ha        1 RKA      0.133000
     46 H17        -2.1930   -2.3390   -1.0480 ha        1 RKA      0.135000
     47 HN18       -6.2610   -0.8830    1.0190 hn        1 RKA      0.220500
     48 HN20       -6.2700    1.4700   -1.2720 DU        1 RKA      0.171600
     49 H22        -8.2010   -2.3390   -1.2150 ha        1 RKA      0.140000
     50 H23       -10.2920   -3.3420   -0.7070 ha        1 RKA      0.136000
     51 H24       -11.9960   -2.2560    0.5200 ha        1 RKA      0.137625
     52 H25       -11.5160   -0.0480    1.2440 ha        1 RKA      0.137625
     53 H26        -9.4710    1.0410    0.7920 ha        1 RKA      0.139500
     54 HN27        7.2990    0.1350   -0.5100 hn        1 RKA      0.220500
     55 HN29        5.7900   -1.3800    2.0800 DU        1 RKA      0.171600
     56 H31         9.6080   -0.6560    2.1800 ha        1 RKA      0.140000
     57 H32        11.3780    0.6900    2.9070 ha        1 RKA      0.136000
     58 H33        11.0720    2.9930    3.2210 ha        1 RKA      0.137625
     59 H34         8.9880    3.9760    2.8130 ha        1 RKA      0.137625
     60 H35         7.1940    2.6180    2.0800 ha        1 RKA      0.139500
@<TRIPOS>BOND
     1    1    2 1   
     2    1    5 1   
     3    2    3 1   
     4    3    4 1   
     5    3    6 1   
     6    4    5 1   
     7    5   12 1   
     8    6   11 1   
     9    7    8 1   
    10    7   39 1   
    11    8   40 1   
    12    9   10 1   
    13    9   27 1   
    14   10   41 1   
    15   11   42 1   
    16   12   17 1   
    17   13   14 1   
    18   13   43 1   
    19   14   44 1   
    20   15   16 1   
    21   15   18 1   
    22   16   45 1   
    23   17   46 1   
    24   18   19 1   
    25   18   47 1   
    26   19   20 1   
    27   19   21 1   
    28   21   22 1   
    29   21   26 1   
    30   22   23 1   
    31   22   49 1   
    32   23   50 1   
    33   24   25 1   
    34   24   51 1   
    35   25   52 1   
    36   26   53 1   
    37   27   28 1   
    38   27   54 1   
    39   28   29 1   
    40   28   30 1   
    41   30   31 1   
    42   30   35 1   
    43   31   32 1   
    44   31   56 1   
    45   32   57 1   
    46   33   34 1   
    47   33   58 1   
    48   34   59 1   
    49   35   60 1   
@<TRIPOS>SUBSTRUCTURE
     1 RKA         1 TEMP              0 ****  ****    0 ROOT
