@<TRIPOS>MOLECULE
RKA
   60    64     1     0     0
SMALL
bcc


@<TRIPOS>ATOM
      1 C1         -0.7300   -3.0930   -0.5240 cc        1 RKA     -0.180000
      2 C2          0.6950   -3.1280   -0.5220 cc        1 RKA     -0.180000
      3 C3          1.1530   -1.7950   -0.4430 cd        1 RKA     -0.064300
      4 N4          0.0350   -0.9580   -0.3930 na        1 RKA     -0.159100
      5 C5         -1.1220   -1.7390   -0.4390 cd        1 RKA     -0.064300
      6 C6          2.5210   -1.3170   -0.4120 ca        1 RKA     -0.030000
      7 C7          2.8720   -0.0450   -0.8840 ca        1 RKA     -0.106250
      8 C8          4.1900    0.3950   -0.8540 ca        1 RKA     -0.145750
      9 C9          5.2070   -0.4340   -0.3350 ca        1 RKA      0.138600
     10 C10         4.8500   -1.7200    0.1350 ca        1 RKA     -0.145750
     11 C11         3.5310   -2.1500    0.0910 ca        1 RKA     -0.106250
     12 C12        -2.4650   -1.1960   -0.4060 ca        1 RKA     -0.030000
     13 C13        -3.5170   -1.9240   -0.9820 ca        1 RKA     -0.106250
     14 C14        -4.8170   -1.4400   -0.9530 ca        1 RKA     -0.145750
     15 C15        -5.1090   -0.1920   -0.3520 ca        1 RKA      0.138600
     16 C16        -4.0490    0.5410    0.2190 ca        1 RKA     -0.145750
     17 C17        -2.7530    0.0370    0.1950 ca        1 RKA     -0.106250
     18 N18        -6.4220    0.3200   -0.4220 nh        1 RKA     -0.688600
     19 C19        -7.1040    0.8560    0.6960 ce        1 RKA      0.656300
     20 N20        -6.5160    1.1830    1.8060 n2        1 RKA     -0.818600
     21 C21        -8.5690    1.0630    0.4390 ca        1 RKA     -0.197900
     22 C22        -9.0930    2.3590    0.4660 ca        1 RKA     -0.108500
     23 C23       -10.4570    2.5580    0.2540 ca        1 RKA     -0.129000
     24 C24       -11.2950    1.4680    0.0180 ca        1 RKA     -0.116000
     25 C25       -10.7700    0.1760   -0.0070 ca        1 RKA     -0.129000
     26 C26        -9.4060   -0.0290    0.2000 ca        1 RKA     -0.108500
     27 N27         6.5660   -0.0560   -0.3590 nh        1 RKA     -0.688600
     28 C28         7.0290    1.1890    0.1300 ce        1 RKA      0.656300
     29 N29         6.2480    2.1930    0.3900 n2        1 RKA     -0.818600
     30 C30         8.5230    1.2430    0.2570 ca        1 RKA     -0.197900
     31 C31         9.2450    2.1500   -0.5240 ca        1 RKA     -0.108500
     32 C32        10.6320    2.2250   -0.3940 ca        1 RKA     -0.129000
     33 C33        11.2960    1.4000    0.5150 ca        1 RKA     -0.116000
     34 C34        10.5730    0.4960    1.2940 ca        1 RKA     -0.129000
     35 C35         9.1870    0.4140    1.1650 ca        1 RKA     -0.108500
     36 H1         -1.3980   -3.9470   -0.5710 ha        1 RKA      0.151000
     37 H2          1.3210   -4.0130   -0.5810 ha        1 RKA      0.151000
     38 HN4         0.0600    0.0250   -0.3250 hn        1 RKA      0.296700
     39 H7          2.1050    0.6230   -1.3060 ha        1 RKA      0.133250
     40 H8          4.4280    1.3970   -1.2430 ha        1 RKA      0.142250
     41 H10         5.6170   -2.3990    0.5390 ha        1 RKA      0.142250
     42 H11         3.2710   -3.1530    0.4640 ha        1 RKA      0.133250
     43 H13        -3.3070   -2.8930   -1.4610 ha        1 RKA      0.133250
     44 H14        -5.6180   -2.0390   -1.4120 ha        1 RKA      0.142250
     45 H16        -4.2320    1.5170    0.6940 ha        1 RKA      0.142250
     46 H17        -1.9530    0.6250    0.6700 ha        1 RKA      0.133250
     47 HN18       -7.0260   -0.1990   -1.0280 hn        1 RKA      0.419300
     48 HN20       -7.1220    1.6090    2.4740 hn        1 RKA      0.398400
     49 H22        -8.4290    3.2180    0.6490 ha        1 RKA      0.139500
     50 H23       -10.8700    3.5770    0.2720 ha        1 RKA      0.137500
     51 H24       -12.3710    1.6280   -0.1480 ha        1 RKA      0.136000
     52 H25       -11.4320   -0.6840   -0.1910 ha        1 RKA      0.137500
     53 H26        -8.9960   -1.0500    0.1870 ha        1 RKA      0.139500
     54 HN27        7.1980   -0.8060   -0.1640 hn        1 RKA      0.419300
     55 HN29        6.7330    3.0210    0.6630 hn        1 RKA      0.398400
     56 H31         8.7210    2.7980   -1.2420 ha        1 RKA      0.139500
     57 H32        11.2020    2.9360   -1.0100 ha        1 RKA      0.137500
     58 H33        12.3890    1.4620    0.6160 ha        1 RKA      0.136000
     59 H34        11.0960   -0.1520    2.0120 ha        1 RKA      0.137500
     60 H35         8.6190   -0.2950    1.7870 ha        1 RKA      0.139500
@<TRIPOS>BOND
     1    1    2 1   
     2    1    5 2   
     3    1   36 1   
     4    2    3 2   
     5    2   37 1   
     6    3    4 1   
     7    3    6 1   
     8    4    5 1   
     9    4   38 1   
    10    5   12 1   
    11    6    7 ar  
    12    6   11 ar  
    13    7    8 ar  
    14    7   39 1   
    15    8    9 ar  
    16    8   40 1   
    17    9   10 ar  
    18    9   27 1   
    19   10   11 ar  
    20   10   41 1   
    21   11   42 1   
    22   12   13 ar  
    23   12   17 ar  
    24   13   14 ar  
    25   13   43 1   
    26   14   15 ar  
    27   14   44 1   
    28   15   16 ar  
    29   15   18 1   
    30   16   17 ar  
    31   16   45 1   
    32   17   46 1   
    33   18   19 1   
    34   18   47 1   
    35   19   20 2   
    36   19   21 1   
    37   20   48 1   
    38   21   22 ar  
    39   21   26 ar  
    40   22   23 ar  
    41   22   49 1   
    42   23   24 ar  
    43   23   50 1   
    44   24   25 ar  
    45   24   51 1   
    46   25   26 ar  
    47   25   52 1   
    48   26   53 1   
    49   27   28 1   
    50   27   54 1   
    51   28   29 2   
    52   28   30 1   
    53   29   55 1   
    54   30   31 ar  
    55   30   35 ar  
    56   31   32 ar  
    57   31   56 1   
    58   32   33 ar  
    59   32   57 1   
    60   33   34 ar  
    61   33   58 1   
    62   34   35 ar  
    63   34   59 1   
    64   35   60 1   
@<TRIPOS>SUBSTRUCTURE
     1 RKA         1 TEMP              0 ****  ****    0 ROOT
