@<TRIPOS>MOLECULE
RKA
   62    66     1     0     0
SMALL
bcc


@<TRIPOS>ATOM
      1 C1         -0.0210   -0.4020    0.4520 cc        1 RKA     -0.136000
      2 C2          1.3980   -0.3530    0.4460 cc        1 RKA     -0.136000
      3 C3          1.8190   -0.0140    1.7560 cd        1 RKA     -0.087300
      4 N4          0.6810    0.1330    2.5530 na        1 RKA     -0.147100
      5 C5         -0.4510   -0.1010    1.7690 cd        1 RKA     -0.087300
      6 C6          3.1800    0.1710    2.2130 ca        1 RKA      0.054000
      7 C7          3.4940    0.9400    3.3450 ca        1 RKA     -0.111750
      8 C8          4.8160    1.1270    3.7370 ca        1 RKA     -0.089750
      9 C9          5.8540    0.5390    2.9930 ca        1 RKA     -0.082900
     10 C10         5.5530   -0.2390    1.8580 ca        1 RKA     -0.089750
     11 C11         4.2280   -0.4190    1.4810 ca        1 RKA     -0.111750
     12 C12        -1.8160   -0.0510    2.2480 ca        1 RKA      0.054000
     13 C13        -2.8530    0.1820    1.3250 ca        1 RKA     -0.111750
     14 C14        -4.1800    0.2110    1.7330 ca        1 RKA     -0.089750
     15 C15        -4.4960    0.0050    3.0900 ca        1 RKA     -0.082900
     16 C16        -3.4690   -0.2220    4.0240 ca        1 RKA     -0.089750
     17 C17        -2.1440   -0.2490    3.5990 ca        1 RKA     -0.111750
     18 N18        -5.8860    0.0420    3.5260 n4        1 RKA     -0.674900
     19 C19        -6.6410   -1.2950    3.3680 ce        1 RKA      0.625300
     20 N20        -6.1290   -2.3820    2.9740 n2        1 RKA     -0.668100
     21 C21        -8.0560   -1.1090    3.7620 ca        1 RKA     -0.221400
     22 C22        -8.5710   -1.8540    4.8300 ca        1 RKA     -0.090250
     23 C23        -9.9130   -1.7070    5.1820 ca        1 RKA     -0.115000
     24 C24       -10.7340   -0.8310    4.4710 ca        1 RKA     -0.069000
     25 C25       -10.2170   -0.0990    3.3980 ca        1 RKA     -0.115000
     26 C26        -8.8790   -0.2360    3.0370 ca        1 RKA     -0.090250
     27 N27         7.2440    0.7530    3.3780 n4        1 RKA     -0.674900
     28 C28         7.8610   -0.3910    4.2100 ce        1 RKA      0.625300
     29 N29         7.2470   -1.4270    4.5950 n2        1 RKA     -0.668100
     30 C30         9.2800   -0.0810    4.4950 ca        1 RKA     -0.221400
     31 C31         9.6970    0.0460    5.8250 ca        1 RKA     -0.090250
     32 C32        11.0400    0.3060    6.0990 ca        1 RKA     -0.115000
     33 C33        11.9580    0.4290    5.0560 ca        1 RKA     -0.069000
     34 C34        11.5380    0.2880    3.7300 ca        1 RKA     -0.115000
     35 C35        10.2000    0.0300    3.4440 ca        1 RKA     -0.090250
     36 H1         -0.6620   -0.6390   -0.3940 ha        1 RKA      0.174000
     37 H2          2.0440   -0.5290   -0.4110 ha        1 RKA      0.174000
     38 HN4         0.6760    0.3750    3.5090 hn        1 RKA      0.303700
     39 H7          2.7000    1.4290    3.9310 ha        1 RKA      0.166000
     40 H8          5.0290    1.7480    4.6240 ha        1 RKA      0.162500
     41 H10         6.3510   -0.7070    1.2570 ha        1 RKA      0.162500
     42 H11         3.9990   -1.0330    0.5930 ha        1 RKA      0.166000
     43 H13        -2.6100    0.3510    0.2610 ha        1 RKA      0.166000
     44 H14        -4.9680    0.4020    0.9850 ha        1 RKA      0.162500
     45 H16        -3.6920   -0.3800    5.0920 ha        1 RKA      0.162500
     46 H17        -1.3570   -0.4450    4.3450 ha        1 RKA      0.166000
     47 HN18       -5.9310    0.3050    4.5170 hn        1 RKA      0.461050
     48 HN20       -5.1660   -2.4720    2.7290 hn        1 RKA      0.457400
     49 H22        -7.9310   -2.5630    5.3780 ha        1 RKA      0.143000
     50 H23       -10.3250   -2.2950    6.0190 ha        1 RKA      0.165750
     51 H24       -11.7960   -0.7220    4.7490 ha        1 RKA      0.168000
     52 H25       -10.8730    0.5800    2.8280 ha        1 RKA      0.165750
     53 H26        -8.4930    0.3150    2.1670 ha        1 RKA      0.143000
     54 HN27        7.8190    0.8670    2.5340 hn        1 RKA      0.461050
     55 HN29        6.2840   -1.5930    4.3920 hn        1 RKA      0.457400
     56 H31         8.9790   -0.0730    6.6520 ha        1 RKA      0.143000
     57 H32        11.3750    0.4030    7.1450 ha        1 RKA      0.165750
     58 H33        13.0210    0.6280    5.2770 ha        1 RKA      0.168000
     59 H34        12.2690    0.3710    2.9090 ha        1 RKA      0.165750
     60 H35         9.8870   -0.1160    2.3990 ha        1 RKA      0.143000
     61 H182       -6.3960    0.7510    2.9830 hn        1 RKA      0.461050
     62 H272        7.3190    1.6130    3.9340 hn        1 RKA      0.461050
@<TRIPOS>BOND
     1    1    2 1   
     2    1    5 2   
     3    1   36 1   
     4    2    3 2   
     5    2   37 1   
     6    3    4 1   
     7    3    6 1   
     8    4    5 1   
     9    4   38 1   
    10    5   12 1   
    11    6    7 ar  
    12    6   11 ar  
    13    7    8 ar  
    14    7   39 1   
    15    8    9 ar  
    16    8   40 1   
    17    9   10 ar  
    18    9   27 1   
    19   10   11 ar  
    20   10   41 1   
    21   11   42 1   
    22   12   13 ar  
    23   12   17 ar  
    24   13   14 ar  
    25   13   43 1   
    26   14   15 ar  
    27   14   44 1   
    28   15   16 ar  
    29   15   18 1   
    30   16   17 ar  
    31   16   45 1   
    32   17   46 1   
    33   18   19 1   
    34   18   47 1   
    35   18   61 1   
    36   19   20 2   
    37   19   21 1   
    38   20   48 1   
    39   21   22 ar  
    40   21   26 ar  
    41   22   23 ar  
    42   22   49 1   
    43   23   24 ar  
    44   23   50 1   
    45   24   25 ar  
    46   24   51 1   
    47   25   26 ar  
    48   25   52 1   
    49   26   53 1   
    50   27   28 1   
    51   27   54 1   
    52   27   62 1   
    53   28   29 2   
    54   28   30 1   
    55   29   55 1   
    56   30   31 ar  
    57   30   35 ar  
    58   31   32 ar  
    59   31   56 1   
    60   32   33 ar  
    61   32   57 1   
    62   33   34 ar  
    63   33   58 1   
    64   34   35 ar  
    65   34   59 1   
    66   35   60 1   
@<TRIPOS>SUBSTRUCTURE
     1 RKA         1 TEMP              0 ****  ****    0 ROOT
