@<TRIPOS>MOLECULE
RKD
   39    41     1     0     0
SMALL
bcc


@<TRIPOS>ATOM
      1 N1         -0.1110   -3.7480    0.0960 n4        1 RKD     -0.832600
      2 C2         -1.2140   -2.7780    0.3360 c3        1 RKD      0.100800
      3 C4         -2.1430   -0.5490   -0.2090 ca        1 RKD     -0.172300
      4 C5         -3.4220   -0.8550   -0.6960 ca        1 RKD     -0.098500
      5 C6         -4.4990   -0.0160   -0.4320 ca        1 RKD     -0.121500
      6 C7         -4.3020    1.1470    0.3250 ca        1 RKD      0.044400
      7 O7         -1.1150   -1.9850   -1.8650 oh        1 RKD     -0.632800
      8 CL8        -5.6080    2.1700    0.6520 cl        1 RKD     -0.043400
      9 C9         -3.0270    1.4630    0.8070 ca        1 RKD     -0.121500
     10 C10        -1.9530    0.6170    0.5370 ca        1 RKD     -0.098500
     11 C11         0.3640   -0.9290   -0.2870 ca        1 RKD     -0.201300
     12 C12         1.1600   -0.5220   -1.3650 ca        1 RKD     -0.117500
     13 C13         2.4340   -0.0070   -1.1510 ca        1 RKD     -0.132500
     14 C14         2.9510    0.1190    0.1500 ca        1 RKD      0.072000
     15 C15         2.1440   -0.2830    1.2300 ca        1 RKD     -0.132500
     16 C16         0.8710   -0.7970    1.0140 ca        1 RKD     -0.117500
     17 C17         4.2640    0.6470    0.3670 cc        1 RKD     -0.262300
     18 C18         5.3010    0.8710   -0.6280 cc        1 RKD      0.325200
     19 N19         6.4060    1.3870   -0.0380 nd        1 RKD     -0.489800
     20 N20         6.1320    1.5050    1.2650 na        1 RKD     -0.001600
     21 C21         4.8510    1.0750    1.5820 cd        1 RKD     -0.101300
     22 C60        -1.0130   -1.4910   -0.5250 c3        1 RKD      0.270400
     23 HN1         0.7850   -3.3080    0.3480 hn        1 RKD      0.465133
     24 HN1A       -0.2490   -4.5990    0.6440 hn        1 RKD      0.465133
     25 HN1B       -0.0860   -3.9800   -0.9070 hn        1 RKD      0.465133
     26 HN20        6.8120    1.8820    1.8870 hn        1 RKD      0.337700
     27 H2         -2.1870   -3.2640    0.0390 hx        1 RKD      0.117200
     28 H2A        -1.2390   -2.5090    1.4270 hx        1 RKD      0.117200
     29 HO7        -1.3700   -1.2480   -2.4370 ho        1 RKD      0.453000
     30 H5         -3.5750   -1.7610   -1.3040 ha        1 RKD      0.148000
     31 H6         -5.5010   -0.2620   -0.8210 ha        1 RKD      0.166000
     32 H9         -2.8670    2.3820    1.3950 ha        1 RKD      0.166000
     33 H10        -0.9510    0.8860    0.9100 ha        1 RKD      0.148000
     34 H16         0.2500   -1.0630    1.8830 ha        1 RKD      0.137500
     35 H15         2.5240   -0.1820    2.2590 ha        1 RKD      0.152500
     36 H13         3.0410    0.3180   -2.0120 ha        1 RKD      0.152500
     37 H12         0.7790   -0.6060   -2.3960 ha        1 RKD      0.137500
     38 H18         5.2560    0.6710   -1.6990 h4        1 RKD      0.051100
     39 H21         4.4550    1.1080    2.5970 h4        1 RKD      0.184000
@<TRIPOS>BOND
     1    1    2 1   
     2    1   23 1   
     3    1   24 1   
     4    1   25 1   
     5    2   22 1   
     6    2   27 1   
     7    2   28 1   
     8    3    4 ar  
     9    3   10 ar  
    10    3   22 1   
    11    4    5 ar  
    12    4   30 1   
    13    5    6 ar  
    14    5   31 1   
    15    6    8 1   
    16    6    9 ar  
    17    7   22 1   
    18    7   29 1   
    19    9   10 ar  
    20    9   32 1   
    21   10   33 1   
    22   11   12 ar  
    23   11   16 ar  
    24   11   22 1   
    25   12   13 ar  
    26   12   37 1   
    27   13   14 ar  
    28   13   36 1   
    29   14   15 ar  
    30   14   17 1   
    31   15   16 ar  
    32   15   35 1   
    33   16   34 1   
    34   17   18 1   
    35   17   21 2   
    36   18   19 2   
    37   18   38 1   
    38   19   20 1   
    39   20   21 1   
    40   20   26 1   
    41   21   39 1   
@<TRIPOS>SUBSTRUCTURE
     1 RKD         1 TEMP              0 ****  ****    0 ROOT
