@<TRIPOS>MOLECULE
RKD
   39    41     1     0     0
SMALL
bcc


@<TRIPOS>ATOM
      1 N1         -0.1570   -0.4300    0.3850 nz        1 RKD     -0.832600
      2 C2          1.2860   -0.1730    0.1170 c3        1 RKD      0.105800
      3 C4          3.5370    0.2170    1.2110 ca        1 RKD     -0.146300
      4 C5          4.3660    0.3770    2.3320 ca        1 RKD     -0.107000
      5 C6          5.7380    0.5550    2.1810 ca        1 RKD     -0.113500
      6 C7          6.2960    0.5760    0.8970 ca        1 RKD      0.039400
      7 O7          1.8360   -1.2350    2.1320 oh        1 RKD     -0.632800
      8 Cl8         7.9620    0.7910    0.7040 cl        1 RKD     -0.042400
      9 C9          5.4770    0.4210   -0.2270 ca        1 RKD     -0.113500
     10 C10         4.1040    0.2410   -0.0660 ca        1 RKD     -0.107000
     11 C11         1.4410    1.1510    2.2080 ca        1 RKD     -0.218300
     12 C12         0.5230    0.9110    3.2380 ca        1 RKD     -0.114000
     13 C13        -0.0640    1.9690    3.9210 ca        1 RKD     -0.135000
     14 C14         0.2520    3.3010    3.5910 ca        1 RKD      0.074000
     15 C15         1.1790    3.5330    2.5590 ca        1 RKD     -0.135000
     16 C16         1.7680    2.4720    1.8790 ca        1 RKD     -0.114000
     17 C17        -0.3560    4.3900    4.2940 cc        1 RKD     -0.262300
     18 C18        -1.4520    4.3260    5.2480 cc        1 RKD      0.323200
     19 N19        -1.7440    5.5680    5.7030 nd        1 RKD     -0.490800
     20 N20        -0.9010    6.4110    5.1000 na        1 RKD     -0.001600
     21 C21        -0.0300    5.7660    4.2320 cd        1 RKD     -0.098300
     22 C60         2.0660    0.0030    1.4540 c3        1 RKD      0.266400
     23 HN1        -0.5310    0.3230    0.9820 hn        1 RKD      0.466133
     24 HN1A       -0.6840   -0.4810   -0.4880 hn        1 RKD      0.466133
     25 HN1B       -0.2450   -1.3170    0.9000 hn        1 RKD      0.466133
     26 HN20       -0.9360    7.3850    5.3040 hn        1 RKD      0.337700
     27 H2          1.6980   -1.0580   -0.4460 hx        1 RKD      0.117700
     28 H2A         1.3790    0.7690   -0.4920 hx        1 RKD      0.117700
     29 HO7         2.4880   -1.3160    2.8420 ho        1 RKD      0.454000
     30 H5          3.9280    0.3790    3.3430 ha        1 RKD      0.136000
     31 H6          6.3790    0.6790    3.0690 ha        1 RKD      0.166000
     32 H9          5.9130    0.4380   -1.2380 ha        1 RKD      0.166000
     33 H10         3.4910    0.1190   -0.9710 ha        1 RKD      0.136000
     34 H16         2.5090    2.6730    1.0890 ha        1 RKD      0.143500
     35 H15         1.4490    4.5660    2.2910 ha        1 RKD      0.151500
     36 H13        -0.7710    1.7650    4.7400 ha        1 RKD      0.151500
     37 H12         0.2910   -0.1250    3.5340 ha        1 RKD      0.143500
     38 H18        -1.9980    3.4440    5.5850 h4        1 RKD      0.049100
     39 H21         0.7310    6.2970    3.6610 h4        1 RKD      0.185000
@<TRIPOS>BOND
     1    1    2 1   
     2    1   23 1   
     3    1   24 1   
     4    1   25 1   
     5    2   22 1   
     6    2   27 1   
     7    2   28 1   
     8    3    4 ar  
     9    3   10 ar  
    10    3   22 1   
    11    4    5 ar  
    12    4   30 1   
    13    5    6 ar  
    14    5   31 1   
    15    6    8 1   
    16    6    9 ar  
    17    7   22 1   
    18    7   29 1   
    19    9   10 ar  
    20    9   32 1   
    21   10   33 1   
    22   11   12 ar  
    23   11   16 ar  
    24   11   22 1   
    25   12   13 ar  
    26   12   37 1   
    27   13   14 ar  
    28   13   36 1   
    29   14   15 ar  
    30   14   17 1   
    31   15   16 ar  
    32   15   35 1   
    33   16   34 1   
    34   17   18 1   
    35   17   21 2   
    36   18   19 2   
    37   18   38 1   
    38   19   20 1   
    39   20   21 1   
    40   20   26 1   
    41   21   39 1   
@<TRIPOS>SUBSTRUCTURE
     1 RKD         1 TEMP              0 ****  ****    0 ROOT
