@<TRIPOS>MOLECULE
RKD
   39    32     1     0     0
SMALL
bcc


@<TRIPOS>ATOM
      1 N1          1.2400   -1.3850   -3.3230 n4        1 RKD     -0.060000
      2 C2          0.7970   -0.1810   -2.6620 c3        1 RKD     -0.131000
      3 C4          1.8700    1.1290   -0.8430 c1        1 RKD     -0.175000
      4 C5          1.4980    2.2660   -1.5380 c1        1 RKD     -0.103000
      5 C6          2.1330    3.4740   -1.2840 c1        1 RKD     -0.116000
      6 C7          3.1400    3.5410   -0.3350 c1        1 RKD     -0.039000
      7 O7          2.2090   -1.2190   -1.0230 oh        1 RKD     -0.360000
      8 CL8         3.7510    5.1160    0.1010 cl        1 RKD      0.036000
      9 C9          3.5120    2.4040    0.3620 c2        1 RKD     -0.111000
     10 C10         2.8770    1.1960    0.1080 c1        1 RKD     -0.101000
     11 C11         0.0580   -0.4700   -0.2920 c1        1 RKD     -0.175000
     12 C12        -0.5590   -1.7160   -0.3050 c1        1 RKD     -0.134000
     13 C13        -1.5730   -1.9990    0.6000 c1        1 RKD     -0.134000
     14 C14        -1.9740   -1.0330    1.5220 c1        1 RKD      0.074000
     15 C15        -1.3600    0.2090    1.5350 c1        1 RKD     -0.137000
     16 C16        -0.3420    0.4930    0.6280 c1        1 RKD     -0.103000
     17 C17        -3.1000   -1.3400    2.5130 c2        1 RKD     -0.197000
     18 C18        -2.9520   -1.9200    3.7430 c1        1 RKD     -0.108000
     19 N19        -4.1800   -2.0760    4.2790 n2        1 RKD     -0.102000
     20 N20        -5.1010   -1.5930    3.3820 n2        1 RKD     -0.102000
     21 C21        -4.4330   -1.1420    2.2990 c1        1 RKD     -0.108000
     22 C60         1.2560   -0.2040   -1.1980 c3        1 RKD      0.180000
     23 HN1         0.9700   -2.1140   -2.8420 hn        1 RKD      0.261333
     24 HN1A        2.1610   -1.3810   -3.3860 hn        1 RKD      0.261333
     25 HN1B        0.8750   -1.4230   -4.1680 hn        1 RKD      0.261333
     26 HN20       -6.0100   -1.5800    3.4990 DU        1 RKD      0.219667
     27 H2          1.1840    0.6030   -3.1150 hx        1 RKD      0.157000
     28 H2A        -0.1850   -0.1290   -2.6970 hx        1 RKD      0.157000
     29 HO7         2.9930   -0.9440   -1.3300 ho        1 RKD      0.253000
     30 H5          0.7910    2.2190   -2.2060 ha        1 RKD      0.135500
     31 H6          1.8710    4.2750   -1.7750 ha        1 RKD      0.164000
     32 H9          4.2230    2.4510    1.0330 ha        1 RKD      0.168000
     33 H10         3.1370    0.4020    0.5940 ha        1 RKD      0.147000
     34 H16         0.0910    1.3700    0.6380 ha        1 RKD      0.135500
     35 H15        -1.6420    0.8890    2.1840 ha        1 RKD      0.149000
     36 H13        -2.0050   -2.8720    0.5900 ha        1 RKD      0.147500
     37 H12        -0.2770   -2.3960   -0.9540 ha        1 RKD      0.147500
     38 H18        -2.1120   -2.1740    4.1570 DU        1 RKD      0.219667
     39 H21        -4.8320   -0.7460    1.5060 DU        1 RKD      0.219667
@<TRIPOS>BOND
     1    1    2 1   
     2    1   23 1   
     3    1   24 1   
     4    1   25 1   
     5    2   22 1   
     6    2   27 1   
     7    2   28 1   
     8    3    4 1   
     9    3   22 1   
    10    4   30 1   
    11    5    6 1   
    12    5   31 1   
    13    6    9 1   
    14    7   22 1   
    15    7   29 1   
    16    9   10 1   
    17    9   32 1   
    18   10   33 1   
    19   11   16 1   
    20   11   22 1   
    21   12   13 1   
    22   12   37 1   
    23   13   36 1   
    24   14   15 1   
    25   14   17 1   
    26   15   35 1   
    27   16   34 1   
    28   17   18 1   
    29   17   21 1   
    30   18   19 1   
    31   19   20 1   
    32   20   21 1   
@<TRIPOS>SUBSTRUCTURE
     1 RKD         1 TEMP              0 ****  ****    0 ROOT
