@<TRIPOS>MOLECULE
RKD
   39    41     1     0     0
SMALL
bcc


@<TRIPOS>ATOM
      1 N1         -0.1580   -0.4300    0.3830 n4        1 RKD     -0.832600
      2 C2          1.2870   -0.1760    0.1180 c3        1 RKD      0.105800
      3 C4          3.5350    0.2120    1.2180 ca        1 RKD     -0.146300
      4 C5          4.3620    0.3730    2.3400 ca        1 RKD     -0.107000
      5 C6          5.7340    0.5470    2.1930 ca        1 RKD     -0.113500
      6 C7          6.2960    0.5660    0.9100 ca        1 RKD      0.039400
      7 O7          1.8290   -1.2350    2.1370 oh        1 RKD     -0.632800
      8 CL8         7.9630    0.7770    0.7210 cl        1 RKD     -0.042400
      9 C9          5.4800    0.4110   -0.2150 ca        1 RKD     -0.113500
     10 C10         4.1060    0.2340   -0.0580 ca        1 RKD     -0.107000
     11 C11         1.4390    1.1520    2.2070 ca        1 RKD     -0.218300
     12 C12         0.5170    0.9150    3.2350 ca        1 RKD     -0.114000
     13 C13        -0.0700    1.9750    3.9150 ca        1 RKD     -0.135000
     14 C14         0.2490    3.3060    3.5830 ca        1 RKD      0.074000
     15 C15         1.1800    3.5340    2.5530 ca        1 RKD     -0.135000
     16 C16         1.7680    2.4710    1.8770 ca        1 RKD     -0.114000
     17 C17        -0.3590    4.3970    4.2830 cc        1 RKD     -0.262300
     18 C18        -1.4580    4.3370    5.2340 cc        1 RKD      0.323200
     19 N19        -1.7490    5.5800    5.6860 nd        1 RKD     -0.490800
     20 N20        -0.9030    6.4200    5.0840 na        1 RKD     -0.001600
     21 C21        -0.0310    5.7720    4.2190 cd        1 RKD     -0.098300
     22 C60         2.0630    0.0020    1.4570 c3        1 RKD      0.266400
     23 HN1        -0.6820   -0.4820   -0.4920 hn        1 RKD      0.466133
     24 HN1A       -0.2480   -1.3150    0.8990 hn        1 RKD      0.466133
     25 HN1B       -0.5320    0.3240    0.9770 hn        1 RKD      0.466133
     26 HN20       -0.9370    7.3950    5.2850 hn        1 RKD      0.337700
     27 H2          1.6990   -1.0620   -0.4430 hx        1 RKD      0.117700
     28 H2A         1.3830    0.7650   -0.4920 hx        1 RKD      0.117700
     29 HO7         2.4790   -1.3160    2.8480 ho        1 RKD      0.454000
     30 H5          3.9210    0.3770    3.3500 ha        1 RKD      0.136000
     31 H6          6.3730    0.6710    3.0830 ha        1 RKD      0.166000
     32 H9          5.9190    0.4260   -1.2260 ha        1 RKD      0.166000
     33 H10         3.4950    0.1110   -0.9640 ha        1 RKD      0.136000
     34 H16         2.5120    2.6700    1.0880 ha        1 RKD      0.143500
     35 H15         1.4520    4.5670    2.2840 ha        1 RKD      0.151500
     36 H13        -0.7800    1.7740    4.7320 ha        1 RKD      0.151500
     37 H12         0.2820   -0.1200    3.5320 ha        1 RKD      0.143500
     38 H18        -2.0060    3.4560    5.5710 h4        1 RKD      0.049100
     39 H21         0.7330    6.3020    3.6500 h4        1 RKD      0.185000
@<TRIPOS>BOND
     1    1    2 1   
     2    1   23 1   
     3    1   24 1   
     4    1   25 1   
     5    2   22 1   
     6    2   27 1   
     7    2   28 1   
     8    3    4 ar  
     9    3   10 ar  
    10    3   22 1   
    11    4    5 ar  
    12    4   30 1   
    13    5    6 ar  
    14    5   31 1   
    15    6    8 1   
    16    6    9 ar  
    17    7   22 1   
    18    7   29 1   
    19    9   10 ar  
    20    9   32 1   
    21   10   33 1   
    22   11   12 ar  
    23   11   16 ar  
    24   11   22 1   
    25   12   13 ar  
    26   12   37 1   
    27   13   14 ar  
    28   13   36 1   
    29   14   15 ar  
    30   14   17 1   
    31   15   16 ar  
    32   15   35 1   
    33   16   34 1   
    34   17   18 1   
    35   17   21 2   
    36   18   19 2   
    37   18   38 1   
    38   19   20 1   
    39   20   21 1   
    40   20   26 1   
    41   21   39 1   
@<TRIPOS>SUBSTRUCTURE
     1 RKD         1 TEMP              0 ****  ****    0 ROOT
