@<TRIPOS>MOLECULE
RKD
   39    41     1     0     0
SMALL
bcc


@<TRIPOS>ATOM
      1 N1         -0.1480   -0.4020    0.3410 n4        1 RKD     -0.832600
      2 C2          1.3030   -0.1600    0.1010 c3        1 RKD      0.105800
      3 C4          3.5370    0.2010    1.2380 ca        1 RKD     -0.146300
      4 C5          4.3470    0.3480    2.3740 ca        1 RKD     -0.107000
      5 C6          5.7230    0.5110    2.2490 ca        1 RKD     -0.113500
      6 C7          6.3060    0.5310    0.9760 ca        1 RKD      0.039400
      7 O7          1.8040   -1.2350    2.1220 oh        1 RKD     -0.632800
      8 CL8         7.9780    0.7280    0.8140 cl        1 RKD     -0.042400
      9 C9          5.5060    0.3890   -0.1630 ca        1 RKD     -0.113500
     10 C10         4.1280    0.2240   -0.0280 ca        1 RKD     -0.107000
     11 C11         1.4340    1.1550    2.2000 ca        1 RKD     -0.218300
     12 C12         0.4940    0.9210    3.2120 ca        1 RKD     -0.114000
     13 C13        -0.0930    1.9830    3.8880 ca        1 RKD     -0.135000
     14 C14         0.2430    3.3120    3.5680 ca        1 RKD      0.074000
     15 C15         1.1910    3.5380    2.5540 ca        1 RKD     -0.135000
     16 C16         1.7810    2.4730    1.8810 ca        1 RKD     -0.114000
     17 C17        -0.3650    4.4050    4.2650 cc        1 RKD     -0.262300
     18 C18        -1.4790    4.3500    5.1990 cc        1 RKD      0.323200
     19 N19        -1.7660    5.5930    5.6530 nd        1 RKD     -0.490800
     20 N20        -0.9040    6.4290    5.0680 na        1 RKD     -0.001600
     21 C21        -0.0250    5.7780    4.2130 cd        1 RKD     -0.098300
     22 C60         2.0600    0.0030    1.4530 c3        1 RKD      0.266400
     23 HN1        -0.6590   -0.4440   -0.5420 hn        1 RKD      0.466133
     24 HN1A       -0.5240    0.3520    0.9330 hn        1 RKD      0.466133
     25 HN1B       -0.2540   -1.2900    0.8510 hn        1 RKD      0.466133
     26 HN20       -0.9330    7.4030    5.2740 hn        1 RKD      0.337700
     27 H2          1.4180    0.7830   -0.5030 hx        1 RKD      0.117700
     28 H2A         1.7160   -1.0470   -0.4590 hx        1 RKD      0.117700
     29 HO7         2.4420   -1.3260    2.8430 ho        1 RKD      0.454000
     30 H5          3.8910    0.3510    3.3770 ha        1 RKD      0.136000
     31 H6          6.3490    0.6250    3.1500 ha        1 RKD      0.166000
     32 H9          5.9610    0.4050   -1.1670 ha        1 RKD      0.166000
     33 H10         3.5310    0.1120   -0.9450 ha        1 RKD      0.136000
     34 H16         2.5390    2.6680    1.1050 ha        1 RKD      0.143500
     35 H15         1.4770    4.5690    2.2950 ha        1 RKD      0.151500
     36 H13        -0.8180    1.7840    4.6930 ha        1 RKD      0.151500
     37 H12         0.2460   -0.1140    3.4990 ha        1 RKD      0.143500
     38 H18        -2.0390    3.4720    5.5230 h4        1 RKD      0.049100
     39 H21         0.7520    6.3030    3.6570 h4        1 RKD      0.185000
@<TRIPOS>BOND
     1    1    2 1   
     2    1   23 1   
     3    1   24 1   
     4    1   25 1   
     5    2   22 1   
     6    2   27 1   
     7    2   28 1   
     8    3    4 ar  
     9    3   10 ar  
    10    3   22 1   
    11    4    5 ar  
    12    4   30 1   
    13    5    6 ar  
    14    5   31 1   
    15    6    8 1   
    16    6    9 ar  
    17    7   22 1   
    18    7   29 1   
    19    9   10 ar  
    20    9   32 1   
    21   10   33 1   
    22   11   12 ar  
    23   11   16 ar  
    24   11   22 1   
    25   12   13 ar  
    26   12   37 1   
    27   13   14 ar  
    28   13   36 1   
    29   14   15 ar  
    30   14   17 1   
    31   15   16 ar  
    32   15   35 1   
    33   16   34 1   
    34   17   18 1   
    35   17   21 2   
    36   18   19 2   
    37   18   38 1   
    38   19   20 1   
    39   20   21 1   
    40   20   26 1   
    41   21   39 1   
@<TRIPOS>SUBSTRUCTURE
     1 RKD         1 TEMP              0 ****  ****    0 ROOT
