@<TRIPOS>MOLECULE
RKE
   32    33     1     0     0
SMALL
bcc


@<TRIPOS>ATOM
      1 CAA        -3.2810    1.0700    0.0640 ca        1 RKE     -0.126000
      2 CAB        -3.6960   -0.2560   -0.0390 ca        1 RKE     -0.120000
      3 CAC        -1.9230    1.3770    0.1150 ca        1 RKE     -0.124000
      4 CAD        -2.7430   -1.2680   -0.0900 ca        1 RKE     -0.122000
      5 CAE        -0.9400    0.3790    0.0630 ca        1 RKE     -0.084300
      6 CAF        -1.3790   -0.9550   -0.0410 ca        1 RKE      0.034400
      7 CAG         1.2390   -0.1070    1.2100 c         1 RKE      0.590100
      8 CAH         2.6940   -0.4330    1.0410 c3        1 RKE     -0.166400
      9 CAI         3.1030   -0.7430   -0.3790 c3        1 RKE     -0.071400
     10 CAJ         2.6220    0.3360   -1.3230 c3        1 RKE     -0.077400
     11 CAK         1.1140    0.4200   -1.2960 c3        1 RKE     -0.074400
     12 CAL         0.5470    0.7430    0.1060 c3        1 RKE      0.157500
     13 NAN         0.8420    2.1190    0.5250 n3        1 RKE     -0.827200
     14 OAO         0.6430   -0.3740    2.2560 o         1 RKE     -0.529100
     15 CLAP       -0.3050   -2.2810   -0.1060 cl        1 RKE     -0.095400
     16 HAA        -4.0250    1.8790    0.1090 ha        1 RKE      0.136000
     17 HAB        -4.7670   -0.5040   -0.0750 ha        1 RKE      0.139000
     18 HAC        -1.6520    2.4400    0.1970 ha        1 RKE      0.133000
     19 HAD        -3.0620   -2.3190   -0.1650 ha        1 RKE      0.148000
     20 HAH         3.2600    0.4690    1.4080 hc        1 RKE      0.074700
     21 HAHA        2.9560   -1.2950    1.7110 hc        1 RKE      0.074700
     22 HAI         4.2210   -0.8240   -0.4300 hc        1 RKE      0.045700
     23 HAIA        2.6790   -1.7340   -0.6890 hc        1 RKE      0.045700
     24 HAJ         3.0740    1.3220   -1.0360 hc        1 RKE      0.048200
     25 HAJA        2.9580    0.1010   -2.3670 hc        1 RKE      0.048200
     26 HAK         0.7580    1.1890   -2.0310 hc        1 RKE      0.055700
     27 HAKA        0.6930   -0.5650   -1.6340 hc        1 RKE      0.055700
     28 HAM         0.8320    4.1470    0.0460 h1        1 RKE      0.033700
     29 HAMA        1.6780    3.0590   -1.1450 h1        1 RKE      0.033700
     30 HAMB       -0.1390    3.1300   -1.1150 h1        1 RKE      0.033700
     31 HNAN        0.2750    2.3460    1.3220 hn        1 RKE      0.377800
     32 CAM         0.7840    3.1510   -0.4710 c3        1 RKE      0.153100
@<TRIPOS>BOND
     1    1    2 ar  
     2    1    3 ar  
     3    1   16 1   
     4    2    4 ar  
     5    2   17 1   
     6    3    5 ar  
     7    3   18 1   
     8    4    6 ar  
     9    4   19 1   
    10    5    6 ar  
    11    5   12 1   
    12    6   15 1   
    13    7    8 1   
    14    7   12 1   
    15    7   14 2   
    16    8    9 1   
    17    8   20 1   
    18    8   21 1   
    19    9   10 1   
    20    9   22 1   
    21    9   23 1   
    22   10   11 1   
    23   10   24 1   
    24   10   25 1   
    25   11   12 1   
    26   11   26 1   
    27   11   27 1   
    28   12   13 1   
    29   13   31 1   
    30   13   32 1   
    31   28   32 1   
    32   29   32 1   
    33   30   32 1   
@<TRIPOS>SUBSTRUCTURE
     1 RKE         1 TEMP              0 ****  ****    0 ROOT
