@<TRIPOS>MOLECULE
RKE
   33    31     1     0     0
SMALL
bcc


@<TRIPOS>ATOM
      1 CAA         0.1180    0.1800   -0.2750 c2        1 RKE     -0.162000
      2 CAB         4.0360   -0.6100    0.9120 c1        1 RKE      0.358000
      3 CAC        -0.0890    0.5060    1.0020 c2        1 RKE     -0.169000
      4 CAD         2.8230   -0.1340    1.1560 c2        1 RKE     -0.515000
      5 CAE         0.5590   -0.1280    2.1420 c2        1 RKE     -0.127000
      6 CAF         1.8800   -0.4450    2.1940 c2        1 RKE      0.090000
      7 CAG        -1.1860   -1.4650    3.1350 c1        1 RKE      0.498000
      8 CAH         0.5230   -0.5890    7.1690 c3        1 RKE     -0.226000
      9 CAI        -0.5040    0.4760    6.8900 c3        1 RKE     -0.160000
     10 CAJ        -1.2240    0.2480    5.5710 c3        1 RKE     -0.192000
     11 CAK        -0.3270    0.4070    4.4130 c2        1 RKE      0.119000
     12 CAL        -0.3270   -0.3720    3.2960 c2        1 RKE     -0.158000
     13 NAN        -3.5770   -0.2510    3.3230 n3        1 RKE     -0.400000
     14 OAO        -1.8040   -2.4290    2.9470 o         1 RKE      0.055000
     15 CLAP        2.5270   -1.2370    3.5600 cl        1 RKE      0.009000
     16 HAA        -0.8020    1.3070    1.2710 ha        1 RKE      0.139000
     17 HAB        -0.4020    0.7000   -1.0940 ha        1 RKE      0.137000
     18 HAC         0.8010   -0.6210   -0.5910 ha        1 RKE      0.137000
     19 HAD         2.4880    0.6490    0.4260 ha        1 RKE      0.225000
     20 HAH         1.2970   -0.6180    6.3630 hc        1 RKE      0.087667
     21 HAHA        0.0460   -1.5970    7.2390 hc        1 RKE      0.087667
     22 HAI         1.0360   -0.3790    8.1400 hc        1 RKE      0.087667
     23 HAIA       -0.0160    1.4870    6.8820 hc        1 RKE      0.109500
     24 HAJ        -1.2720    0.4840    7.7100 hc        1 RKE      0.109500
     25 HAJA       -1.7200   -0.7610    5.5770 hc        1 RKE      0.126000
     26 HAK        -2.0450    1.0190    5.4630 hc        1 RKE      0.126000
     27 HAKA        0.4060    1.2400    4.4660 ha        1 RKE      0.191000
     28 HAM        -3.1560    1.8030    3.3300 h1        1 RKE      0.085000
     29 HAMA       -4.7790    1.3930    2.6210 h1        1 RKE      0.085000
     30 HAMB       -3.2640    1.0200    1.6860 h1        1 RKE      0.085000
     31 HNAN       -4.0990   -0.9350    2.8040 hn        1 RKE      0.157000
     32 CAM        -3.7130    1.0480    2.7150 c3        1 RKE     -0.151000
     33 HAN2       -3.9370   -0.2360    4.2600 hn        1 RKE      0.157000
@<TRIPOS>BOND
     1    1    3 1   
     2    1   17 1   
     3    1   18 1   
     4    2    4 1   
     5    3    5 1   
     6    3   16 1   
     7    4    6 1   
     8    4   19 1   
     9    5    6 1   
    10    5   12 1   
    11    6   15 1   
    12    7   12 1   
    13    7   14 1   
    14    8    9 1   
    15    8   20 1   
    16    8   21 1   
    17    8   22 1   
    18    9   10 1   
    19    9   23 1   
    20    9   24 1   
    21   10   11 1   
    22   10   25 1   
    23   10   26 1   
    24   11   12 1   
    25   11   27 1   
    26   13   31 1   
    27   13   32 1   
    28   13   33 1   
    29   28   32 1   
    30   29   32 1   
    31   30   32 1   
@<TRIPOS>SUBSTRUCTURE
     1 RKE         1 TEMP              0 ****  ****    0 ROOT
