@<TRIPOS>MOLECULE
RKE
   33    32     1     0     0
SMALL
bcc


@<TRIPOS>ATOM
      1 CAA        -0.9480    2.2850    0.9630 c2        1 RKE     -0.167000
      2 CAB         3.2480   -0.9170   -0.3140 c1        1 RKE      0.351000
      3 CAC        -0.3200    1.1410    0.6890 c2        1 RKE     -0.158000
      4 CAD         2.2380   -0.2130    0.1770 c2        1 RKE     -0.506000
      5 CAE         0.3330    0.2860    1.6710 c2        1 RKE     -0.119000
      6 CAF         1.4940   -0.3640    1.3960 c2        1 RKE      0.071000
      7 CAG        -1.8310   -1.4040    7.0690 c2        1 RKE      0.222000
      8 CAH        -0.9050   -0.2850    7.4230 c3        1 RKE     -0.245000
      9 CAI        -0.0660    0.2140    6.2670 c3        1 RKE     -0.151000
     10 CAJ        -0.8900    1.0270    5.2800 c3        1 RKE     -0.173000
     11 CAK        -0.2430    1.0870    3.9480 c2        1 RKE     -0.051000
     12 CAL        -0.3160    0.1440    2.9870 c2        1 RKE     -0.111000
     13 NAN        -1.0470   -1.1200    3.1820 n4        1 RKE      0.004000
     14 OAO        -1.9820   -1.8310    5.9170 o         1 RKE     -0.373000
     15 CLAP        2.1640   -1.4430    2.5430 cl        1 RKE     -0.010000
     16 HAA        -0.2530    0.7760   -0.3540 ha        1 RKE      0.146000
     17 HAB        -1.4170    2.8910    0.1740 ha        1 RKE      0.129000
     18 HAC        -1.0310    2.7000    1.9770 ha        1 RKE      0.129000
     19 HAD         1.9360    0.6510   -0.4690 ha        1 RKE      0.222000
     20 HAH        -2.3970   -1.8480    7.9200 h4        1 RKE      0.130000
     21 HAHA       -0.2250   -0.6460    8.2450 hc        1 RKE      0.137500
     22 HAI        -1.5180    0.5560    7.8510 hc        1 RKE      0.137500
     23 HAIA        0.7700    0.8500    6.6640 hc        1 RKE      0.100500
     24 HAJ         0.4040   -0.6640    5.7490 hc        1 RKE      0.100500
     25 HAJA       -1.0150    2.0720    5.6780 hc        1 RKE      0.113500
     26 HAK        -1.9240    0.5910    5.1990 hc        1 RKE      0.113500
     27 HAKA        0.3580    1.9940    3.7370 ha        1 RKE      0.182000
     28 HAM        -3.0250   -0.3360    3.0280 hx        1 RKE      0.142333
     29 HAMA       -2.2620   -0.8550    1.4440 hx        1 RKE      0.142333
     30 HAMB       -2.8470   -2.1220    2.6480 hx        1 RKE      0.142333
     31 HNAN       -0.4790   -1.8790    2.7820 hn        1 RKE      0.265000
     32 CAM        -2.3780   -1.1080    2.5320 c3        1 RKE     -0.183000
     33 HAN2       -1.1600   -1.2970    4.1980 hn        1 RKE      0.265000
@<TRIPOS>BOND
     1    1    3 1   
     2    1   17 1   
     3    1   18 1   
     4    2    4 1   
     5    3    5 1   
     6    3   16 1   
     7    4    6 1   
     8    4   19 1   
     9    5    6 1   
    10    5   12 1   
    11    6   15 1   
    12    7    8 1   
    13    7   14 1   
    14    7   20 1   
    15    8    9 1   
    16    8   21 1   
    17    8   22 1   
    18    9   10 1   
    19    9   23 1   
    20    9   24 1   
    21   10   11 1   
    22   10   25 1   
    23   10   26 1   
    24   11   12 1   
    25   11   27 1   
    26   12   13 1   
    27   13   31 1   
    28   13   32 1   
    29   13   33 1   
    30   28   32 1   
    31   29   32 1   
    32   30   32 1   
@<TRIPOS>SUBSTRUCTURE
     1 RKE         1 TEMP              0 ****  ****    0 ROOT
