@<TRIPOS>MOLECULE
RKE
   33    31     1     0     0
SMALL
bcc


@<TRIPOS>ATOM
      1 CAA        -0.3990    2.0480    0.8890 c2        1 RKE     -0.166000
      2 CAB         3.1360   -2.0500    0.8790 c1        1 RKE      0.348000
      3 CAC        -0.0550    0.7590    0.9190 c2        1 RKE     -0.162000
      4 CAD         2.2000   -1.1280    1.0460 c2        1 RKE     -0.507000
      5 CAE         0.2960    0.0200    2.1250 c2        1 RKE     -0.115000
      6 CAF         1.3170   -0.8740    2.1510 c2        1 RKE      0.071000
      7 CAG        -1.2580   -3.6190    3.1260 c1        1 RKE      0.111000
      8 CAH        -0.4790   -0.2750    6.8240 c3        1 RKE     -0.226000
      9 CAI        -0.3480    1.2140    6.6360 c3        1 RKE     -0.162000
     10 CAJ        -1.0210    1.7100    5.3670 c3        1 RKE     -0.169000
     11 CAK        -0.2630    1.3310    4.1530 c2        1 RKE     -0.045000
     12 CAL        -0.5030    0.2870    3.3350 c2        1 RKE     -0.122000
     13 NAN        -1.5840   -0.6800    3.5830 ny        1 RKE     -0.002000
     14 OAO        -1.1190   -4.7650    2.9840 o         1 RKE     -0.085000
     15 ClAP        1.6260   -1.7810    3.5680 cl        1 RKE     -0.011000
     16 HAA        -0.0020    0.1700   -0.0160 ha        1 RKE      0.144000
     17 HAB        -0.6460    2.5610   -0.0520 ha        1 RKE      0.130000
     18 HAC        -0.4470    2.6760    1.7890 ha        1 RKE      0.130000
     19 HAD         2.1080   -0.4190    0.1830 ha        1 RKE      0.222000
     20 HAH         0.0440   -0.8290    6.0060 hc        1 RKE      0.078667
     21 HAHA       -0.0140   -0.5780    7.7950 hc        1 RKE      0.078667
     22 HAI        -1.5520   -0.5840    6.8460 hc        1 RKE      0.078667
     23 HAIA        0.7370    1.5000    6.6230 hc        1 RKE      0.112000
     24 HAJ        -0.8190    1.7410    7.5100 hc        1 RKE      0.112000
     25 HAJA       -1.0730    2.8360    5.4080 hc        1 RKE      0.106000
     26 HAK        -2.0820    1.3450    5.3350 hc        1 RKE      0.106000
     27 HAKA        0.6010    1.9820    3.9110 ha        1 RKE      0.182000
     28 HAM        -3.2330    0.6530    3.3110 hx        1 RKE      0.141333
     29 HAMA       -3.5930   -1.1270    3.0330 hx        1 RKE      0.141333
     30 HAMB       -2.6270   -0.1720    1.7930 hx        1 RKE      0.141333
     31 HNAN       -1.2740   -1.6250    3.2590 hn        1 RKE      0.264000
     32 CAM        -2.8380   -0.3090    2.8890 c3        1 RKE     -0.189000
     33 HAN2       -1.7530   -0.7330    4.5970 hn        1 RKE      0.264000
@<TRIPOS>BOND
     1    1    3 1   
     2    1   17 1   
     3    1   18 1   
     4    2    4 1   
     5    3    5 1   
     6    3   16 1   
     7    4    6 1   
     8    4   19 1   
     9    5    6 1   
    10    5   12 1   
    11    6   15 1   
    12    7   14 1   
    13    8    9 1   
    14    8   20 1   
    15    8   21 1   
    16    8   22 1   
    17    9   10 1   
    18    9   23 1   
    19    9   24 1   
    20   10   11 1   
    21   10   25 1   
    22   10   26 1   
    23   11   12 1   
    24   11   27 1   
    25   12   13 1   
    26   13   31 1   
    27   13   32 1   
    28   13   33 1   
    29   28   32 1   
    30   29   32 1   
    31   30   32 1   
@<TRIPOS>SUBSTRUCTURE
     1 RKE         1 TEMP              0 ****  ****    0 ROOT
