@<TRIPOS>MOLECULE
RKS
   74    74     1     0     0
SMALL
bcc


@<TRIPOS>ATOM
      1 C1          4.1740   -1.5840    1.0260 ca        1 RKS     -0.194600
      2 N1          2.6050   -1.0700   -0.7950 n         1 RKS     -0.523900
      3 O1          3.2600   -1.8330    3.3040 oh        1 RKS     -0.520100
      4 C2          4.2390   -2.0090    2.3610 ca        1 RKS      0.119100
      5 N4         -1.0300   -1.4000   -1.5980 n         1 RKS     -0.561900
      6 O2          5.4970   -3.1640    4.1140 oh        1 RKS     -0.494100
      7 C4          5.3870   -2.7060    2.8230 ca        1 RKS      0.097100
      8 O3          2.3470   -0.0680    1.2760 o         1 RKS     -0.612100
      9 C5          6.4580   -2.9490    1.9610 ca        1 RKS     -0.113000
     10 N2         -5.7850    1.0150    2.6160 n         1 RKS     -0.288300
     11 C6          6.3900   -2.4980    0.6410 ca        1 RKS     -0.140000
     12 C7          5.2660   -1.8260    0.1780 ca        1 RKS     -0.108000
     13 C8          2.9670   -0.8600    0.5350 c         1 RKS      0.684700
     14 O6         -5.9220    2.1640    1.9450 oh        1 RKS     -0.443100
     15 O7         -7.0080   -0.9250    2.9550 o         1 RKS     -0.562100
     16 C9          1.3440   -0.6500   -1.3550 c3        1 RKS      0.046700
     17 C10         0.9530    0.8060   -1.0660 c3        1 RKS     -0.080400
     18 C11         0.1730   -1.5850   -0.9430 c         1 RKS      0.629100
     19 C12        -2.1570   -2.2730   -1.4070 c3        1 RKS      0.062700
     20 C13         2.0400    1.7760   -1.4800 c3        1 RKS     -0.071400
     21 C14         1.5120    3.1950   -1.4980 c3        1 RKS     -0.106400
     22 C15        -2.4470   -3.0760   -2.6760 c         1 RKS      0.604100
     23 C16        -3.4570   -1.5360   -1.0360 c3        1 RKS     -0.085400
     24 C17        -3.3890   -0.9650    0.3630 c3        1 RKS     -0.075400
     25 C18        -4.6850   -0.2670    0.7180 c3        1 RKS     -0.107400
     26 C19        -4.6280    0.2410    2.1550 c3        1 RKS      0.051000
     27 C20        -7.0260    0.2970    2.7440 c         1 RKS      0.628100
     28 C21        -8.2980    1.0960    2.7390 c3        1 RKS     -0.170100
     29 HN1         2.9600   -1.9110   -1.2000 hn        1 RKS      0.311500
     30 HO1         2.5810   -1.2280    2.9610 ho        1 RKS      0.468000
     31 HN2        -1.0830   -0.7630   -2.3580 hn        1 RKS      0.322500
     32 HO2         4.7020   -2.8940    4.6000 ho        1 RKS      0.442000
     33 H5          7.2390   -2.6780   -0.0350 ha        1 RKS      0.140000
     34 H6          5.2480   -1.4650   -0.8620 ha        1 RKS      0.139000
     35 C22        -3.4210   -5.0680   -3.5370 c3        1 RKS      0.124700
     36 HO7        -5.7140    2.8620    2.5970 ho        1 RKS      0.421000
     37 HO8         1.4660   -0.7590   -2.4800 h1        1 RKS      0.071700
     38 H12         0.0180    1.0390   -1.6410 hc        1 RKS      0.067200
     39 H13         0.7290    0.9320    0.0260 hc        1 RKS      0.067200
     40 H13A       -1.9100   -3.0100   -0.5790 h1        1 RKS      0.126700
     41 H17         2.8970    1.7040   -0.7580 hc        1 RKS      0.049200
     42 H18         2.4290    1.5060   -2.4970 hc        1 RKS      0.049200
     43 C23         2.6310    4.1660   -1.8590 c3        1 RKS      0.051000
     44 H18A        0.6770    3.2840   -2.2420 hc        1 RKS      0.054700
     45 H19         1.0990    3.4590   -0.4880 hc        1 RKS      0.054700
     46 H19A       -3.6660   -0.7200   -1.7760 hc        1 RKS      0.059700
     47 H19B       -4.2960   -2.2790   -1.1000 hc        1 RKS      0.059700
     48 H30        -3.1910   -1.7900    1.0970 hc        1 RKS      0.053200
     49 H30A       -2.5380   -0.2380    0.4420 hc        1 RKS      0.053200
     50 H31        -4.8620    0.5900    0.0170 hc        1 RKS      0.054200
     51 H31A       -5.5460   -0.9790    0.6090 hc        1 RKS      0.054200
     52 H32        -3.7290    0.9060    2.2790 h1        1 RKS      0.072700
     53 H32A       -4.5420   -0.6320    2.8600 h1        1 RKS      0.072700
     54 H33        -9.1670    0.4080    2.8740 hc        1 RKS      0.071033
     55 H33A       -8.2850    1.8420    3.5700 hc        1 RKS      0.071033
     56 H37        -8.4000    1.6420    1.7690 hc        1 RKS      0.071033
     57 N3          2.2420    5.5660   -2.0500 n         1 RKS     -0.289300
     58 C24         1.8640    6.2940   -0.8670 c         1 RKS      0.627100
     59 O9          1.3600    5.7100   -3.0460 oh        1 RKS     -0.443100
     60 O10         2.3410    5.9700    0.2310 o         1 RKS     -0.558100
     61 C25         0.9960    7.5080   -1.0420 c3        1 RKS     -0.170100
     62 H311       -4.1000   -4.5140   -4.2290 h1        1 RKS      0.053700
     63 H321       -2.4880   -5.3670   -4.0720 h1        1 RKS      0.053700
     64 H331       -3.9320   -5.9500   -3.0780 h1        1 RKS      0.053700
     65 H34         3.4080    4.1670   -1.0430 h1        1 RKS      0.071700
     66 H35         3.1110    3.8380   -2.8230 h1        1 RKS      0.071700
     67 H36         1.8450    6.1940   -3.7430 ho        1 RKS      0.420000
     68 H371        0.0180    7.2140   -1.4960 hc        1 RKS      0.070700
     69 H38         0.8190    7.9820   -0.0460 hc        1 RKS      0.070700
     70 H39         1.4970    8.2440   -1.7160 hc        1 RKS      0.070700
     71 H4          7.3410   -3.4860    2.3350 ha        1 RKS      0.156000
     72 O4          0.3030   -2.4660   -0.0720 o         1 RKS     -0.597100
     73 O5         -3.0960   -4.2470   -2.4130 os        1 RKS     -0.429900
     74 O8         -2.1820   -2.7920   -3.8450 o         1 RKS     -0.546000
@<TRIPOS>BOND
     1    1    4 ar  
     2    1   12 ar  
     3    1   13 1   
     4    2   13 1   
     5    2   16 1   
     6    2   29 1   
     7    3    4 1   
     8    3   30 1   
     9    4    7 ar  
    10    5   18 1   
    11    5   19 1   
    12    5   31 1   
    13    6    7 1   
    14    6   32 1   
    15    7    9 ar  
    16    8   13 2   
    17    9   11 ar  
    18    9   71 1   
    19   10   14 1   
    20   10   26 1   
    21   10   27 1   
    22   11   12 ar  
    23   11   33 1   
    24   12   34 1   
    25   14   36 1   
    26   15   27 2   
    27   16   17 1   
    28   16   18 1   
    29   16   37 1   
    30   17   20 1   
    31   17   38 1   
    32   17   39 1   
    33   18   72 2   
    34   19   22 1   
    35   19   23 1   
    36   19   40 1   
    37   20   21 1   
    38   20   41 1   
    39   20   42 1   
    40   21   43 1   
    41   21   44 1   
    42   21   45 1   
    43   22   73 1   
    44   22   74 2   
    45   23   24 1   
    46   23   46 1   
    47   23   47 1   
    48   24   25 1   
    49   24   48 1   
    50   24   49 1   
    51   25   26 1   
    52   25   50 1   
    53   25   51 1   
    54   26   52 1   
    55   26   53 1   
    56   27   28 1   
    57   28   54 1   
    58   28   55 1   
    59   28   56 1   
    60   35   62 1   
    61   35   63 1   
    62   35   64 1   
    63   35   73 1   
    64   43   57 1   
    65   43   65 1   
    66   43   66 1   
    67   57   58 1   
    68   57   59 1   
    69   58   60 2   
    70   58   61 1   
    71   59   67 1   
    72   61   68 1   
    73   61   69 1   
    74   61   70 1   
@<TRIPOS>SUBSTRUCTURE
     1 RKS         1 TEMP              0 ****  ****    0 ROOT
