@<TRIPOS>MOLECULE
RKS
   78    78     1     0     0
SMALL
bcc


@<TRIPOS>ATOM
      1 C1          0.2620    0.1610   -0.5800 ca        1 RKS     -0.250600
      2 N1         -1.7850   -0.3800   -1.9710 n4        1 RKS     -0.703800
      3 O1          2.4160   -0.5440   -1.2870 oh        1 RKS     -0.463100
      4 C2          1.6660    0.1260   -0.3820 ca        1 RKS      0.245100
      5 N4         -2.7350   -0.0510   -5.6130 n4        1 RKS     -0.674800
      6 O2          3.6010    0.6840    0.8200 oh        1 RKS     -0.492100
      7 C4          2.2380    0.7910    0.7470 ca        1 RKS      0.065100
      8 O3          0.3070   -1.2160   -2.5830 o         1 RKS     -0.431100
      9 C5          1.4310    1.4650    1.6490 ca        1 RKS     -0.084000
     10 N2         -4.0100    2.8780  -11.9860 n4        1 RKS     -0.408700
     11 C6          0.0350    1.4900    1.4450 ca        1 RKS     -0.088000
     12 C7         -0.5380    0.8580    0.3640 ca        1 RKS     -0.130000
     13 C8         -0.2430   -0.5300   -1.7380 c         1 RKS      0.598700
     14 O6         -5.1720    2.1920  -12.0820 oh        1 RKS     -0.353300
     15 O7         -5.0310    4.7710  -11.0780 o         1 RKS     -0.401100
     16 C9         -2.3710   -0.9950   -3.2030 c3        1 RKS      0.110500
     17 C10        -2.1670   -2.5170   -3.3300 c3        1 RKS     -0.111400
     18 C11        -1.7890   -0.3190   -4.4580 c         1 RKS      0.529100
     19 C12        -2.8780    1.4360   -5.8870 c3        1 RKS      0.074500
     20 C13        -2.7440   -3.3000   -2.1640 c3        1 RKS     -0.082400
     21 C14        -2.6580   -4.7930   -2.4430 c3        1 RKS     -0.105400
     22 C15        -3.3470    2.1410   -4.6100 c         1 RKS      0.649100
     23 C16        -3.7920    1.7290   -7.0820 c3        1 RKS     -0.113400
     24 C17        -3.0430    1.7640   -8.4030 c3        1 RKS     -0.084400
     25 C18        -3.9550    2.2790   -9.5060 c3        1 RKS     -0.107400
     26 C19        -3.1840    2.3980  -10.8180 c3        1 RKS      0.104800
     27 C20        -4.2510    4.4290  -11.9440 c         1 RKS      0.575100
     28 C21        -3.5270    5.1970  -12.9830 c3        1 RKS     -0.194100
     29 HN1        -2.2550   -0.8060   -1.1630 hn        1 RKS      0.477300
     30 HO1         3.3640   -0.4860   -1.0440 ho        1 RKS      0.498000
     31 HN2        -3.6600   -0.4480   -5.4180 hn        1 RKS      0.475300
     32 HO2         3.9220    1.1590    1.6070 ho        1 RKS      0.480000
     33 H5         -0.5960    2.0280    2.1760 ha        1 RKS      0.186000
     34 H6         -1.6310    0.9060    0.2590 ha        1 RKS      0.120000
     35 C22        -4.2020    4.1430   -3.6320 c3        1 RKS      0.124700
     36 HO7        -5.8470    2.6260  -11.5080 ho        1 RKS      0.475000
     37 HO8        -3.4870   -0.7760   -3.1460 hx        1 RKS      0.128700
     38 H12        -1.0720   -2.7550   -3.4400 hc        1 RKS      0.102200
     39 H13        -2.6820   -2.8360   -4.2780 hc        1 RKS      0.102200
     40 H13A       -1.8310    1.8290   -6.1050 hx        1 RKS      0.161700
     41 H17        -3.8160   -3.0100   -1.9950 hc        1 RKS      0.063700
     42 H18        -2.1740   -3.0750   -1.2240 hc        1 RKS      0.063700
     43 C23        -3.2360   -5.5830   -1.2710 c3        1 RKS      0.104800
     44 H18A       -1.5860   -5.0870   -2.6150 hc        1 RKS      0.086700
     45 H19        -3.2330   -5.0320   -3.3790 hc        1 RKS      0.086700
     46 H19A       -4.6440    0.9990   -7.1370 hc        1 RKS      0.110700
     47 H19B       -4.2540    2.7460   -6.9050 hc        1 RKS      0.110700
     48 H30        -2.6730    0.7390   -8.6690 hc        1 RKS      0.063700
     49 H30A       -2.1480    2.4380   -8.3160 hc        1 RKS      0.063700
     50 H31        -4.8190    1.5730   -9.6360 hc        1 RKS      0.086700
     51 H31A       -4.3740    3.2820   -9.2160 hc        1 RKS      0.086700
     52 H32        -2.3330    3.1300  -10.7130 hx        1 RKS      0.111700
     53 H32A       -2.7720    1.3860  -11.1000 hx        1 RKS      0.111700
     54 H33        -3.5930    6.2930  -12.7270 hc        1 RKS      0.138700
     55 H33A       -2.4480    4.9080  -13.0600 hc        1 RKS      0.138700
     56 H37        -4.0210    5.0450  -13.9830 hc        1 RKS      0.138700
     57 N3         -3.2410   -7.0790   -1.4660 n4        1 RKS     -0.409700
     58 C24        -1.8310   -7.7180   -1.1930 c         1 RKS      0.575100
     59 O9         -3.7170   -7.4140   -2.6870 oh        1 RKS     -0.353300
     60 O10        -1.0140   -7.4550   -2.0530 o         1 RKS     -0.401100
     61 C25        -1.7550   -8.5530    0.0260 c3        1 RKS     -0.194100
     62 H311       -4.5400    5.1090   -4.0900 h1        1 RKS      0.094700
     63 H321       -3.3180    4.2820   -2.9650 h1        1 RKS      0.094700
     64 H331       -5.0310    3.6120   -3.1080 h1        1 RKS      0.094700
     65 H34        -2.6440   -5.3890   -0.3320 hx        1 RKS      0.112200
     66 H35        -4.3090   -5.2690   -1.1060 hx        1 RKS      0.112200
     67 H36        -2.9680   -7.4150   -3.3300 ho        1 RKS      0.473000
     68 H371       -2.2790   -9.5350   -0.1510 hc        1 RKS      0.139700
     69 H38        -2.2070   -8.0550    0.9210 hc        1 RKS      0.139700
     70 H39        -0.6700   -8.7740    0.2400 hc        1 RKS      0.139700
     71 H4          1.8670    1.9800    2.5240 ha        1 RKS      0.195000
     72 O4         -0.6350    0.0310   -4.6270 o         1 RKS     -0.339100
     73 O5         -3.8030    3.3780   -4.7990 os        1 RKS     -0.369900
     74 O8         -3.2670    1.6270   -3.4820 o         1 RKS     -0.631000
     75 H121       -2.0030    0.6290   -1.9730 hn        1 RKS      0.477300
     76 H42        -2.3570   -0.4860   -6.4680 hn        1 RKS      0.475300
     77 H21        -3.4940    2.6460  -12.8640 hn        1 RKS      0.499800
     78 H312       -3.9280   -7.4890   -0.7940 hn        1 RKS      0.500800
@<TRIPOS>BOND
     1    1    4 ar  
     2    1   12 ar  
     3    1   13 1   
     4    2   13 1   
     5    2   16 1   
     6    2   29 1   
     7    2   75 1   
     8    3    4 1   
     9    3   30 1   
    10    4    7 ar  
    11    5   18 1   
    12    5   19 1   
    13    5   31 1   
    14    5   76 1   
    15    6    7 1   
    16    6   32 1   
    17    7    9 ar  
    18    8   13 2   
    19    9   11 ar  
    20    9   71 1   
    21   10   14 1   
    22   10   26 1   
    23   10   27 1   
    24   10   77 1   
    25   11   12 ar  
    26   11   33 1   
    27   12   34 1   
    28   14   36 1   
    29   15   27 2   
    30   16   17 1   
    31   16   18 1   
    32   16   37 1   
    33   17   20 1   
    34   17   38 1   
    35   17   39 1   
    36   18   72 2   
    37   19   22 1   
    38   19   23 1   
    39   19   40 1   
    40   20   21 1   
    41   20   41 1   
    42   20   42 1   
    43   21   43 1   
    44   21   44 1   
    45   21   45 1   
    46   22   73 1   
    47   22   74 2   
    48   23   24 1   
    49   23   46 1   
    50   23   47 1   
    51   24   25 1   
    52   24   48 1   
    53   24   49 1   
    54   25   26 1   
    55   25   50 1   
    56   25   51 1   
    57   26   52 1   
    58   26   53 1   
    59   27   28 1   
    60   28   54 1   
    61   28   55 1   
    62   28   56 1   
    63   35   62 1   
    64   35   63 1   
    65   35   64 1   
    66   35   73 1   
    67   43   57 1   
    68   43   65 1   
    69   43   66 1   
    70   57   58 1   
    71   57   59 1   
    72   57   78 1   
    73   58   60 2   
    74   58   61 1   
    75   59   67 1   
    76   61   68 1   
    77   61   69 1   
    78   61   70 1   
@<TRIPOS>SUBSTRUCTURE
     1 RKS         1 TEMP              0 ****  ****    0 ROOT
