@<TRIPOS>MOLECULE
RKT
   20    22     1     0     0
SMALL
bcc


@<TRIPOS>ATOM
      1 N5          1.4240    1.5930   -0.0000 nb        1 RKT     -0.588000
      2 N6          2.8030   -0.9020   -0.0010 nb        1 RKT     -0.624000
      3 N7         -2.8030   -0.9020   -0.0000 nb        1 RKT     -0.624000
      4 N8         -1.4240    1.5930    0.0000 nb        1 RKT     -0.588000
      5 C19         0.7290    0.4020   -0.0000 ca        1 RKT      0.250000
      6 C20         2.7480    1.5160   -0.0000 ca        1 RKT      0.286900
      7 C21         3.4450    0.2580   -0.0000 ca        1 RKT      0.298900
      8 C22         1.4230   -0.8520   -0.0000 ca        1 RKT      0.295300
      9 C23         0.6780   -2.0850   -0.0010 ca        1 RKT     -0.156300
     10 C24        -0.6780   -2.0850   -0.0010 ca        1 RKT     -0.156300
     11 C25        -1.4230   -0.8520   -0.0000 ca        1 RKT      0.295300
     12 C26        -0.7290    0.4020   -0.0000 ca        1 RKT      0.250000
     13 C27        -3.4450    0.2580    0.0000 ca        1 RKT      0.298900
     14 C28        -2.7480    1.5160    0.0000 ca        1 RKT      0.286900
     15 H20         3.3060    2.4690   -0.0000 h4        1 RKT      0.039100
     16 H21         4.5490    0.2240   -0.0010 h4        1 RKT      0.037100
     17 H23         1.2410   -3.0340   -0.0010 ha        1 RKT      0.160000
     18 H24        -1.2410   -3.0340   -0.0010 ha        1 RKT      0.160000
     19 H27        -4.5490    0.2240    0.0000 h4        1 RKT      0.037100
     20 H28        -3.3060    2.4690    0.0010 h4        1 RKT      0.039100
@<TRIPOS>BOND
     1    1    5 ar  
     2    1    6 ar  
     3    2    7 ar  
     4    2    8 ar  
     5    3   11 ar  
     6    3   13 ar  
     7    4   12 ar  
     8    4   14 ar  
     9    5    8 ar  
    10    5   12 ar  
    11    6    7 ar  
    12    6   15 1   
    13    7   16 1   
    14    8    9 ar  
    15    9   10 ar  
    16    9   17 1   
    17   10   11 ar  
    18   10   18 1   
    19   11   12 ar  
    20   13   14 ar  
    21   13   19 1   
    22   14   20 1   
@<TRIPOS>SUBSTRUCTURE
     1 RKT         1 TEMP              0 ****  ****    0 ROOT
