@<TRIPOS>MOLECULE
RKT
   20    16     1     0     0
SMALL
bcc


@<TRIPOS>ATOM
      1 N5         -2.0450    0.0000    0.4320 n1        1 RKT     -0.080000
      2 N6         -0.6770    0.0000    2.8050 n1        1 RKT     -0.080000
      3 N7          2.0940   -0.0000   -1.9850 n1        1 RKT     -0.098000
      4 N8         -0.6440   -0.0000   -1.9880 n1        1 RKT     -0.062000
      5 C19        -0.6820    0.0000    0.4320 c1        1 RKT     -0.013000
      6 C20        -2.7180    0.0000    1.5970 c1        1 RKT     -0.107000
      7 C21        -2.0220    0.0000    2.8030 c1        1 RKT     -0.107000
      8 C22         0.0060    0.0000    1.6250 c1        1 RKT     -0.033000
      9 C23         1.4200    0.0000    1.6260 c2        1 RKT     -0.091000
     10 C24         2.1170   -0.0000    0.4210 c1        1 RKT     -0.091000
     11 C25         1.4120   -0.0000   -0.8050 c1        1 RKT     -0.033000
     12 C26         0.0350   -0.0000   -0.8070 c2        1 RKT     -0.013000
     13 C27         1.4230   -0.0000   -3.1500 c1        1 RKT     -0.107000
     14 C28         0.0300   -0.0000   -3.1520 c1        1 RKT     -0.107000
     15 H20        -3.6940    0.0000    1.5960 ha        1 RKT      0.175000
     16 H21        -2.5110    0.0000    3.6480 ha        1 RKT      0.175000
     17 H23         1.9080    0.0000    2.4710 ha        1 RKT      0.160000
     18 H24         3.0930   -0.0000    0.4220 ha        1 RKT      0.160000
     19 H27         1.9120   -0.0000   -3.9950 ha        1 RKT      0.175000
     20 H28        -0.4570   -0.0000   -3.9980 ha        1 RKT      0.175000
@<TRIPOS>BOND
     1    1    6 1   
     2    2    7 1   
     3    3   11 1   
     4    4   12 1   
     5    5    8 1   
     6    5   12 1   
     7    6   15 1   
     8    7   16 1   
     9    8    9 1   
    10    9   10 1   
    11    9   17 1   
    12   10   18 1   
    13   11   12 1   
    14   13   14 1   
    15   13   19 1   
    16   14   20 1   
@<TRIPOS>SUBSTRUCTURE
     1 RKT         1 TEMP              0 ****  ****    0 ROOT
