@<TRIPOS>MOLECULE
RL1
   47    51     1     0     0
SMALL
bcc


@<TRIPOS>ATOM
      1 C01        -0.1870   -0.6940    1.0520 ca        1 RL1      0.207100
      2 C02         1.2000   -0.6730    0.8570 ca        1 RL1     -0.318000
      3 C03         2.0340   -0.2800    1.9130 ca        1 RL1      0.220100
      4 C04         1.4880    0.0800    3.1660 ca        1 RL1     -0.168900
      5 C05         0.1000    0.0580    3.3300 ca        1 RL1     -0.016000
      6 C06        -0.7470   -0.3230    2.2900 ca        1 RL1     -0.199600
      7 C07        -2.2240   -0.2330    2.4870 c         1 RL1      0.693700
      8 O08        -2.7900    0.8780    2.4640 o         1 RL1     -0.598100
      9 O09         3.3920   -0.2070    1.7730 oh        1 RL1     -0.463100
     10 O10        -1.0550   -1.0800    0.0640 oh        1 RL1     -0.480100
     11 C11         2.3530    0.4440    4.2750 cc        1 RL1      0.353400
     12 N12         2.2710    1.6590    4.9880 na        1 RL1     -0.072200
     13 C13         3.3130    1.5740    5.9680 cc        1 RL1     -0.077300
     14 N14         3.9460    0.3600    5.8030 nd        1 RL1     -0.080000
     15 N15         3.3830   -0.2880    4.8190 nd        1 RL1     -0.311700
     16 C16         1.4610    2.7670    4.9070 cc        1 RL1     -0.030300
     17 C17         1.6530    3.8150    5.7840 cd        1 RL1     -0.067900
     18 C18         2.6860    3.7580    6.7740 cd        1 RL1     -0.103000
     19 C19         3.5020    2.6660    6.8720 cc        1 RL1     -0.078000
     20 Br1         0.5600    5.3210    5.6800 br        1 RL1     -0.046100
     21 N21        -2.9360   -1.3850    2.7920 n         1 RL1     -0.453800
     22 C22        -2.3620   -2.7060    2.6890 c3        1 RL1      0.140300
     23 C23        -3.2130   -3.7250    1.9850 ca        1 RL1     -0.096300
     24 C24        -4.5230   -3.4430    1.5740 ca        1 RL1     -0.065300
     25 C25        -5.1100   -2.0960    1.8000 c3        1 RL1     -0.060100
     26 C26        -4.3780   -1.3340    2.9060 c3        1 RL1      0.086000
     27 C27        -2.6690   -4.9940    1.7550 ca        1 RL1     -0.125000
     28 C28        -3.4230   -5.9760    1.1180 ca        1 RL1     -0.130000
     29 C29        -4.7270   -5.6960    0.7060 ca        1 RL1     -0.126000
     30 C30        -5.2740   -4.4360    0.9340 ca        1 RL1     -0.127000
     31 H1          1.6290   -0.9580   -0.1130 ha        1 RL1      0.146000
     32 H2         -0.3380    0.3460    4.3010 ha        1 RL1      0.157000
     33 H3          3.6270   -0.5460    0.8950 ho        1 RL1      0.427000
     34 H4         -0.5450   -1.2550   -0.7420 ho        1 RL1      0.430000
     35 H5          0.6820    2.7510    4.1220 h4        1 RL1      0.190000
     36 H6          2.8120    4.6110    7.4590 ha        1 RL1      0.160000
     37 H7          4.3060    2.5860    7.6190 ha        1 RL1      0.172000
     38 H8         -2.1710   -3.0810    3.7400 h1        1 RL1      0.060200
     39 H9         -1.3670   -2.6520    2.1570 h1        1 RL1      0.060200
     40 H10        -5.0640   -1.5130    0.8410 hc        1 RL1      0.062200
     41 H11        -6.1900   -2.1850    2.0890 hc        1 RL1      0.062200
     42 H12        -4.6510   -1.7880    3.9030 h1        1 RL1      0.067200
     43 H13        -4.7180   -0.2600    2.9010 h1        1 RL1      0.067200
     44 H14        -1.6420   -5.2130    2.0820 ha        1 RL1      0.132000
     45 H15        -2.9910   -6.9710    0.9410 ha        1 RL1      0.133000
     46 H16        -5.3230   -6.4710    0.2030 ha        1 RL1      0.132000
     47 H17        -6.3020   -4.2140    0.6110 ha        1 RL1      0.133000
@<TRIPOS>BOND
     1    1    2 ar  
     2    1    6 ar  
     3    1   10 1   
     4    2    3 ar  
     5    2   31 1   
     6    3    4 ar  
     7    3    9 1   
     8    4    5 ar  
     9    4   11 1   
    10    5    6 ar  
    11    5   32 1   
    12    6    7 1   
    13    7    8 2   
    14    7   21 1   
    15    9   33 1   
    16   10   34 1   
    17   11   12 1   
    18   11   15 2   
    19   12   13 1   
    20   12   16 1   
    21   13   14 2   
    22   13   19 1   
    23   14   15 1   
    24   16   17 2   
    25   16   35 1   
    26   17   18 1   
    27   17   20 1   
    28   18   19 2   
    29   18   36 1   
    30   19   37 1   
    31   21   22 1   
    32   21   26 1   
    33   22   23 1   
    34   22   38 1   
    35   22   39 1   
    36   23   24 ar  
    37   23   27 ar  
    38   24   25 1   
    39   24   30 ar  
    40   25   26 1   
    41   25   40 1   
    42   25   41 1   
    43   26   42 1   
    44   26   43 1   
    45   27   28 ar  
    46   27   44 1   
    47   28   29 ar  
    48   28   45 1   
    49   29   30 ar  
    50   29   46 1   
    51   30   47 1   
@<TRIPOS>SUBSTRUCTURE
     1 RL1         1 TEMP              0 ****  ****    0 ROOT
