@<TRIPOS>MOLECULE
RL1
   47    51     1     0     0
SMALL
bcc


@<TRIPOS>ATOM
      1 C01        -0.1880   -0.7010    1.0500 ca        1 RL1      0.207100
      2 C02         1.1990   -0.6870    0.8540 ca        1 RL1     -0.318000
      3 C03         2.0360   -0.2940    1.9090 ca        1 RL1      0.220100
      4 C04         1.4920    0.0710    3.1600 ca        1 RL1     -0.168900
      5 C05         0.1040    0.0560    3.3260 ca        1 RL1     -0.016000
      6 C06        -0.7450   -0.3240    2.2880 ca        1 RL1     -0.199600
      7 C07        -2.2220   -0.2280    2.4860 c         1 RL1      0.693700
      8 O08        -2.7830    0.8860    2.4610 o         1 RL1     -0.598100
      9 O09         3.3940   -0.2270    1.7660 oh        1 RL1     -0.463100
     10 O10        -1.0590   -1.0850    0.0640 oh        1 RL1     -0.480100
     11 C11         2.3600    0.4340    4.2680 cc        1 RL1      0.353400
     12 N12         2.2830    1.6510    4.9790 na        1 RL1     -0.072200
     13 C13         3.3270    1.5640    5.9570 cc        1 RL1     -0.077300
     14 N14         3.9550    0.3470    5.7940 nd        1 RL1     -0.080000
     15 N15         3.3880   -0.3010    4.8120 nd        1 RL1     -0.311700
     16 C16         1.4780    2.7610    4.8970 cc        1 RL1     -0.030300
     17 C17         1.6750    3.8110    5.7710 cd        1 RL1     -0.067900
     18 C18         2.7080    3.7510    6.7600 cd        1 RL1     -0.103000
     19 C19         3.5210    2.6570    6.8590 cc        1 RL1     -0.078000
     20 BR1         0.5870    5.3210    5.6660 br        1 RL1     -0.046100
     21 N21        -2.9380   -1.3760    2.7950 n         1 RL1     -0.453800
     22 C22        -2.3690   -2.7000    2.6950 c3        1 RL1      0.140300
     23 C23        -3.2250   -3.7170    1.9940 ca        1 RL1     -0.096300
     24 C24        -4.5350   -3.4310    1.5840 ca        1 RL1     -0.065300
     25 C25        -5.1160   -2.0810    1.8070 c3        1 RL1     -0.060100
     26 C26        -4.3800   -1.3190    2.9100 c3        1 RL1      0.086000
     27 C27        -2.6870   -4.9890    1.7680 ca        1 RL1     -0.125000
     28 C28        -3.4460   -5.9700    1.1350 ca        1 RL1     -0.130000
     29 C29        -4.7490   -5.6860    0.7230 ca        1 RL1     -0.126000
     30 C30        -5.2900   -4.4230    0.9470 ca        1 RL1     -0.127000
     31 H1          1.6260   -0.9750   -0.1160 ha        1 RL1      0.146000
     32 H2         -0.3310    0.3470    4.2970 ha        1 RL1      0.157000
     33 H3          3.6270   -0.5690    0.8880 ho        1 RL1      0.427000
     34 H4         -0.5500   -1.2650   -0.7420 ho        1 RL1      0.430000
     35 H5          0.6970    2.7470    4.1120 h4        1 RL1      0.190000
     36 H6          2.8390    4.6060    7.4430 ha        1 RL1      0.160000
     37 H7          4.3250    2.5760    7.6050 ha        1 RL1      0.172000
     38 H8         -1.3750   -2.6510    2.1610 h1        1 RL1      0.060200
     39 H9         -2.1790   -3.0730    3.7460 h1        1 RL1      0.060200
     40 H10        -5.0680   -1.5010    0.8450 hc        1 RL1      0.062200
     41 H11        -6.1960   -2.1640    2.0970 hc        1 RL1      0.062200
     42 H12        -4.7150   -0.2430    2.9020 h1        1 RL1      0.067200
     43 H13        -4.6540   -1.7690    3.9080 h1        1 RL1      0.067200
     44 H14        -1.6600   -5.2120    2.0950 ha        1 RL1      0.132000
     45 H15        -3.0180   -6.9680    0.9600 ha        1 RL1      0.133000
     46 H16        -5.3490   -6.4600    0.2230 ha        1 RL1      0.132000
     47 H17        -6.3180   -4.1980    0.6250 ha        1 RL1      0.133000
@<TRIPOS>BOND
     1    1    2 ar  
     2    1    6 ar  
     3    1   10 1   
     4    2    3 ar  
     5    2   31 1   
     6    3    4 ar  
     7    3    9 1   
     8    4    5 ar  
     9    4   11 1   
    10    5    6 ar  
    11    5   32 1   
    12    6    7 1   
    13    7    8 2   
    14    7   21 1   
    15    9   33 1   
    16   10   34 1   
    17   11   12 1   
    18   11   15 2   
    19   12   13 1   
    20   12   16 1   
    21   13   14 2   
    22   13   19 1   
    23   14   15 1   
    24   16   17 2   
    25   16   35 1   
    26   17   18 1   
    27   17   20 1   
    28   18   19 2   
    29   18   36 1   
    30   19   37 1   
    31   21   22 1   
    32   21   26 1   
    33   22   23 1   
    34   22   38 1   
    35   22   39 1   
    36   23   24 ar  
    37   23   27 ar  
    38   24   25 1   
    39   24   30 ar  
    40   25   26 1   
    41   25   40 1   
    42   25   41 1   
    43   26   42 1   
    44   26   43 1   
    45   27   28 ar  
    46   27   44 1   
    47   28   29 ar  
    48   28   45 1   
    49   29   30 ar  
    50   29   46 1   
    51   30   47 1   
@<TRIPOS>SUBSTRUCTURE
     1 RL1         1 TEMP              0 ****  ****    0 ROOT
