@<TRIPOS>MOLECULE
RL1
   47    51     1     0     0
SMALL
bcc


@<TRIPOS>ATOM
      1 C01        -0.1640   -0.7350    1.0570 ca        1 RL1      0.207100
      2 C02         1.2250   -0.7360    0.8780 ca        1 RL1     -0.318000
      3 C03         2.0520   -0.3350    1.9370 ca        1 RL1      0.220100
      4 C04         1.4970    0.0540    3.1760 ca        1 RL1     -0.168900
      5 C05         0.1070    0.0530    3.3260 ca        1 RL1     -0.016000
      6 C06        -0.7330   -0.3350    2.2820 ca        1 RL1     -0.199600
      7 C07        -2.2110   -0.2240    2.4600 c         1 RL1      0.692700
      8 O08        -2.7620    0.8950    2.4120 o         1 RL1     -0.598100
      9 O09         3.4130   -0.2820    1.8110 oh        1 RL1     -0.463100
     10 O10        -1.0260   -1.1270    0.0660 oh        1 RL1     -0.480100
     11 C11         2.3540    0.4260    4.2890 cc        1 RL1      0.353400
     12 N12         2.2800    1.6550    4.9800 na        1 RL1     -0.072200
     13 C13         3.3110    1.5730    5.9730 cc        1 RL1     -0.077300
     14 N14         3.9290    0.3480    5.8370 nd        1 RL1     -0.080000
     15 N15         3.3680   -0.3100    4.8580 nd        1 RL1     -0.311700
     16 C16         1.4860    2.7710    4.8700 cc        1 RL1     -0.030300
     17 C17         1.6830    3.8320    5.7310 cd        1 RL1     -0.067900
     18 C18         2.7030    3.7790    6.7340 cd        1 RL1     -0.103000
     19 C19         3.5040    2.6780    6.8600 cc        1 RL1     -0.078000
     20 BR1         0.6110    5.3510    5.5880 br        1 RL1     -0.046100
     21 N21        -2.9410   -1.3610    2.7770 n         1 RL1     -0.453800
     22 C22        -2.3830   -2.6910    2.7030 c3        1 RL1      0.140300
     23 C23        -3.2390   -3.7100    2.0060 ca        1 RL1     -0.096300
     24 C24        -4.5400   -3.4180    1.5750 ca        1 RL1     -0.065300
     25 C25        -5.1120   -2.0610    1.7710 c3        1 RL1     -0.060100
     26 C26        -4.3830   -1.2900    2.8730 c3        1 RL1      0.086000
     27 C27        -2.7090   -4.9890    1.8030 ca        1 RL1     -0.125000
     28 C28        -3.4680   -5.9720    1.1730 ca        1 RL1     -0.130000
     29 C29        -4.7630   -5.6820    0.7410 ca        1 RL1     -0.126000
     30 C30        -5.2960   -4.4120    0.9420 ca        1 RL1     -0.127000
     31 H1          1.6620   -1.0420   -0.0820 ha        1 RL1      0.146000
     32 H2         -0.3380    0.3630    4.2860 ha        1 RL1      0.157000
     33 H3          3.6540   -0.6390    0.9420 ho        1 RL1      0.427000
     34 H4         -0.5090   -1.3230   -0.7300 ho        1 RL1      0.430000
     35 H5          0.7160    2.7520    4.0760 h4        1 RL1      0.190000
     36 H6          2.8330    4.6430    7.4050 ha        1 RL1      0.160000
     37 H7          4.2980    2.6010    7.6180 ha        1 RL1      0.172000
     38 H8         -2.2110   -3.0500    3.7630 h1        1 RL1      0.060200
     39 H9         -1.3810   -2.6580    2.1830 h1        1 RL1      0.060200
     40 H10        -5.0470   -1.4940    0.8030 hc        1 RL1      0.062200
     41 H11        -6.1970   -2.1300    2.0490 hc        1 RL1      0.062200
     42 H12        -4.7090   -0.2110    2.8460 h1        1 RL1      0.067200
     43 H13        -4.6740   -1.7230    3.8740 h1        1 RL1      0.067200
     44 H14        -1.6880   -5.2170    2.1460 ha        1 RL1      0.132000
     45 H15        -3.0470   -6.9760    1.0180 ha        1 RL1      0.133000
     46 H16        -5.3630   -6.4580    0.2440 ha        1 RL1      0.132000
     47 H17        -6.3170   -4.1830    0.6030 ha        1 RL1      0.133000
@<TRIPOS>BOND
     1    1    2 ar  
     2    1    6 ar  
     3    1   10 1   
     4    2    3 ar  
     5    2   31 1   
     6    3    4 ar  
     7    3    9 1   
     8    4    5 ar  
     9    4   11 1   
    10    5    6 ar  
    11    5   32 1   
    12    6    7 1   
    13    7    8 2   
    14    7   21 1   
    15    9   33 1   
    16   10   34 1   
    17   11   12 1   
    18   11   15 2   
    19   12   13 1   
    20   12   16 1   
    21   13   14 2   
    22   13   19 1   
    23   14   15 1   
    24   16   17 2   
    25   16   35 1   
    26   17   18 1   
    27   17   20 1   
    28   18   19 2   
    29   18   36 1   
    30   19   37 1   
    31   21   22 1   
    32   21   26 1   
    33   22   23 1   
    34   22   38 1   
    35   22   39 1   
    36   23   24 ar  
    37   23   27 ar  
    38   24   25 1   
    39   24   30 ar  
    40   25   26 1   
    41   25   40 1   
    42   25   41 1   
    43   26   42 1   
    44   26   43 1   
    45   27   28 ar  
    46   27   44 1   
    47   28   29 ar  
    48   28   45 1   
    49   29   30 ar  
    50   29   46 1   
    51   30   47 1   
@<TRIPOS>SUBSTRUCTURE
     1 RL1         1 TEMP              0 ****  ****    0 ROOT
