@<TRIPOS>MOLECULE
RL2
   53    53     1     0     0
SMALL
bcc


@<TRIPOS>ATOM
      1 C4         -0.7790    1.0080    1.3570 c         1 RL2      0.634100
      2 O9          0.0800    1.3230    2.2200 o         1 RL2     -0.695100
      3 C3         -2.1610    1.6750    1.3600 c3        1 RL2      0.094100
      4 O8         -2.3170    2.4090    2.5630 oh        1 RL2     -0.604800
      5 C2         -2.3540    2.5470    0.1320 c3        1 RL2     -0.234400
      6 C1         -2.9450    1.7740   -1.0600 c         1 RL2      0.915600
      7 O6         -3.3630    2.4480   -2.0370 o         1 RL2     -0.841800
      8 O7         -2.9840    0.5040   -1.0120 o         1 RL2     -0.841800
      9 N5         -0.5290    0.0760    0.3870 n         1 RL2     -0.557900
     10 C10         0.6550   -0.7370    0.3650 c3        1 RL2      0.052700
     11 C11         1.8720   -0.0520   -0.3180 c         1 RL2      0.643100
     12 O26         2.5330   -0.6380   -1.2000 o         1 RL2     -0.641100
     13 C12         0.4260   -2.0880   -0.3300 c3        1 RL2     -0.076400
     14 C13        -0.5710   -2.9440    0.4270 c3        1 RL2     -0.045100
     15 C14        -0.7770   -4.2550   -0.2490 ca        1 RL2     -0.066300
     16 C15        -0.1680   -5.4170    0.2380 ca        1 RL2     -0.125500
     17 C19        -1.5990   -4.3350   -1.3810 ca        1 RL2     -0.125500
     18 C16        -0.3760   -6.6400   -0.3970 ca        1 RL2     -0.134500
     19 C18        -1.8050   -5.5590   -2.0130 ca        1 RL2     -0.134500
     20 C17        -1.1940   -6.7140   -1.5230 ca        1 RL2     -0.144000
     21 C25         5.1660    4.5050   -0.0920 c3        1 RL2     -0.089600
     22 C23         5.5490    3.0410   -0.0130 c3        1 RL2     -0.065700
     23 C24         6.8250    2.8800    0.7890 c3        1 RL2     -0.089600
     24 C22         4.4360    2.2080    0.6040 c3        1 RL2     -0.100400
     25 C21         3.3190    1.9440   -0.4110 c3        1 RL2      0.091000
     26 N20         2.2090    1.2060    0.1200 n         1 RL2     -0.564900
     27 H31        -2.9660    0.8840    1.3970 h1        1 RL2      0.115700
     28 HO8        -1.5260    2.9520    2.6750 ho        1 RL2      0.404000
     29 H21        -3.0600    3.3780    0.3900 hc        1 RL2      0.047700
     30 H22        -1.3870    3.0070   -0.1890 hc        1 RL2      0.047700
     31 HN5        -1.2280   -0.0660   -0.3310 hn        1 RL2      0.387500
     32 H101        0.9770   -0.9260    1.4360 h1        1 RL2      0.069700
     33 H121        0.0700   -1.9210   -1.3810 hc        1 RL2      0.069700
     34 H122        1.4150   -2.6140   -0.3940 hc        1 RL2      0.069700
     35 H131       -0.2050   -3.1050    1.4760 hc        1 RL2      0.058200
     36 H132       -1.5590   -2.4110    0.4940 hc        1 RL2      0.058200
     37 H151        0.4790   -5.3620    1.1260 ha        1 RL2      0.141000
     38 H191       -2.0820   -3.4220   -1.7660 ha        1 RL2      0.141000
     39 H161        0.1070   -7.5480   -0.0070 ha        1 RL2      0.123000
     40 H181       -2.4510   -5.6130   -2.9020 ha        1 RL2      0.123000
     41 H171       -1.3570   -7.6790   -2.0230 ha        1 RL2      0.119000
     42 H251        4.9710    4.9150    0.9280 hc        1 RL2      0.031033
     43 H252        5.9920    5.0960   -0.5570 hc        1 RL2      0.031033
     44 H253        4.2450    4.6380   -0.7080 hc        1 RL2      0.031033
     45 H231        5.7390    2.6660   -1.0590 hc        1 RL2      0.048700
     46 H241        6.6640    3.1990    1.8470 hc        1 RL2      0.031033
     47 H242        7.1550    1.8140    0.7870 hc        1 RL2      0.031033
     48 H243        7.6400    3.5050    0.3500 hc        1 RL2      0.031033
     49 H221        4.8560    1.2290    0.9540 hc        1 RL2      0.045200
     50 H222        4.0250    2.7360    1.5040 hc        1 RL2      0.045200
     51 H211        2.9340    2.9370   -0.7880 h1        1 RL2      0.054700
     52 H212        3.7470    1.3810   -1.2890 h1        1 RL2      0.054700
     53 H20         1.7140    1.6100    0.8850 hn        1 RL2      0.340500
@<TRIPOS>BOND
     1    1    2 2   
     2    1    3 1   
     3    1    9 1   
     4    3    4 1   
     5    3    5 1   
     6    3   27 1   
     7    4   28 1   
     8    5    6 1   
     9    5   29 1   
    10    5   30 1   
    11    6    7 1   
    12    6    8 1   
    13    9   10 1   
    14    9   31 1   
    15   10   11 1   
    16   10   13 1   
    17   10   32 1   
    18   11   12 2   
    19   11   26 1   
    20   13   14 1   
    21   13   33 1   
    22   13   34 1   
    23   14   15 1   
    24   14   35 1   
    25   14   36 1   
    26   15   16 ar  
    27   15   17 ar  
    28   16   18 ar  
    29   16   37 1   
    30   17   19 ar  
    31   17   38 1   
    32   18   20 ar  
    33   18   39 1   
    34   19   20 ar  
    35   19   40 1   
    36   20   41 1   
    37   21   22 1   
    38   21   42 1   
    39   21   43 1   
    40   21   44 1   
    41   22   23 1   
    42   22   24 1   
    43   22   45 1   
    44   23   46 1   
    45   23   47 1   
    46   23   48 1   
    47   24   25 1   
    48   24   49 1   
    49   24   50 1   
    50   25   26 1   
    51   25   51 1   
    52   25   52 1   
    53   26   53 1   
@<TRIPOS>SUBSTRUCTURE
     1 RL2         1 TEMP              0 ****  ****    0 ROOT
