@<TRIPOS>MOLECULE
RL3
   45    48     1     0     0
SMALL
bcc


@<TRIPOS>ATOM
      1 C01        -0.1940    0.8580    1.0190 ca        1 RL3      0.204100
      2 C02         1.1840    0.7680    0.7910 ca        1 RL3     -0.316000
      3 C03         2.0250    0.3480    1.8320 ca        1 RL3      0.220100
      4 C04         1.4930    0.0310    3.1020 ca        1 RL3     -0.166900
      5 C05         0.1120    0.1200    3.2980 ca        1 RL3     -0.014000
      6 C06        -0.7420    0.5270    2.2730 ca        1 RL3     -0.196600
      7 C07        -2.2150    0.5020    2.5130 c         1 RL3      0.686700
      8 O08        -2.8030   -0.5920    2.6340 o         1 RL3     -0.600100
      9 O09         3.3740    0.2070    1.6580 oh        1 RL3     -0.462100
     10 O10        -1.0640    1.2780    0.0440 oh        1 RL3     -0.488100
     11 C11         2.3670   -0.3600    4.1950 cc        1 RL3      0.352400
     12 N12         2.2290   -1.5480    4.9440 na        1 RL3     -0.072200
     13 C13         3.3040   -1.5050    5.8910 cc        1 RL3     -0.076300
     14 N14         4.0080   -0.3390    5.6750 nd        1 RL3     -0.079000
     15 N15         3.4580    0.3190    4.6890 nd        1 RL3     -0.310700
     16 C16         1.3480   -2.6030    4.9180 cc        1 RL3     -0.030300
     17 C17         1.5000   -3.6380    5.8170 cd        1 RL3     -0.066900
     18 C18         2.5640   -3.6220    6.7760 cd        1 RL3     -0.102000
     19 C19         3.4510   -2.5830    6.8200 cc        1 RL3     -0.078000
     20 N20        -2.8940    1.6970    2.7060 n         1 RL3     -0.445800
     21 N21        -4.4560    3.7000    1.2840 n3        1 RL3     -0.731600
     22 C22        -5.0780    4.3210    0.1370 c3        1 RL3      0.157100
     23 BR1         0.3100   -5.0730    5.7880 br        1 RL3     -0.046100
     24 C24        -2.3290    2.9880    2.3900 c3        1 RL3      0.085500
     25 C25        -3.0040    3.6750    1.1820 c3        1 RL3      0.143800
     26 C26        -5.0220    2.3920    1.5830 c3        1 RL3      0.143800
     27 C27        -4.3410    1.6980    2.7830 c3        1 RL3      0.085500
     28 H1          1.6040    1.0190   -0.1930 ha        1 RL3      0.145000
     29 H2         -0.3170   -0.1360    4.2820 ha        1 RL3      0.158000
     30 H3          3.6040    0.5270    0.7720 ho        1 RL3      0.426000
     31 H4         -0.5680    1.3830   -0.7820 ho        1 RL3      0.429000
     32 H5          0.5470   -2.5570    4.1560 h4        1 RL3      0.190000
     33 H6          2.6560   -4.4640    7.4800 ha        1 RL3      0.160000
     34 H7          4.2800   -2.5360    7.5400 ha        1 RL3      0.172000
     35 H9         -6.1830    4.3880    0.3190 h1        1 RL3      0.032700
     36 H10        -4.6670    5.3570    0.0200 h1        1 RL3      0.032700
     37 H11        -4.9080    3.7580   -0.8230 h1        1 RL3      0.032700
     38 H12        -2.4540    3.6420    3.3010 h1        1 RL3      0.065950
     39 H13        -1.2320    2.8970    2.1650 h1        1 RL3      0.065950
     40 H14        -2.6550    3.1580    0.2390 h1        1 RL3      0.040950
     41 H15        -2.6440    4.7410    1.1490 h1        1 RL3      0.040950
     42 H16        -4.9730    1.7020    0.6900 h1        1 RL3      0.040950
     43 H17        -6.1060    2.5410    1.8450 h1        1 RL3      0.040950
     44 H18        -4.6270    2.2390    3.7300 h1        1 RL3      0.065950
     45 H19        -4.7240    0.6410    2.8420 h1        1 RL3      0.065950
@<TRIPOS>BOND
     1    1    2 ar  
     2    1    6 ar  
     3    1   10 1   
     4    2    3 ar  
     5    2   28 1   
     6    3    4 ar  
     7    3    9 1   
     8    4    5 ar  
     9    4   11 1   
    10    5    6 ar  
    11    5   29 1   
    12    6    7 1   
    13    7    8 2   
    14    7   20 1   
    15    9   30 1   
    16   10   31 1   
    17   11   12 1   
    18   11   15 2   
    19   12   13 1   
    20   12   16 1   
    21   13   14 2   
    22   13   19 1   
    23   14   15 1   
    24   16   17 2   
    25   16   32 1   
    26   17   18 1   
    27   17   23 1   
    28   18   19 2   
    29   18   33 1   
    30   19   34 1   
    31   20   24 1   
    32   20   27 1   
    33   21   22 1   
    34   21   25 1   
    35   21   26 1   
    36   22   35 1   
    37   22   36 1   
    38   22   37 1   
    39   24   25 1   
    40   24   38 1   
    41   24   39 1   
    42   25   40 1   
    43   25   41 1   
    44   26   27 1   
    45   26   42 1   
    46   26   43 1   
    47   27   44 1   
    48   27   45 1   
@<TRIPOS>SUBSTRUCTURE
     1 RL3         1 TEMP              0 ****  ****    0 ROOT
