@<TRIPOS>MOLECULE
RL3
   45    48     1     0     0
SMALL
bcc


@<TRIPOS>ATOM
      1 C01        -0.1760    0.8560    1.0250 ca        1 RL3      0.204100
      2 C02         1.2040    0.7590    0.8110 ca        1 RL3     -0.316000
      3 C03         2.0330    0.3350    1.8600 ca        1 RL3      0.220100
      4 C04         1.4860    0.0190    3.1240 ca        1 RL3     -0.166900
      5 C05         0.1040    0.1150    3.3070 ca        1 RL3     -0.014000
      6 C06        -0.7380    0.5270    2.2740 ca        1 RL3     -0.196600
      7 C07        -2.2130    0.5100    2.4990 c         1 RL3      0.686700
      8 O08        -2.8080   -0.5820    2.6140 o         1 RL3     -0.600100
      9 O09         3.3820    0.1860    1.6990 oh        1 RL3     -0.462100
     10 O10        -1.0340    1.2820    0.0420 oh        1 RL3     -0.488100
     11 C11         2.3470   -0.3770    4.2260 cc        1 RL3      0.352400
     12 N12         2.1960   -1.5650    4.9720 na        1 RL3     -0.072200
     13 C13         3.2620   -1.5280    5.9290 cc        1 RL3     -0.076300
     14 N14         3.9740   -0.3650    5.7210 nd        1 RL3     -0.079000
     15 N15         3.4370    0.2950    4.7310 nd        1 RL3     -0.310700
     16 C16         1.3100   -2.6150    4.9360 cc        1 RL3     -0.030300
     17 C17         1.4470   -3.6520    5.8360 cd        1 RL3     -0.066900
     18 C18         2.5020   -3.6420    6.8050 cd        1 RL3     -0.102000
     19 C19         3.3940   -2.6080    6.8590 cc        1 RL3     -0.078000
     20 N20        -2.8880    1.7080    2.6860 n         1 RL3     -0.445800
     21 N21        -4.4250    3.7200    1.2500 n3        1 RL3     -0.731600
     22 C22        -5.0330    4.3440    0.0970 c3        1 RL3      0.157100
     23 Br1         0.2510   -5.0810    5.7930 br        1 RL3     -0.046100
     24 C24        -2.3130    2.9960    2.3760 c3        1 RL3      0.085500
     25 C25        -2.9730    3.6870    1.1620 c3        1 RL3      0.143800
     26 C26        -5.0010    2.4150    1.5430 c3        1 RL3      0.143800
     27 C27        -4.3360    1.7170    2.7480 c3        1 RL3      0.085500
     28 H1          1.6340    1.0080   -0.1690 ha        1 RL3      0.145000
     29 H2         -0.3360   -0.1390    4.2860 ha        1 RL3      0.158000
     30 H3          3.6230    0.5060    0.8150 ho        1 RL3      0.426000
     31 H4         -0.5290    1.3850   -0.7800 ho        1 RL3      0.429000
     32 H5          0.5160   -2.5650    4.1670 h4        1 RL3      0.190000
     33 H6          2.5830   -4.4850    7.5100 ha        1 RL3      0.160000
     34 H7          4.2160   -2.5650    7.5880 ha        1 RL3      0.172000
     35 H9         -6.1390    4.4180    0.2680 h1        1 RL3      0.032700
     36 H10        -4.6150    5.3780   -0.0160 h1        1 RL3      0.032700
     37 H11        -4.8570    3.7810   -0.8610 h1        1 RL3      0.032700
     38 H12        -2.4440    3.6510    3.2860 h1        1 RL3      0.065950
     39 H13        -1.2140    2.9000    2.1620 h1        1 RL3      0.065950
     40 H14        -2.6180    3.1690    0.2220 h1        1 RL3      0.040950
     41 H15        -2.6070    4.7510    1.1320 h1        1 RL3      0.040950
     42 H16        -6.0870    2.5700    1.7940 h1        1 RL3      0.040950
     43 H17        -4.9480    1.7250    0.6500 h1        1 RL3      0.040950
     44 H18        -4.7250    0.6620    2.8030 h1        1 RL3      0.065950
     45 H19        -4.6270    2.2590    3.6930 h1        1 RL3      0.065950
@<TRIPOS>BOND
     1    1    2 ar  
     2    1    6 ar  
     3    1   10 1   
     4    2    3 ar  
     5    2   28 1   
     6    3    4 ar  
     7    3    9 1   
     8    4    5 ar  
     9    4   11 1   
    10    5    6 ar  
    11    5   29 1   
    12    6    7 1   
    13    7    8 2   
    14    7   20 1   
    15    9   30 1   
    16   10   31 1   
    17   11   12 1   
    18   11   15 2   
    19   12   13 1   
    20   12   16 1   
    21   13   14 2   
    22   13   19 1   
    23   14   15 1   
    24   16   17 2   
    25   16   32 1   
    26   17   18 1   
    27   17   23 1   
    28   18   19 2   
    29   18   33 1   
    30   19   34 1   
    31   20   24 1   
    32   20   27 1   
    33   21   22 1   
    34   21   25 1   
    35   21   26 1   
    36   22   35 1   
    37   22   36 1   
    38   22   37 1   
    39   24   25 1   
    40   24   38 1   
    41   24   39 1   
    42   25   40 1   
    43   25   41 1   
    44   26   27 1   
    45   26   42 1   
    46   26   43 1   
    47   27   44 1   
    48   27   45 1   
@<TRIPOS>SUBSTRUCTURE
     1 RL3         1 TEMP              0 ****  ****    0 ROOT
