@<TRIPOS>MOLECULE
RL3
   45    48     1     0     0
SMALL
bcc


@<TRIPOS>ATOM
      1 C01        -0.2310    0.7730    1.0010 ca        1 RL3      0.204100
      2 C02         1.1400    0.6430    0.7480 ca        1 RL3     -0.316000
      3 C03         1.9950    0.2480    1.7860 ca        1 RL3      0.220100
      4 C04         1.4850   -0.0060    3.0800 ca        1 RL3     -0.166900
      5 C05         0.1110    0.1210    3.3020 ca        1 RL3     -0.014000
      6 C06        -0.7570    0.5050    2.2800 ca        1 RL3     -0.196600
      7 C07        -2.2250    0.5220    2.5530 c         1 RL3      0.686700
      8 O08        -2.8330   -0.5530    2.7310 o         1 RL3     -0.600100
      9 O09         3.3360    0.0700    1.5900 oh        1 RL3     -0.462100
     10 O10        -1.1130    1.1730    0.0290 oh        1 RL3     -0.488100
     11 C11         2.3750   -0.3710    4.1690 cc        1 RL3      0.352400
     12 N12         2.2290   -1.5240    4.9690 na        1 RL3     -0.072200
     13 C13         3.3260   -1.4660    5.8900 cc        1 RL3     -0.076300
     14 N14         4.0490   -0.3260    5.6100 nd        1 RL3     -0.079000
     15 N15         3.4910    0.3030    4.6110 nd        1 RL3     -0.310700
     16 C16         1.3250   -2.5590    5.0060 cc        1 RL3     -0.030300
     17 C17         1.4750   -3.5600    5.9440 cd        1 RL3     -0.066900
     18 C18         2.5600   -3.5280    6.8770 cd        1 RL3     -0.102000
     19 C19         3.4700   -2.5080    6.8590 cc        1 RL3     -0.078000
     20 N20        -2.8740    1.7390    2.7110 n         1 RL3     -0.445800
     21 N21        -4.4250    3.7170    1.2430 n3        1 RL3     -0.731600
     22 C22        -5.0600    4.3040    0.0860 c3        1 RL3      0.157100
     23 BR1         0.2550   -4.9680    5.9990 br        1 RL3     -0.046100
     24 C24        -2.2890    3.0030    2.3310 c3        1 RL3      0.085500
     25 C25        -2.9770    3.6550    1.1110 c3        1 RL3      0.143800
     26 C26        -5.0110    2.4340    1.6080 c3        1 RL3      0.143800
     27 C27        -4.3190    1.7750    2.8190 c3        1 RL3      0.085500
     28 H1          1.5420    0.8450   -0.2550 ha        1 RL3      0.145000
     29 H2         -0.3010   -0.0850    4.3050 ha        1 RL3      0.158000
     30 H3          3.5530    0.3490    0.6860 ho        1 RL3      0.426000
     31 H4         -0.6340    1.2330   -0.8110 ho        1 RL3      0.429000
     32 H5          0.5080   -2.5260    4.2600 h4        1 RL3      0.190000
     33 H6          2.6510   -4.3430    7.6140 ha        1 RL3      0.160000
     34 H7          4.3160   -2.4500    7.5590 ha        1 RL3      0.172000
     35 H9         -4.6290    5.3260   -0.0830 h1        1 RL3      0.032700
     36 H10        -6.1580    4.4040    0.2890 h1        1 RL3      0.032700
     37 H11        -4.9240    3.7000   -0.8530 h1        1 RL3      0.032700
     38 H12        -1.1990    2.8790    2.0850 h1        1 RL3      0.065950
     39 H13        -2.3790    3.6960    3.2160 h1        1 RL3      0.065950
     40 H14        -2.6610    3.0930    0.1820 h1        1 RL3      0.040950
     41 H15        -2.5950    4.7110    1.0260 h1        1 RL3      0.040950
     42 H16        -6.0860    2.6180    1.8880 h1        1 RL3      0.040950
     43 H17        -4.9980    1.7080    0.7430 h1        1 RL3      0.040950
     44 H18        -4.7220    0.7290    2.9300 h1        1 RL3      0.065950
     45 H19        -4.5710    2.3600    3.7500 h1        1 RL3      0.065950
@<TRIPOS>BOND
     1    1    2 ar  
     2    1    6 ar  
     3    1   10 1   
     4    2    3 ar  
     5    2   28 1   
     6    3    4 ar  
     7    3    9 1   
     8    4    5 ar  
     9    4   11 1   
    10    5    6 ar  
    11    5   29 1   
    12    6    7 1   
    13    7    8 2   
    14    7   20 1   
    15    9   30 1   
    16   10   31 1   
    17   11   12 1   
    18   11   15 2   
    19   12   13 1   
    20   12   16 1   
    21   13   14 2   
    22   13   19 1   
    23   14   15 1   
    24   16   17 2   
    25   16   32 1   
    26   17   18 1   
    27   17   23 1   
    28   18   19 2   
    29   18   33 1   
    30   19   34 1   
    31   20   24 1   
    32   20   27 1   
    33   21   22 1   
    34   21   25 1   
    35   21   26 1   
    36   22   35 1   
    37   22   36 1   
    38   22   37 1   
    39   24   25 1   
    40   24   38 1   
    41   24   39 1   
    42   25   40 1   
    43   25   41 1   
    44   26   27 1   
    45   26   42 1   
    46   26   43 1   
    47   27   44 1   
    48   27   45 1   
@<TRIPOS>SUBSTRUCTURE
     1 RL3         1 TEMP              0 ****  ****    0 ROOT
