@<TRIPOS>MOLECULE
RLI
   41    43     1     0     0
SMALL
bcc


@<TRIPOS>ATOM
      1 N10         0.3230    0.6990   -0.5020 ns        1 RLI     -0.515400
      2 O10        -0.1760   -1.3290    0.5060 o         1 RLI     -0.571100
      3 S10        -1.8430   -0.0090   -2.0170 ss        1 RLI     -0.008300
      4 C11         2.7230    0.3080    1.3880 c3        1 RLI     -0.097100
      5 N11         0.5590    0.3760   -2.9060 nc        1 RLI     -0.675000
      6 O11       -10.3410   -1.0550   -9.3200 o         1 RLI     -0.824800
      7 S11        -4.8420   -1.4660   -5.4270 ss        1 RLI     -0.049300
      8 C12         0.4330   -0.2480    0.5250 c         1 RLI      0.648100
      9 N12        -2.6860   -0.0770   -5.8910 nd        1 RLI     -0.709000
     10 O12        -9.8890    0.8640  -10.3770 o         1 RLI     -0.824800
     11 C13         1.2630    0.1640    1.7300 c3        1 RLI     -0.157400
     12 N13        -4.0960   -0.3970   -7.8460 nu        1 RLI     -0.675300
     13 C14        -0.1790    0.3620   -1.7720 cd        1 RLI      0.450300
     14 C15        -0.2470    0.0840   -3.9930 cc        1 RLI      0.385600
     15 C16         0.3090    0.0400   -5.3670 c3        1 RLI     -0.120400
     16 C17        -1.5900   -0.1630   -3.6710 cd        1 RLI     -0.232900
     17 C18        -2.6650   -0.5060   -4.5660 cd        1 RLI      0.444800
     18 C19        -3.7710   -1.2600   -4.1730 cc        1 RLI     -0.319400
     19 C20        -3.8120   -0.5340   -6.4890 cc        1 RLI      0.637300
     20 C21        -5.4600   -0.3130   -8.2520 ca        1 RLI      0.054600
     21 C22        -5.8960    0.7710   -9.0440 ca        1 RLI     -0.174000
     22 C23        -7.2100    0.8180   -9.4960 ca        1 RLI     -0.090500
     23 C24        -8.1200   -0.1910   -9.1680 ca        1 RLI     -0.123600
     24 C25        -9.5610   -0.1220   -9.6600 c         1 RLI      0.909200
     25 C26        -7.6880   -1.2630   -8.3840 ca        1 RLI     -0.090500
     26 C27        -6.3740   -1.3370   -7.9300 ca        1 RLI     -0.174000
     27 HN10        1.0320    1.4050   -0.5130 hn        1 RLI      0.314500
     28 H11         3.1050   -0.6130    0.8850 hc        1 RLI      0.043367
     29 H11A        3.3140    0.4700    2.3230 hc        1 RLI      0.043367
     30 H11B        2.9000    1.1790    0.7110 hc        1 RLI      0.043367
     31 H13         1.1290   -0.6330    2.5100 hc        1 RLI      0.072700
     32 H13A        0.8610    1.1230    2.1490 hc        1 RLI      0.072700
     33 HN13       -3.5060    0.2580   -8.3240 hn        1 RLI      0.417800
     34 H16         1.4260    0.0600   -5.3650 hc        1 RLI      0.056367
     35 H16A       -0.0650    0.9220   -5.9460 hc        1 RLI      0.056367
     36 H16B       -0.0350   -0.8920   -5.8800 hc        1 RLI      0.056367
     37 H19        -3.9200   -1.6720   -3.1780 h4        1 RLI      0.175000
     38 H22        -5.1990    1.5790   -9.3120 ha        1 RLI      0.116000
     39 H23        -7.5650    1.6560  -10.1200 ha        1 RLI      0.159000
     40 H26        -8.4160   -2.0550   -8.1380 ha        1 RLI      0.159000
     41 H27        -6.0560   -2.2140   -7.3430 ha        1 RLI      0.116000
@<TRIPOS>BOND
     1    1    8 1   
     2    1   13 1   
     3    1   27 1   
     4    2    8 2   
     5    3   13 1   
     6    3   16 1   
     7    4   11 1   
     8    4   28 1   
     9    4   29 1   
    10    4   30 1   
    11    5   13 2   
    12    5   14 1   
    13    6   24 1   
    14    7   18 1   
    15    7   19 1   
    16    8   11 1   
    17    9   17 1   
    18    9   19 2   
    19   10   24 1   
    20   11   31 1   
    21   11   32 1   
    22   12   19 1   
    23   12   20 1   
    24   12   33 1   
    25   14   15 1   
    26   14   16 2   
    27   15   34 1   
    28   15   35 1   
    29   15   36 1   
    30   16   17 1   
    31   17   18 2   
    32   18   37 1   
    33   20   21 ar  
    34   20   26 ar  
    35   21   22 ar  
    36   21   38 1   
    37   22   23 ar  
    38   22   39 1   
    39   23   24 1   
    40   23   25 ar  
    41   25   26 ar  
    42   25   40 1   
    43   26   41 1   
@<TRIPOS>SUBSTRUCTURE
     1 RLI         1 TEMP              0 ****  ****    0 ROOT
