@<TRIPOS>MOLECULE
RLI
   41    38     1     0     0
SMALL
bcc


@<TRIPOS>ATOM
      1 N10         4.9660   -1.1520    1.2160 n         1 RLI     -0.282000
      2 O10         5.5550   -0.2610    3.2340 o         1 RLI     -0.327000
      3 S10         2.4770   -0.9740    0.3530 ss        1 RLI      0.652000
      4 C11         7.6160   -2.3710    3.2590 c3        1 RLI     -0.205000
      5 N11         3.1550    0.2500    2.3080 n2        1 RLI     -0.142000
      6 O11        -8.3970    1.8700   -4.5910 o         1 RLI     -0.559000
      7 S11        -2.4340   -0.9620   -0.0890 ss        1 RLI      0.519000
      8 C12         5.8930   -0.9080    2.2630 c2        1 RLI      0.289000
      9 N12        -0.6940    0.4430   -0.9700 n2        1 RLI     -0.202000
     10 O12        -8.1100    3.3370   -3.0030 o         1 RLI     -0.559000
     11 C13         7.3190   -1.3980    2.1390 c3        1 RLI     -0.182000
     12 N13        -2.8290   -0.3080   -2.3160 n3        1 RLI     -0.197000
     13 C14         3.6460   -0.6410    1.3050 c2        1 RLI     -0.237000
     14 C15         1.6350    0.5220    2.0290 c1        1 RLI     -0.067000
     15 C16         0.7300    1.4150    2.8490 c2        1 RLI     -0.148000
     16 C17         1.2490   -0.2210    0.8530 c1        1 RLI     -0.332000
     17 C18        -0.1510   -0.3260    0.2860 c1        1 RLI      0.001000
     18 C19        -1.2100   -1.1620    0.7980 c1        1 RLI     -0.495000
     19 C20        -2.0530    0.0570   -1.1840 c2        1 RLI     -0.121000
     20 C21        -4.0300    0.3900   -2.6090 c2        1 RLI     -0.027000
     21 C22        -5.1850    0.1100   -1.8960 c2        1 RLI     -0.169000
     22 C23        -6.3720    0.7470   -2.2230 c1        1 RLI     -0.091000
     23 C24        -6.4040    1.6630   -3.2620 c1        1 RLI     -0.103000
     24 C25        -7.7080    2.3300   -3.6430 c2        1 RLI      0.358000
     25 C26        -5.2490    1.9430   -3.9750 c1        1 RLI     -0.090000
     26 C27        -4.0620    1.3070   -3.6480 c1        1 RLI     -0.179000
     27 HN10        5.2100   -1.6620    0.5010 hn        1 RLI      0.221000
     28 H11         7.5280   -1.9140    4.1210 hc        1 RLI      0.085000
     29 H11A        6.9830   -3.1180    3.2190 hc        1 RLI      0.085000
     30 H11B        8.5300   -2.7110    3.1620 hc        1 RLI      0.085000
     31 H13         7.9310   -0.6380    2.1970 hc        1 RLI      0.102500
     32 H13A        7.4360   -1.8470    1.2780 hc        1 RLI      0.102500
     33 HN13       -2.5490   -0.9830   -2.8610 hn        1 RLI      0.214000
     34 H16        -0.0230    0.8890    3.1930 ha        1 RLI      0.091000
     35 H16A        1.2350    1.7910    3.6000 ha        1 RLI      0.091000
     36 H16B        0.3910    2.1420    2.2860 ha        1 RLI      0.091000
     37 H19        -1.1520   -1.7510    1.5740 DU        1 RLI      0.176000
     38 H22        -5.1630   -0.5350   -1.1640 ha        1 RLI      0.120000
     39 H23        -7.1860    0.5490   -1.7210 ha        1 RLI      0.159000
     40 H26        -5.2710    2.5890   -4.7070 ha        1 RLI      0.159000
     41 H27        -3.2500    1.4980   -4.1560 ha        1 RLI      0.113000
@<TRIPOS>BOND
     1    1    8 1   
     2    1   13 1   
     3    1   27 1   
     4    2    8 1   
     5    3   13 1   
     6    3   16 1   
     7    4   11 1   
     8    4   28 1   
     9    4   29 1   
    10    4   30 1   
    11    5   13 1   
    12    5   14 1   
    13    6   24 1   
    14    7   18 1   
    15    7   19 1   
    16    8   11 1   
    17    9   17 1   
    18    9   19 1   
    19   10   24 1   
    20   11   31 1   
    21   11   32 1   
    22   12   19 1   
    23   12   20 1   
    24   12   33 1   
    25   14   16 1   
    26   15   34 1   
    27   15   35 1   
    28   15   36 1   
    29   17   18 1   
    30   20   21 1   
    31   20   26 1   
    32   21   22 1   
    33   21   38 1   
    34   22   39 1   
    35   23   24 1   
    36   23   25 1   
    37   25   40 1   
    38   26   41 1   
@<TRIPOS>SUBSTRUCTURE
     1 RLI         1 TEMP              0 ****  ****    0 ROOT
