@<TRIPOS>MOLECULE
RLI
   41    43     1     0     0
SMALL
bcc


@<TRIPOS>ATOM
      1 N10        -6.0680   -0.1950    0.3860 n         1 RLI     -0.526400
      2 O10        -5.9390    1.7850   -0.7780 o         1 RLI     -0.587100
      3 S10        -3.5030    0.5310   -0.3220 ss        1 RLI      0.009700
      4 C11        -8.8740   -0.0560   -0.7750 c3        1 RLI     -0.096100
      5 N11        -4.2160   -1.6450    0.9000 nc        1 RLI     -0.699000
      6 O11         7.8630    1.9430   -0.3470 o         1 RLI     -0.825300
      7 S11         1.1800    0.9870   -0.8310 ss        1 RLI     -0.053300
      8 C12        -6.6330    0.9250   -0.2040 c         1 RLI      0.655100
      9 N12         0.0560   -1.2860   -0.2310 nd        1 RLI     -0.712000
     10 O12         8.3840    0.1940    0.9440 o         1 RLI     -0.825300
     11 C13        -8.1400    1.0680   -0.0940 c3        1 RLI     -0.151400
     12 N13         2.4100   -1.4710   -0.8130 nh        1 RLI     -0.676300
     13 C14        -4.7040   -0.4990    0.3630 cd        1 RLI      0.470300
     14 C15        -2.8380   -1.6790    0.7510 cc        1 RLI      0.398600
     15 C16        -2.0540   -2.8300    1.2580 c3        1 RLI     -0.121400
     16 C17        -2.2940   -0.5620    0.1050 cd        1 RLI     -0.263900
     17 C18        -0.9150   -0.2880   -0.2030 cd        1 RLI      0.456800
     18 C19        -0.4470    0.9940   -0.4990 cc        1 RLI     -0.327400
     19 C20         1.2490   -0.7400   -0.5690 cc        1 RLI      0.638300
     20 C21         3.6700   -0.8690   -0.5290 ca        1 RLI      0.056600
     21 C22         4.5950   -1.5300    0.3070 ca        1 RLI     -0.174000
     22 C23         5.8520   -0.9780    0.5280 ca        1 RLI     -0.090500
     23 C24         6.2170    0.2370   -0.0580 ca        1 RLI     -0.124600
     24 C25         7.5930    0.8380    0.1990 c         1 RLI      0.909200
     25 C26         5.3000    0.8910   -0.8850 ca        1 RLI     -0.090500
     26 C27         4.0400    0.3510   -1.1290 ca        1 RLI     -0.174000
     27 HN10       -6.6720   -0.8630    0.8140 hn        1 RLI      0.333500
     28 H11        -9.9700    0.1620   -0.7850 hc        1 RLI      0.044367
     29 H11A       -8.5290   -0.1720   -1.8310 hc        1 RLI      0.044367
     30 H11B       -8.7180   -1.0270   -0.2450 hc        1 RLI      0.044367
     31 H13        -8.4110    2.0480   -0.5710 hc        1 RLI      0.074700
     32 H13A       -8.4270    1.1250    0.9890 hc        1 RLI      0.074700
     33 HN13        2.3600   -2.4290   -0.5190 hn        1 RLI      0.416800
     34 H16        -1.6180   -3.3920    0.3940 hc        1 RLI      0.056367
     35 H16A       -1.2150   -2.4590    1.8980 hc        1 RLI      0.056367
     36 H16B       -2.6820   -3.5310    1.8610 hc        1 RLI      0.056367
     37 H19        -1.0610    1.8920   -0.5030 h4        1 RLI      0.173000
     38 H22         4.3300   -2.4860    0.7830 ha        1 RLI      0.115500
     39 H23         6.5880   -1.4850    1.1750 ha        1 RLI      0.158500
     40 H26         5.6030    1.8470   -1.3450 ha        1 RLI      0.158500
     41 H27         3.3540    0.8750   -1.8130 ha        1 RLI      0.115500
@<TRIPOS>BOND
     1    1    8 1   
     2    1   13 1   
     3    1   27 1   
     4    2    8 2   
     5    3   13 1   
     6    3   16 1   
     7    4   11 1   
     8    4   28 1   
     9    4   29 1   
    10    4   30 1   
    11    5   13 2   
    12    5   14 1   
    13    6   24 1   
    14    7   18 1   
    15    7   19 1   
    16    8   11 1   
    17    9   17 1   
    18    9   19 2   
    19   10   24 1   
    20   11   31 1   
    21   11   32 1   
    22   12   19 1   
    23   12   20 1   
    24   12   33 1   
    25   14   15 1   
    26   14   16 2   
    27   15   34 1   
    28   15   35 1   
    29   15   36 1   
    30   16   17 1   
    31   17   18 2   
    32   18   37 1   
    33   20   21 ar  
    34   20   26 ar  
    35   21   22 ar  
    36   21   38 1   
    37   22   23 ar  
    38   22   39 1   
    39   23   24 1   
    40   23   25 ar  
    41   25   26 ar  
    42   25   40 1   
    43   26   41 1   
@<TRIPOS>SUBSTRUCTURE
     1 RLI         1 TEMP              0 ****  ****    0 ROOT
