@<TRIPOS>MOLECULE
RLI
   41    43     1     0     0
SMALL
bcc


@<TRIPOS>ATOM
      1 N10         0.3340    0.7010   -0.5110 n         1 RLI     -0.515400
      2 O10        -0.1950   -1.3070    0.5210 o         1 RLI     -0.571100
      3 S10        -1.8430    0.0090   -2.0190 ss        1 RLI     -0.008300
      4 C11         2.7280    0.3010    1.3840 c3        1 RLI     -0.097100
      5 N11         0.5670    0.3430   -2.9100 nc        1 RLI     -0.675000
      6 O11       -10.3540   -0.9920   -9.3120 o         1 RLI     -0.824800
      7 S11        -4.8640   -1.4420   -5.4100 ss        1 RLI     -0.049300
      8 C12         0.4310   -0.2340    0.5270 c         1 RLI      0.648100
      9 N12        -2.6850   -0.0950   -5.8910 nd        1 RLI     -0.709000
     10 O12        -9.8700    0.9050  -10.3930 o         1 RLI     -0.824800
     11 C13         1.2660    0.1800    1.7270 c3        1 RLI     -0.157400
     12 N13        -4.1000   -0.4170   -7.8430 nh        1 RLI     -0.675300
     13 C14        -0.1720    0.3560   -1.7770 cd        1 RLI      0.450300
     14 C15        -0.2440    0.0490   -3.9940 cc        1 RLI      0.385600
     15 C16         0.3110   -0.0220   -5.3670 c3        1 RLI     -0.120400
     16 C17        -1.5910   -0.1700   -3.6700 cd        1 RLI     -0.232900
     17 C18        -2.6720   -0.5070   -4.5610 cd        1 RLI      0.444800
     18 C19        -3.7900   -1.2380   -4.1600 cc        1 RLI     -0.319400
     19 C20        -3.8190   -0.5410   -6.4840 cc        1 RLI      0.637300
     20 C21        -5.4620   -0.3160   -8.2500 ca        1 RLI      0.054600
     21 C22        -5.8800    0.7650   -9.0560 ca        1 RLI     -0.174000
     22 C23        -7.1930    0.8280   -9.5100 ca        1 RLI     -0.090500
     23 C24        -8.1190   -0.1620   -9.1700 ca        1 RLI     -0.123600
     24 C25        -9.5580   -0.0760   -9.6630 c         1 RLI      0.909200
     25 C26        -7.7050   -1.2310   -8.3720 ca        1 RLI     -0.090500
     26 C27        -6.3920   -1.3200   -7.9160 ca        1 RLI     -0.174000
     27 HN10        1.0540    1.3960   -0.5310 hn        1 RLI      0.314500
     28 H11         3.3210    0.4650    2.3170 hc        1 RLI      0.043367
     29 H11A        2.9160    1.1610    0.6980 hc        1 RLI      0.043367
     30 H11B        3.0980   -0.6310    0.8910 hc        1 RLI      0.043367
     31 H13         0.8770    1.1490    2.1350 hc        1 RLI      0.072700
     32 H13A        1.1220   -0.6060    2.5170 hc        1 RLI      0.072700
     33 HN13       -3.4980    0.2230   -8.3290 hn        1 RLI      0.417800
     34 H16        -0.0480   -0.9550   -5.8680 hc        1 RLI      0.056367
     35 H16A        1.4290   -0.0210   -5.3650 hc        1 RLI      0.056367
     36 H16B       -0.0480    0.8580   -5.9580 hc        1 RLI      0.056367
     37 H19        -3.9460   -1.6350   -3.1590 h4        1 RLI      0.175000
     38 H22        -5.1700    1.5580   -9.3340 ha        1 RLI      0.116000
     39 H23        -7.5340    1.6630  -10.1450 ha        1 RLI      0.159000
     40 H26        -8.4450   -2.0080   -8.1160 ha        1 RLI      0.159000
     41 H27        -6.0890   -2.1950   -7.3180 ha        1 RLI      0.116000
@<TRIPOS>BOND
     1    1    8 1   
     2    1   13 1   
     3    1   27 1   
     4    2    8 2   
     5    3   13 1   
     6    3   16 1   
     7    4   11 1   
     8    4   28 1   
     9    4   29 1   
    10    4   30 1   
    11    5   13 2   
    12    5   14 1   
    13    6   24 1   
    14    7   18 1   
    15    7   19 1   
    16    8   11 1   
    17    9   17 1   
    18    9   19 2   
    19   10   24 1   
    20   11   31 1   
    21   11   32 1   
    22   12   19 1   
    23   12   20 1   
    24   12   33 1   
    25   14   15 1   
    26   14   16 2   
    27   15   34 1   
    28   15   35 1   
    29   15   36 1   
    30   16   17 1   
    31   17   18 2   
    32   18   37 1   
    33   20   21 ar  
    34   20   26 ar  
    35   21   22 ar  
    36   21   38 1   
    37   22   23 ar  
    38   22   39 1   
    39   23   24 1   
    40   23   25 ar  
    41   25   26 ar  
    42   25   40 1   
    43   26   41 1   
@<TRIPOS>SUBSTRUCTURE
     1 RLI         1 TEMP              0 ****  ****    0 ROOT
