@<TRIPOS>MOLECULE
RLI
   43    45     1     0     0
SMALL
bcc


@<TRIPOS>ATOM
      1 N10        -0.6050   -0.3740    0.1850 n4        1 RLI     -0.633500
      2 O10        -0.1570    1.8380    0.7220 o         1 RLI     -0.397100
      3 S10        -2.4790   -0.0240   -1.8520 ss        1 RLI      0.159700
      4 C11         2.6970    1.5990    0.7280 c3        1 RLI     -0.108100
      5 N11        -0.0460   -0.8500   -2.1510 nc        1 RLI     -0.601000
      6 O11       -10.0700   -0.0430   -9.4390 o         1 RLI     -0.765800
      7 S11        -4.6430    0.6530   -6.0550 ss        1 RLI      0.362700
      8 C12         0.3820    0.7800    0.4610 c         1 RLI      0.567100
      9 N12        -2.7810   -1.1100   -5.6090 nd        1 RLI     -0.576000
     10 O12        -9.1340    2.0150   -9.4360 o         1 RLI     -0.765800
     11 C13         1.8310    0.4110    0.3830 c3        1 RLI     -0.142400
     12 N13        -4.0050   -1.4210   -7.7510 n4        1 RLI     -0.562100
     13 C14        -0.9550   -0.4410   -1.2230 cd        1 RLI      0.323300
     14 C15        -0.6200   -0.8160   -3.3980 cc        1 RLI      0.414600
     15 C16         0.1320   -1.2160   -4.6110 c3        1 RLI     -0.138400
     16 C17        -1.9670   -0.3730   -3.3960 cd        1 RLI     -0.215900
     17 C18        -2.8300   -0.2370   -4.5400 cd        1 RLI      0.390800
     18 C19        -3.8090    0.7790   -4.6680 cc        1 RLI     -0.325400
     19 C20        -3.7300   -0.7220   -6.5000 cc        1 RLI      0.328300
     20 C21        -5.2800   -0.9120   -8.2790 ca        1 RLI     -0.145400
     21 C22        -6.3940   -1.7630   -8.3630 ca        1 RLI     -0.141500
     22 C23        -7.6150   -1.2220   -8.7560 ca        1 RLI     -0.081500
     23 C24        -7.7330    0.1410   -9.0410 ca        1 RLI     -0.070600
     24 C25        -9.1180    0.7640   -9.3450 c         1 RLI      0.914200
     25 C26        -6.5970    0.9660   -9.0090 ca        1 RLI     -0.081500
     26 C27        -5.3640    0.4560   -8.6280 ca        1 RLI     -0.141500
     27 HN10       -1.4660   -0.2280    0.7270 hn        1 RLI      0.467300
     28 H11         3.7720    1.2970    0.6580 hc        1 RLI      0.075700
     29 H11A        2.4930    1.9570    1.7670 hc        1 RLI      0.075700
     30 H11B        2.5160    2.4450    0.0210 hc        1 RLI      0.075700
     31 H13         2.0380   -0.4370    1.0930 hc        1 RLI      0.112700
     32 H13A        2.0630    0.0520   -0.6600 hc        1 RLI      0.112700
     33 HN13       -4.0680   -2.4360   -7.5880 hn        1 RLI      0.464300
     34 H16         1.2310   -1.2870   -4.4170 hc        1 RLI      0.078367
     35 H16A       -0.0410   -0.4670   -5.4230 hc        1 RLI      0.078367
     36 H16B       -0.2330   -2.2170   -4.9600 hc        1 RLI      0.078367
     37 H19        -3.9630    1.5600   -3.9180 h4        1 RLI      0.206000
     38 H22        -6.3200   -2.8340   -8.1160 ha        1 RLI      0.137500
     39 H23        -8.5230   -1.8500   -8.8390 ha        1 RLI      0.201000
     40 H26        -6.7260    2.0300   -9.2880 ha        1 RLI      0.201000
     41 H27        -4.4680    1.0970   -8.6620 ha        1 RLI      0.137500
     42 H102       -0.1720   -1.2630    0.4710 hn        1 RLI      0.467300
     43 H132       -3.2450   -1.2360   -8.4210 hn        1 RLI      0.464300
@<TRIPOS>BOND
     1    1    8 1   
     2    1   13 1   
     3    1   27 1   
     4    1   42 1   
     5    2    8 2   
     6    3   13 1   
     7    3   16 1   
     8    4   11 1   
     9    4   28 1   
    10    4   29 1   
    11    4   30 1   
    12    5   13 2   
    13    5   14 1   
    14    6   24 1   
    15    7   18 1   
    16    7   19 1   
    17    8   11 1   
    18    9   17 1   
    19    9   19 2   
    20   10   24 1   
    21   11   31 1   
    22   11   32 1   
    23   12   19 1   
    24   12   20 1   
    25   12   33 1   
    26   12   43 1   
    27   14   15 1   
    28   14   16 2   
    29   15   34 1   
    30   15   35 1   
    31   15   36 1   
    32   16   17 1   
    33   17   18 2   
    34   18   37 1   
    35   20   21 ar  
    36   20   26 ar  
    37   21   22 ar  
    38   21   38 1   
    39   22   23 ar  
    40   22   39 1   
    41   23   24 1   
    42   23   25 ar  
    43   25   26 ar  
    44   25   40 1   
    45   26   41 1   
@<TRIPOS>SUBSTRUCTURE
     1 RLI         1 TEMP              0 ****  ****    0 ROOT
