@<TRIPOS>MOLECULE
RLJ
   42    43     1     0     0
SMALL
bcc


@<TRIPOS>ATOM
      1 C1         -2.5720   -1.0160   -1.3140 ca        1 RLJ     -0.140000
      2 F1         -5.5160    1.8160    1.6480 f         1 RLJ     -0.229633
      3 C2         -3.8450   -1.5600   -1.4250 ca        1 RLJ     -0.071000
      4 F2         -6.4640   -0.1230    1.7920 f         1 RLJ     -0.229633
      5 C3         -4.9300   -1.0170   -0.7230 ca        1 RLJ      0.005000
      6 F3         -6.9000    1.1840    0.1110 f         1 RLJ     -0.229633
      7 C4         -4.7150    0.0970    0.1040 ca        1 RLJ     -0.101300
      8 C5         -2.3470    0.1040   -0.4840 ca        1 RLJ      0.090600
      9 C6         -3.4450    0.6500    0.2270 ca        1 RLJ     -0.148000
     10 C7         -5.8690    0.7240    0.8910 c3        1 RLJ      0.686200
     11 C8         -6.2150   -1.6060   -0.8690 cg        1 RLJ      0.218800
     12 N8         -7.2610   -2.0970   -0.9970 n1        1 RLJ     -0.327800
     13 N9         -1.0970    0.7210   -0.3460 n         1 RLJ     -0.449100
     14 C10         0.1240    0.2350   -0.7820 c         1 RLJ      0.677100
     15 O10         0.2610   -0.8150   -1.4330 o         1 RLJ     -0.587100
     16 C11         1.3650    1.1120   -0.4860 c3        1 RLJ      0.092800
     17 O11         1.1810    1.7340    0.7780 oh        1 RLJ     -0.605800
     18 C12         1.5010    2.1550   -1.5870 c3        1 RLJ     -0.128100
     19 C13         2.5920    0.1810   -0.4460 c3        1 RLJ      0.105400
     20 O14         3.6890    1.0180   -0.0580 os        1 RLJ     -0.347900
     21 C16         4.9090    0.3860    0.0790 ca        1 RLJ      0.149100
     22 C17         5.9600    1.2270    0.4940 ca        1 RLJ     -0.184000
     23 C18         7.2310    0.6950    0.6590 ca        1 RLJ     -0.056000
     24 C19         7.4640   -0.6690    0.4140 ca        1 RLJ     -0.050000
     25 C20         6.4120   -1.4960    0.0010 ca        1 RLJ     -0.056000
     26 C21         5.1310   -0.9740   -0.1690 ca        1 RLJ     -0.184000
     27 C22         8.7670   -1.2060    0.5850 cg        1 RLJ      0.234800
     28 N22         9.8350   -1.6470    0.7250 n1        1 RLJ     -0.360800
     29 H1         -1.7430   -1.4730   -1.8820 ha        1 RLJ      0.185000
     30 H2         -4.0050   -2.4350   -2.0760 ha        1 RLJ      0.158000
     31 H6         -3.3040    1.5230    0.8880 ha        1 RLJ      0.160000
     32 HN9        -1.0640    1.5170    0.2600 hn        1 RLJ      0.343500
     33 HO11        2.0030    2.2030    0.9810 ho        1 RLJ      0.439000
     34 H12         0.6600    2.8850   -1.5290 hc        1 RLJ      0.062700
     35 H12A        2.4660    2.7030   -1.4610 hc        1 RLJ      0.062700
     36 H12B        1.4940    1.6600   -2.5870 hc        1 RLJ      0.062700
     37 H13         2.4400   -0.6260    0.3170 h1        1 RLJ      0.072700
     38 H13A        2.7760   -0.2610   -1.4580 h1        1 RLJ      0.072700
     39 H17         5.7620    2.2920    0.6820 ha        1 RLJ      0.153000
     40 H18         8.0590    1.3430    0.9830 ha        1 RLJ      0.150000
     41 H20         6.5940   -2.5650   -0.1920 ha        1 RLJ      0.150000
     42 H21         4.3160   -1.6360   -0.4950 ha        1 RLJ      0.153000
@<TRIPOS>BOND
     1    1    3 ar  
     2    1    8 ar  
     3    1   29 1   
     4    2   10 1   
     5    3    5 ar  
     6    3   30 1   
     7    4   10 1   
     8    5    7 ar  
     9    5   11 1   
    10    6   10 1   
    11    7    9 ar  
    12    7   10 1   
    13    8    9 ar  
    14    8   13 1   
    15    9   31 1   
    16   11   12 3   
    17   13   14 1   
    18   13   32 1   
    19   14   15 2   
    20   14   16 1   
    21   16   17 1   
    22   16   18 1   
    23   16   19 1   
    24   17   33 1   
    25   18   34 1   
    26   18   35 1   
    27   18   36 1   
    28   19   20 1   
    29   19   37 1   
    30   19   38 1   
    31   20   21 1   
    32   21   22 ar  
    33   21   26 ar  
    34   22   23 ar  
    35   22   39 1   
    36   23   24 ar  
    37   23   40 1   
    38   24   25 ar  
    39   24   27 1   
    40   25   26 ar  
    41   25   41 1   
    42   26   42 1   
    43   27   28 3   
@<TRIPOS>SUBSTRUCTURE
     1 RLJ         1 TEMP              0 ****  ****    0 ROOT
