@<TRIPOS>MOLECULE
RLJ
   42    43     1     0     0
SMALL
bcc


@<TRIPOS>ATOM
      1 C1          0.3490    0.3670    0.0120 ca        1 RLJ     -0.140000
      2 F1          1.0880   -0.8290    4.8580 f         1 RLJ     -0.229633
      3 C2          1.7170    0.1620    0.1410 ca        1 RLJ     -0.071000
      4 F2          2.9310    0.1880    4.3590 f         1 RLJ     -0.229633
      5 C3          2.2850   -0.1890    1.3730 ca        1 RLJ      0.005000
      6 F3          2.6800   -1.9170    3.8780 f         1 RLJ     -0.229633
      7 C4          1.4480   -0.3310    2.4910 ca        1 RLJ     -0.101300
      8 C5         -0.5000    0.2260    1.1320 ca        1 RLJ      0.090600
      9 C6          0.0780   -0.1260    2.3780 ca        1 RLJ     -0.148000
     10 C7          2.0240   -0.7120    3.8570 c3        1 RLJ      0.686200
     11 C8          3.6890   -0.3900    1.4560 cg        1 RLJ      0.218800
     12 N8          4.8400   -0.5520    1.5110 n1        1 RLJ     -0.327800
     13 N9         -1.8900    0.3900    1.0700 ns        1 RLJ     -0.449100
     14 C10        -2.6190    0.9240    0.0210 c         1 RLJ      0.677100
     15 O10        -2.1210    1.2740   -1.0630 o         1 RLJ     -0.587100
     16 C11        -4.1530    1.0090    0.2150 c3        1 RLJ      0.092800
     17 O11        -4.4140    1.3110    1.5790 oh        1 RLJ     -0.605800
     18 C12        -4.7700   -0.3270   -0.1710 c3        1 RLJ     -0.128100
     19 C13        -4.6710    2.1440   -0.6890 c3        1 RLJ      0.105400
     20 O14        -6.0680    2.2580   -0.3880 os        1 RLJ     -0.347900
     21 C16        -6.7510    3.2500   -1.0630 ca        1 RLJ      0.149100
     22 C17        -8.1120    3.3610   -0.7200 ca        1 RLJ     -0.184000
     23 C18        -8.8930    4.3240   -1.3440 ca        1 RLJ     -0.056000
     24 C19        -8.3290    5.1780   -2.3060 ca        1 RLJ     -0.050000
     25 C20        -6.9740    5.0590   -2.6390 ca        1 RLJ     -0.056000
     26 C21        -6.1790    4.0960   -2.0210 ca        1 RLJ     -0.184000
     27 C22        -9.1340    6.1610   -2.9400 cg        1 RLJ      0.234800
     28 N22        -9.7940    6.9660   -3.4590 n1        1 RLJ     -0.360800
     29 H1         -0.0610    0.6440   -0.9750 ha        1 RLJ      0.185000
     30 H2          2.3660    0.2770   -0.7430 ha        1 RLJ      0.158000
     31 H6         -0.5550   -0.2410    3.2740 ha        1 RLJ      0.160000
     32 HN9        -2.3880    0.2490    1.9270 hn        1 RLJ      0.343500
     33 HO11       -5.3680    1.4480    1.6570 ho        1 RLJ      0.439000
     34 H12        -4.4340   -0.6250   -1.1920 hc        1 RLJ      0.062700
     35 H12A       -4.4690   -1.1140    0.5620 hc        1 RLJ      0.062700
     36 H12B       -5.8830   -0.2360   -0.1680 hc        1 RLJ      0.062700
     37 H13        -4.5240    1.8800   -1.7670 h1        1 RLJ      0.072700
     38 H13A       -4.1500    3.1050   -0.4420 h1        1 RLJ      0.072700
     39 H17        -8.5400    2.6840    0.0340 ha        1 RLJ      0.153000
     40 H18        -9.9590    4.4180   -1.0830 ha        1 RLJ      0.150000
     41 H20        -6.5310    5.7280   -3.3940 ha        1 RLJ      0.150000
     42 H21        -5.1170    4.0150   -2.2940 ha        1 RLJ      0.153000
@<TRIPOS>BOND
     1    1    3 ar  
     2    1    8 ar  
     3    1   29 1   
     4    2   10 1   
     5    3    5 ar  
     6    3   30 1   
     7    4   10 1   
     8    5    7 ar  
     9    5   11 1   
    10    6   10 1   
    11    7    9 ar  
    12    7   10 1   
    13    8    9 ar  
    14    8   13 1   
    15    9   31 1   
    16   11   12 3   
    17   13   14 1   
    18   13   32 1   
    19   14   15 2   
    20   14   16 1   
    21   16   17 1   
    22   16   18 1   
    23   16   19 1   
    24   17   33 1   
    25   18   34 1   
    26   18   35 1   
    27   18   36 1   
    28   19   20 1   
    29   19   37 1   
    30   19   38 1   
    31   20   21 1   
    32   21   22 ar  
    33   21   26 ar  
    34   22   23 ar  
    35   22   39 1   
    36   23   24 ar  
    37   23   40 1   
    38   24   25 ar  
    39   24   27 1   
    40   25   26 ar  
    41   25   41 1   
    42   26   42 1   
    43   27   28 3   
@<TRIPOS>SUBSTRUCTURE
     1 RLJ         1 TEMP              0 ****  ****    0 ROOT
