@<TRIPOS>MOLECULE
RLJ
   43    44     1     0     0
SMALL
bcc


@<TRIPOS>ATOM
      1 C1          0.2510   -1.1090   -0.1100 ca        1 RLJ     -0.075000
      2 F1         -0.8800    1.5870    4.0000 f         1 RLJ     -0.211300
      3 C2          1.4720   -0.6750    0.3920 ca        1 RLJ     -0.084000
      4 F2          0.8990    2.5960    3.2720 f         1 RLJ     -0.211300
      5 C3          1.5310    0.1190    1.5500 ca        1 RLJ      0.117000
      6 F3          1.0820    0.8050    4.5050 f         1 RLJ     -0.211300
      7 C4          0.3430    0.4790    2.2070 ca        1 RLJ     -0.127300
      8 C5         -0.9330   -0.7460    0.5580 ca        1 RLJ     -0.048400
      9 C6         -0.8900    0.0500    1.7150 ca        1 RLJ     -0.060000
     10 C7          0.3660    1.3500    3.4740 c3        1 RLJ      0.693200
     11 C8          2.8010    0.5400    2.0300 cg        1 RLJ      0.169800
     12 N8          3.8440    0.8810    2.4180 n1        1 RLJ     -0.228800
     13 N9         -2.2290   -1.2110    0.0560 n4        1 RLJ     -0.539200
     14 C10        -2.8720   -0.1990   -0.8800 c         1 RLJ      0.548100
     15 O10        -2.4980   -0.2330   -2.0400 o         1 RLJ     -0.402100
     16 C11        -3.9570    0.7140   -0.3020 c3        1 RLJ      0.087800
     17 O11        -3.9280    0.5910    1.1110 oh        1 RLJ     -0.635800
     18 C12        -5.3020    0.2460   -0.8450 c3        1 RLJ     -0.139100
     19 C13        -3.6400    2.1670   -0.7400 c3        1 RLJ      0.106400
     20 O14        -4.3860    3.0400    0.0960 os        1 RLJ     -0.336900
     21 C16        -5.5110    3.6200   -0.4930 ca        1 RLJ      0.076100
     22 C17        -6.7250    3.4890    0.1950 ca        1 RLJ     -0.150500
     23 C18        -7.8490    4.1520   -0.2900 ca        1 RLJ     -0.068500
     24 C19        -7.7610    4.9250   -1.4580 ca        1 RLJ      0.004000
     25 C20        -6.5380    5.0480   -2.1350 ca        1 RLJ     -0.068500
     26 C21        -5.4050    4.3960   -1.6530 ca        1 RLJ     -0.150500
     27 C22        -8.9140    5.5890   -1.9550 cg        1 RLJ      0.208800
     28 N22        -9.8590    6.1320   -2.3620 n1        1 RLJ     -0.310800
     29 H1          0.2310   -1.7280   -1.0240 ha        1 RLJ      0.173000
     30 H2          2.4080   -0.9570   -0.1250 ha        1 RLJ      0.191000
     31 H6         -1.8220    0.3470    2.2380 ha        1 RLJ      0.194000
     32 HN9        -2.8620   -1.3600    0.8580 hn        1 RLJ      0.475800
     33 HO11       -4.3630    1.3770    1.4870 ho        1 RLJ      0.482000
     34 H12        -5.5980   -0.7270   -0.3840 hc        1 RLJ      0.081700
     35 H12A       -5.2650    0.1410   -1.9560 hc        1 RLJ      0.081700
     36 H12B       -6.0740    1.0140   -0.5800 hc        1 RLJ      0.081700
     37 H13        -3.8650    2.2960   -1.8290 h1        1 RLJ      0.090200
     38 H13A       -2.5640    2.4090   -0.5240 h1        1 RLJ      0.090200
     39 H17        -6.7770    2.8960    1.1190 ha        1 RLJ      0.151000
     40 H18        -8.8090    4.0700    0.2450 ha        1 RLJ      0.165000
     41 H20        -6.4710    5.6690   -3.0430 ha        1 RLJ      0.165000
     42 H21        -4.4390    4.5070   -2.1670 ha        1 RLJ      0.151000
     43 H92        -2.0920   -2.1000   -0.4430 hn        1 RLJ      0.475800
@<TRIPOS>BOND
     1    1    3 ar  
     2    1    8 ar  
     3    1   29 1   
     4    2   10 1   
     5    3    5 ar  
     6    3   30 1   
     7    4   10 1   
     8    5    7 ar  
     9    5   11 1   
    10    6   10 1   
    11    7    9 ar  
    12    7   10 1   
    13    8    9 ar  
    14    8   13 1   
    15    9   31 1   
    16   11   12 3   
    17   13   14 1   
    18   13   32 1   
    19   13   43 1   
    20   14   15 2   
    21   14   16 1   
    22   16   17 1   
    23   16   18 1   
    24   16   19 1   
    25   17   33 1   
    26   18   34 1   
    27   18   35 1   
    28   18   36 1   
    29   19   20 1   
    30   19   37 1   
    31   19   38 1   
    32   20   21 1   
    33   21   22 ar  
    34   21   26 ar  
    35   22   23 ar  
    36   22   39 1   
    37   23   24 ar  
    38   23   40 1   
    39   24   25 ar  
    40   24   27 1   
    41   25   26 ar  
    42   25   41 1   
    43   26   42 1   
    44   27   28 3   
@<TRIPOS>SUBSTRUCTURE
     1 RLJ         1 TEMP              0 ****  ****    0 ROOT
