@<TRIPOS>MOLECULE
RLL
   49    51     1     0     0
SMALL
bcc


@<TRIPOS>ATOM
      1 CAA         1.6070   -1.0140   -0.5740 c3        1 RLL     -0.142100
      2 NAB        -3.8200    7.0030   -1.6070 n1        1 RLL     -0.229800
      3 NAC        -0.9760   -8.1910   -2.0390 n1        1 RLL     -0.319800
      4 OAD         1.2420    1.1540   -2.7560 o         1 RLL     -0.402100
      5 OAE         0.0230    0.4550    0.5090 oh        1 RLL     -0.636800
      6 CAK        -0.0430   -5.6010    2.0900 ca        1 RLL     -0.106000
      7 CAL        -0.1170   -4.2140    2.3640 ca        1 RLL     -0.104000
      8 CAM         0.2060    4.3800   -2.0210 ca        1 RLL     -0.075000
      9 CAN        -0.8330    5.2950   -2.1570 ca        1 RLL     -0.085000
     10 CAO        -1.5110   -4.7840   -2.4860 ca        1 RLL     -0.073000
     11 CAP        -1.5800   -3.4000   -2.2230 ca        1 RLL     -0.156000
     12 CAQ        -0.3560   -6.0800    0.8410 ca        1 RLL     -0.107000
     13 CAR        -0.4970   -3.3350    1.3800 ca        1 RLL     -0.132000
     14 CAS        -0.9570    3.3700   -0.1230 ca        1 RLL     -0.060000
     15 CAT        -0.7250   -0.6690   -1.5300 c3        1 RLL      0.105400
     16 NAU         1.2360    2.4570   -0.8260 n4        1 RLL     -0.539200
     17 OAV        -1.3710   -1.5770   -0.6470 os        1 RLL     -0.337900
     18 CAW         0.9700    1.1560   -1.5690 c         1 RLL      0.548100
     19 CAX         0.1420    3.4170   -0.9980 ca        1 RLL     -0.048400
     20 CAY        -1.9360    5.2630   -1.2870 ca        1 RLL      0.117000
     21 CAZ        -1.1040   -5.6640   -1.5020 ca        1 RLL      0.017000
     22 CBA        -1.2320   -2.9280   -0.9740 ca        1 RLL      0.092100
     23 CBB        -1.9910    4.2940   -0.2710 ca        1 RLL     -0.127300
     24 CBC        -0.7580   -5.1940   -0.1970 ca        1 RLL     -0.001000
     25 CBD        -0.8210   -3.8020    0.0780 ca        1 RLL     -0.045000
     26 CBE         0.4550   -0.0330   -0.7510 c3        1 RLL      0.091800
     27 CBF        -3.1840    4.2240    0.6960 c3        1 RLL      0.693200
     28 HAA         2.0720   -1.2590   -1.5590 hc        1 RLL      0.083367
     29 HAAA        1.1970   -1.9560   -0.1220 hc        1 RLL      0.083367
     30 HAAB        2.3780   -0.5980    0.1160 hc        1 RLL      0.083367
     31 HOAE       -0.5710   -0.2110    0.8960 ho        1 RLL      0.481000
     32 HAK         0.2610   -6.2910    2.8930 ha        1 RLL      0.155000
     33 HAL         0.1260   -3.8550    3.3760 ha        1 RLL      0.147000
     34 HAM         1.0590    4.4240   -2.7200 ha        1 RLL      0.173000
     35 HAN        -0.7890    6.0570   -2.9570 ha        1 RLL      0.191000
     36 HAO        -1.7930   -5.1520   -3.4870 ha        1 RLL      0.163000
     37 HAP        -1.9220   -2.7160   -3.0140 ha        1 RLL      0.150000
     38 HAQ        -0.3070   -7.1610    0.6280 ha        1 RLL      0.160000
     39 HAR        -0.5800   -2.2580    1.5870 ha        1 RLL      0.122000
     40 HAS        -1.0160    2.6060    0.6780 ha        1 RLL      0.194000
     41 HAT        -0.3470   -1.1510   -2.4670 h1        1 RLL      0.088700
     42 HATA       -1.4950    0.1150   -1.7660 h1        1 RLL      0.088700
     43 HNAU        2.1060    2.8790   -1.1770 hn        1 RLL      0.474800
     44 HAU2        1.3350    2.2430    0.1790 hn        1 RLL      0.474800
     45 CAJ        -1.0320   -7.0560   -1.7890 cg        1 RLL      0.212800
     46 FAF        -3.0670    3.2360    1.6420 f         1 RLL     -0.211300
     47 FAG        -4.3790    3.9690    0.0760 f         1 RLL     -0.211300
     48 FAH        -3.3790    5.3730    1.4160 f         1 RLL     -0.211300
     49 CAI        -2.9740    6.2180   -1.4600 cg        1 RLL      0.169800
@<TRIPOS>BOND
     1    1   26 1   
     2    1   28 1   
     3    1   29 1   
     4    1   30 1   
     5    2   49 3   
     6    3   45 3   
     7    4   18 2   
     8    5   26 1   
     9    5   31 1   
    10    6    7 ar  
    11    6   12 ar  
    12    6   32 1   
    13    7   13 ar  
    14    7   33 1   
    15    8    9 ar  
    16    8   19 ar  
    17    8   34 1   
    18    9   20 ar  
    19    9   35 1   
    20   10   11 ar  
    21   10   21 ar  
    22   10   36 1   
    23   11   22 ar  
    24   11   37 1   
    25   12   24 ar  
    26   12   38 1   
    27   13   25 ar  
    28   13   39 1   
    29   14   19 ar  
    30   14   23 ar  
    31   14   40 1   
    32   15   17 1   
    33   15   26 1   
    34   15   41 1   
    35   15   42 1   
    36   16   18 1   
    37   16   19 1   
    38   16   43 1   
    39   16   44 1   
    40   17   22 1   
    41   18   26 1   
    42   20   23 ar  
    43   20   49 1   
    44   21   24 ar  
    45   21   45 1   
    46   22   25 ar  
    47   23   27 1   
    48   24   25 ar  
    49   27   46 1   
    50   27   47 1   
    51   27   48 1   
@<TRIPOS>SUBSTRUCTURE
     1 RLL         1 TEMP              0 ****  ****    0 ROOT
