@<TRIPOS>MOLECULE
RLL
   48    50     1     0     0
SMALL
bcc


@<TRIPOS>ATOM
      1 CAA         1.4520   -0.0160   -0.0720 c3        1 RLL     -0.127100
      2 NAB        -2.6210    8.4130   -2.8230 n1        1 RLL     -0.327800
      3 NAC        -1.3030   -8.7100   -2.5760 n1        1 RLL     -0.366800
      4 OAD        -0.4620    1.0930   -2.4140 o         1 RLL     -0.587100
      5 OAE        -0.7810   -0.0780    0.8680 oh        1 RLL     -0.605800
      6 FAF        -2.4410    6.4040    1.7900 f         1 RLL     -0.229633
      7 FAG        -3.7480    7.2580    0.2920 f         1 RLL     -0.229633
      8 FAH        -1.7110    7.9880    0.5110 f         1 RLL     -0.229633
      9 CAI        -2.3080    7.3750   -2.4020 cg        1 RLL      0.218800
     10 CAK         0.4670   -6.9550    1.7210 ca        1 RLL     -0.105000
     11 CAL         0.7100   -5.6340    2.1640 ca        1 RLL     -0.133000
     12 CAM        -1.0870    3.8650   -2.3550 ca        1 RLL     -0.140000
     13 CAN        -1.4770    5.1230   -2.7990 ca        1 RLL     -0.071000
     14 CAO        -1.1130   -5.2360   -2.5540 ca        1 RLL     -0.042000
     15 CAP        -0.8750   -3.9150   -2.1210 ca        1 RLL     -0.224000
     16 CAQ        -0.0370   -7.1860    0.4640 ca        1 RLL     -0.127000
     17 CAR         0.4430   -4.5690    1.3380 ca        1 RLL     -0.097000
     18 CAS        -1.5910    4.5420   -0.0750 ca        1 RLL     -0.148000
     19 CAT        -0.4010   -1.3310   -1.1790 c3        1 RLL      0.105400
     20 NAU        -0.7340    2.3130   -0.4590 ns        1 RLL     -0.449100
     21 OAV        -0.0990   -2.4460   -0.3300 os        1 RLL     -0.347900
     22 CAW        -0.4550    1.1600   -1.1730 c         1 RLL      0.677100
     23 CAX        -1.1370    3.5500   -0.9800 ca        1 RLL      0.089600
     24 CAY        -1.9230    6.1030   -1.9020 ca        1 RLL      0.006000
     25 CAZ        -0.8470   -6.3110   -1.7280 ca        1 RLL     -0.041000
     26 CBA        -0.3700   -3.6940   -0.8550 ca        1 RLL      0.168100
     27 CBB        -1.9750    5.7970   -0.5330 ca        1 RLL     -0.101300
     28 CBC        -0.3230   -6.1050   -0.4140 ca        1 RLL      0.016000
     29 CBD        -0.0790   -4.7820    0.0340 ca        1 RLL     -0.060000
     30 CBE        -0.0430   -0.0840   -0.3470 c3        1 RLL      0.091800
     31 CBF        -2.4560    6.8350    0.4840 c3        1 RLL      0.686200
     32 HAA         1.6760    0.8310    0.6200 hc        1 RLL      0.062367
     33 HAAA        1.7850   -0.9710    0.4040 hc        1 RLL      0.062367
     34 HAAB        2.0120    0.1280   -1.0260 hc        1 RLL      0.062367
     35 HOAE       -0.5850   -0.9120    1.3170 ho        1 RLL      0.437000
     36 HAK         0.6860   -7.7950    2.3970 ha        1 RLL      0.140000
     37 HAL         1.1140   -5.4720    3.1740 ha        1 RLL      0.139000
     38 HAM        -0.7430    3.1190   -3.0930 ha        1 RLL      0.185000
     39 HAN        -1.4330    5.3530   -3.8770 ha        1 RLL      0.158000
     40 HAO        -1.5160   -5.3960   -3.5670 ha        1 RLL      0.149000
     41 HAP        -1.0990   -3.0880   -2.8100 ha        1 RLL      0.151000
     42 HAQ        -0.2270   -8.2140    0.1170 ha        1 RLL      0.148000
     43 HAR         0.6270   -3.5350    1.6660 ha        1 RLL      0.141000
     44 HAS        -1.6460    4.3280    1.0070 ha        1 RLL      0.160000
     45 HAT         0.2210   -1.3690   -2.1100 h1        1 RLL      0.074200
     46 HATA       -1.4930   -1.3290   -1.4310 h1        1 RLL      0.074200
     47 HNAU       -0.8020    2.2120    0.5350 hn        1 RLL      0.343500
     48 CAJ        -1.0950   -7.6330   -2.1880 cg        1 RLL      0.237800
@<TRIPOS>BOND
     1    1   30 1   
     2    1   32 1   
     3    1   33 1   
     4    1   34 1   
     5    2    9 3   
     6    3   48 3   
     7    4   22 2   
     8    5   30 1   
     9    5   35 1   
    10    6   31 1   
    11    7   31 1   
    12    8   31 1   
    13    9   24 1   
    14   10   11 ar  
    15   10   16 ar  
    16   10   36 1   
    17   11   17 ar  
    18   11   37 1   
    19   12   13 ar  
    20   12   23 ar  
    21   12   38 1   
    22   13   24 ar  
    23   13   39 1   
    24   14   15 ar  
    25   14   25 ar  
    26   14   40 1   
    27   15   26 ar  
    28   15   41 1   
    29   16   28 ar  
    30   16   42 1   
    31   17   29 ar  
    32   17   43 1   
    33   18   23 ar  
    34   18   27 ar  
    35   18   44 1   
    36   19   21 1   
    37   19   30 1   
    38   19   45 1   
    39   19   46 1   
    40   20   22 1   
    41   20   23 1   
    42   20   47 1   
    43   21   26 1   
    44   22   30 1   
    45   24   27 ar  
    46   25   28 ar  
    47   25   48 1   
    48   26   29 ar  
    49   27   31 1   
    50   28   29 ar  
@<TRIPOS>SUBSTRUCTURE
     1 RLL         1 TEMP              0 ****  ****    0 ROOT
