@<TRIPOS>MOLECULE
RLL
   48    50     1     0     0
SMALL
bcc


@<TRIPOS>ATOM
      1 CAA         1.4330    0.0510    0.0020 c3        1 RLL     -0.127100
      2 NAB        -2.6660    8.4600   -2.7770 n1        1 RLL     -0.327800
      3 NAC        -1.1230   -8.6480   -2.6840 n1        1 RLL     -0.366800
      4 OAD        -0.4240    1.1630   -2.3840 o         1 RLL     -0.587100
      5 OAE        -0.8260   -0.0500    0.8730 oh        1 RLL     -0.605800
      6 FAF        -2.5990    6.3990    1.8160 f         1 RLL     -0.229633
      7 FAG        -3.8680    7.2560    0.2890 f         1 RLL     -0.229633
      8 FAH        -1.8480    8.0060    0.5790 f         1 RLL     -0.229633
      9 CAI        -2.3520    7.4210   -2.3580 cg        1 RLL      0.218800
     10 CAK         0.4940   -6.9200    1.6840 ca        1 RLL     -0.105000
     11 CAL         0.7040   -5.6010    2.1490 ca        1 RLL     -0.133000
     12 CAM        -1.0870    3.9260   -2.3140 ca        1 RLL     -0.140000
     13 CAN        -1.4790    5.1840   -2.7550 ca        1 RLL     -0.071000
     14 CAO        -0.9840   -5.1720   -2.6160 ca        1 RLL     -0.042000
     15 CAP        -0.7780   -3.8530   -2.1610 ca        1 RLL     -0.224000
     16 CAQ         0.0310   -7.1430    0.4090 ca        1 RLL     -0.127000
     17 CAR         0.4460   -4.5300    1.3280 ca        1 RLL     -0.097000
     18 CAS        -1.6680    4.5700   -0.0420 ca        1 RLL     -0.148000
     19 CAT        -0.3680   -1.2740   -1.1750 c3        1 RLL      0.105400
     20 NAU        -0.7700    2.3570   -0.4250 n         1 RLL     -0.449100
     21 OAV        -0.0780   -2.3950   -0.3300 os        1 RLL     -0.347900
     22 CAW        -0.4550    1.2160   -1.1430 c         1 RLL      0.677100
     23 CAX        -1.1730    3.5940   -0.9440 ca        1 RLL      0.089600
     24 CAY        -1.9640    6.1480   -1.8610 ca        1 RLL      0.006000
     25 CAZ        -0.7270   -6.2530   -1.7950 ca        1 RLL     -0.041000
     26 CBA        -0.3150   -3.6400   -0.8770 ca        1 RLL      0.168100
     27 CBB        -2.0540    5.8250   -0.4980 ca        1 RLL     -0.101300
     28 CBC        -0.2450   -6.0550   -0.4630 ca        1 RLL      0.016000
     29 CBD        -0.0340   -4.7340    0.0070 ca        1 RLL     -0.060000
     30 CBE        -0.0520   -0.0320   -0.3190 c3        1 RLL      0.091800
     31 CBF        -2.5780    6.8460    0.5160 c3        1 RLL      0.686200
     32 HAA         2.0190    0.2140   -0.9330 hc        1 RLL      0.062367
     33 HAAA        1.7640   -0.9050    0.4760 hc        1 RLL      0.062367
     34 HAAB        1.6250    0.8920    0.7100 hc        1 RLL      0.062367
     35 HOAE       -0.6320   -0.8860    1.3190 ho        1 RLL      0.437000
     36 HAK         0.7060   -7.7660    2.3560 ha        1 RLL      0.140000
     37 HAL         1.0760   -5.4460    3.1730 ha        1 RLL      0.139000
     38 HAM        -0.7110    3.1930   -3.0490 ha        1 RLL      0.185000
     39 HAN        -1.4070    5.4270   -3.8280 ha        1 RLL      0.158000
     40 HAO        -1.3540   -5.3250   -3.6430 ha        1 RLL      0.149000
     41 HAP        -0.9940   -3.0210   -2.8460 ha        1 RLL      0.151000
     42 HAQ        -0.1330   -8.1690    0.0450 ha        1 RLL      0.148000
     43 HAR         0.6060   -3.4970    1.6740 ha        1 RLL      0.141000
     44 HAS        -1.7520    4.3430    1.0350 ha        1 RLL      0.160000
     45 HAT        -1.4520   -1.2830   -1.4600 h1        1 RLL      0.074200
     46 HATA        0.2810   -1.2930   -2.0870 h1        1 RLL      0.074200
     47 HNAU       -0.8670    2.2440    0.5650 hn        1 RLL      0.343500
     48 CAJ        -0.9420   -7.5730   -2.2770 cg        1 RLL      0.237800
@<TRIPOS>BOND
     1    1   30 1   
     2    1   32 1   
     3    1   33 1   
     4    1   34 1   
     5    2    9 3   
     6    3   48 3   
     7    4   22 2   
     8    5   30 1   
     9    5   35 1   
    10    6   31 1   
    11    7   31 1   
    12    8   31 1   
    13    9   24 1   
    14   10   11 ar  
    15   10   16 ar  
    16   10   36 1   
    17   11   17 ar  
    18   11   37 1   
    19   12   13 ar  
    20   12   23 ar  
    21   12   38 1   
    22   13   24 ar  
    23   13   39 1   
    24   14   15 ar  
    25   14   25 ar  
    26   14   40 1   
    27   15   26 ar  
    28   15   41 1   
    29   16   28 ar  
    30   16   42 1   
    31   17   29 ar  
    32   17   43 1   
    33   18   23 ar  
    34   18   27 ar  
    35   18   44 1   
    36   19   21 1   
    37   19   30 1   
    38   19   45 1   
    39   19   46 1   
    40   20   22 1   
    41   20   23 1   
    42   20   47 1   
    43   21   26 1   
    44   22   30 1   
    45   24   27 ar  
    46   25   28 ar  
    47   25   48 1   
    48   26   29 ar  
    49   27   31 1   
    50   28   29 ar  
@<TRIPOS>SUBSTRUCTURE
     1 RLL         1 TEMP              0 ****  ****    0 ROOT
