@<TRIPOS>MOLECULE
RLL
   48    50     1     0     0
SMALL
bcc


@<TRIPOS>ATOM
      1 CAA         0.7910    1.5970   -1.9090 c3        1 RLL     -0.127100
      2 NAB        -8.2830   -1.7490   -0.6020 n1        1 RLL     -0.327800
      3 NAC         8.8220   -2.7320    0.5910 n1        1 RLL     -0.366800
      4 OAD        -0.6990   -1.2110   -1.3840 o         1 RLL     -0.587100
      5 OAE         0.5210    1.4760    0.4950 oh        1 RLL     -0.605800
      6 FAF        -6.1070    2.2600    1.5300 f         1 RLL     -0.229633
      7 FAG        -7.2160    0.4440    1.9190 f         1 RLL     -0.229633
      8 FAH        -7.5960    1.5900    0.1110 f         1 RLL     -0.229633
      9 CAI        -7.1930   -1.3440   -0.5590 cg        1 RLL      0.218800
     10 CAK         7.5320    2.0650    0.6790 ca        1 RLL     -0.105000
     11 CAL         6.2860    2.7030    0.4820 ca        1 RLL     -0.133000
     12 CAM        -3.5310   -1.1400   -1.1660 ca        1 RLL     -0.140000
     13 CAN        -4.8510   -1.5760   -1.1790 ca        1 RLL     -0.071000
     14 CAO         5.4300   -2.2710   -0.0330 ca        1 RLL     -0.042000
     15 CAP         4.1820   -1.6440   -0.2290 ca        1 RLL     -0.224000
     16 CAQ         7.6340    0.6970    0.6030 ca        1 RLL     -0.127000
     17 CAR         5.1640    1.9570    0.2130 ca        1 RLL     -0.097000
     18 CAS        -4.1990    0.7600    0.1970 ca        1 RLL     -0.148000
     19 CAT         1.7450   -0.3270   -0.5770 c3        1 RLL      0.105400
     20 NAU        -1.8760    0.5530   -0.4430 n         1 RLL     -0.449100
     21 OAV         2.9240    0.4480   -0.3250 os        1 RLL     -0.347900
     22 CAW        -0.7190   -0.0870   -0.8530 c         1 RLL      0.677100
     23 CAX        -3.1790    0.0400   -0.4750 ca        1 RLL      0.089600
     24 CAY        -5.8580   -0.8610   -0.5160 ca        1 RLL      0.006000
     25 CAZ         6.5620   -1.5270    0.2390 ca        1 RLL     -0.041000
     26 CBA         4.0910   -0.2680   -0.1480 ca        1 RLL      0.168100
     27 CBB        -5.5160    0.3140    0.1720 ca        1 RLL     -0.101300
     28 CBC         6.4900   -0.1010    0.3260 ca        1 RLL      0.016000
     29 CBD         5.2420    0.5420    0.1300 ca        1 RLL     -0.060000
     30 CBE         0.6040    0.7010   -0.6930 c3        1 RLL      0.091800
     31 CBF        -6.5810    1.1270    0.9120 c3        1 RLL      0.686200
     32 HAA         1.8030    2.0670   -1.8710 hc        1 RLL      0.062367
     33 HAAA        0.7060    0.9950   -2.8450 hc        1 RLL      0.062367
     34 HAAB        0.0180    2.4010   -1.9160 hc        1 RLL      0.062367
     35 HOAE        1.3910    1.8780    0.6280 ho        1 RLL      0.437000
     36 HAK         8.4210    2.6790    0.8940 ha        1 RLL      0.140000
     37 HAL         6.2280    3.8000    0.5470 ha        1 RLL      0.139000
     38 HAM        -2.7670   -1.7320   -1.6990 ha        1 RLL      0.185000
     39 HAN        -5.1090   -2.5000   -1.7220 ha        1 RLL      0.158000
     40 HAO         5.4860   -3.3690   -0.1000 ha        1 RLL      0.149000
     41 HAP         3.3060   -2.2720   -0.4450 ha        1 RLL      0.151000
     42 HAQ         8.6040    0.1980    0.7560 ha        1 RLL      0.148000
     43 HAR         4.1860    2.4380    0.0560 ha        1 RLL      0.141000
     44 HAS        -3.9590    1.6850    0.7500 ha        1 RLL      0.160000
     45 HAT         1.8520   -0.8990   -1.5340 h1        1 RLL      0.074700
     46 HATA        1.5560   -1.0220    0.2810 h1        1 RLL      0.074700
     47 HNAU       -1.7520    1.4050    0.0680 hn        1 RLL      0.343500
     48 CAJ         7.8080   -2.1830    0.4340 cg        1 RLL      0.237800
@<TRIPOS>BOND
     1    1   30 1   
     2    1   32 1   
     3    1   33 1   
     4    1   34 1   
     5    2    9 3   
     6    3   48 3   
     7    4   22 2   
     8    5   30 1   
     9    5   35 1   
    10    6   31 1   
    11    7   31 1   
    12    8   31 1   
    13    9   24 1   
    14   10   11 ar  
    15   10   16 ar  
    16   10   36 1   
    17   11   17 ar  
    18   11   37 1   
    19   12   13 ar  
    20   12   23 ar  
    21   12   38 1   
    22   13   24 ar  
    23   13   39 1   
    24   14   15 ar  
    25   14   25 ar  
    26   14   40 1   
    27   15   26 ar  
    28   15   41 1   
    29   16   28 ar  
    30   16   42 1   
    31   17   29 ar  
    32   17   43 1   
    33   18   23 ar  
    34   18   27 ar  
    35   18   44 1   
    36   19   21 1   
    37   19   30 1   
    38   19   45 1   
    39   19   46 1   
    40   20   22 1   
    41   20   23 1   
    42   20   47 1   
    43   21   26 1   
    44   22   30 1   
    45   24   27 ar  
    46   25   28 ar  
    47   25   48 1   
    48   26   29 ar  
    49   27   31 1   
    50   28   29 ar  
@<TRIPOS>SUBSTRUCTURE
     1 RLL         1 TEMP              0 ****  ****    0 ROOT
