@<TRIPOS>MOLECULE
RLM
   27    28     1     0     0
SMALL
bcc


@<TRIPOS>ATOM
      1 CAI         0.0690   -0.4010    0.0400 ca        1 RLM     -0.062000
      2 CAN         1.4540   -0.2760    0.1100 ca        1 RLM     -0.035600
      3 CLC         2.3790   -0.7910   -1.2040 cl        1 RLM     -0.005400
      4 CAP         2.0570    0.2750    1.2710 ca        1 RLM      0.206100
      5 OAA         3.4120    0.3690    1.2750 oh        1 RLM     -0.440100
      6 CAO         1.2400    0.6890    2.3470 ca        1 RLM     -0.035600
      7 CLD         1.9260    1.3470    3.7480 cl        1 RLM     -0.005400
      8 CAJ        -0.1460    0.5610    2.2750 ca        1 RLM     -0.062000
      9 CAQ        -0.7290    0.0240    1.1180 ca        1 RLM     -0.089400
     10 NAK        -2.1890   -0.0870    1.0180 n4        1 RLM     -0.477800
     11 CAM        -2.8130   -0.7690    2.1550 ca        1 RLM     -0.115400
     12 CAG        -3.5830   -0.0320    3.0730 ca        1 RLM     -0.055000
     13 CAE        -4.1980   -0.6850    4.1330 ca        1 RLM     -0.172000
     14 CAL        -4.0410   -2.0740    4.2830 ca        1 RLM      0.197100
     15 OAB        -4.6110   -2.7860    5.2940 oh        1 RLM     -0.457100
     16 CAF        -3.2610   -2.8130    3.3650 ca        1 RLM     -0.172000
     17 CAH        -2.6490   -2.1610    2.3090 ca        1 RLM     -0.055000
     18 HAI        -0.3820   -0.8320   -0.8720 ha        1 RLM      0.171000
     19 HAA         3.7100    0.7590    2.1180 ho        1 RLM      0.459000
     20 HAJ        -0.7690    0.8780    3.1310 ha        1 RLM      0.171000
     21 HAK        -2.4250   -0.6060    0.1610 hn        1 RLM      0.457800
     22 HAG        -3.7150    1.0580    2.9680 ha        1 RLM      0.157500
     23 HAH        -2.0360   -2.7430    1.5990 ha        1 RLM      0.157500
     24 HAE        -4.8070   -0.1130    4.8510 ha        1 RLM      0.179500
     25 HAB        -5.1250   -2.1840    5.8590 ho        1 RLM      0.448000
     26 HAF        -3.1510   -3.9010    3.5040 ha        1 RLM      0.179500
     27 HAK2       -2.5770    0.8640    0.9440 hn        1 RLM      0.457800
@<TRIPOS>BOND
     1    1    2 ar  
     2    1    9 ar  
     3    1   18 1   
     4    2    3 1   
     5    2    4 ar  
     6    4    5 1   
     7    4    6 ar  
     8    5   19 1   
     9    6    7 1   
    10    6    8 ar  
    11    8    9 ar  
    12    8   20 1   
    13    9   10 1   
    14   10   11 1   
    15   10   21 1   
    16   10   27 1   
    17   11   12 ar  
    18   11   17 ar  
    19   12   13 ar  
    20   12   22 1   
    21   13   14 ar  
    22   13   24 1   
    23   14   15 1   
    24   14   16 ar  
    25   15   25 1   
    26   16   17 ar  
    27   16   26 1   
    28   17   23 1   
@<TRIPOS>SUBSTRUCTURE
     1 RLM         1 TEMP              0 ****  ****    0 ROOT
