@<TRIPOS>MOLECULE
RLM
   26    27     1     0     0
SMALL
bcc


@<TRIPOS>ATOM
      1 CAI        -0.0370   -0.0490    0.0100 ca        1 RLM     -0.134500
      2 CAN         1.3510   -0.0320   -0.1120 ca        1 RLM     -0.009600
      3 CLC         2.0250   -0.1810   -1.6630 cl        1 RLM     -0.072900
      4 CAP         2.1640    0.1010    1.0310 ca        1 RLM      0.116100
      5 OAA         3.5250    0.0970    0.8480 oh        1 RLM     -0.476100
      6 CAO         1.5480    0.2230    2.2900 ca        1 RLM     -0.009600
      7 CLD         2.4930    0.3870    3.6980 cl        1 RLM     -0.072900
      8 CAJ         0.1610    0.2220    2.4160 ca        1 RLM     -0.134500
      9 CAQ        -0.6560    0.0820    1.2740 ca        1 RLM      0.123600
     10 NAK        -2.0560    0.1820    1.3700 nh        1 RLM     -0.610000
     11 CAM        -2.7830   -0.5530    2.3350 ca        1 RLM      0.093600
     12 CAG        -4.1480   -0.2270    2.5290 ca        1 RLM     -0.130000
     13 CAE        -4.9060   -0.8840    3.4860 ca        1 RLM     -0.159500
     14 CAL        -4.3120   -1.8830    4.2740 ca        1 RLM      0.103100
     15 OAB        -5.1200   -2.4910    5.2090 oh        1 RLM     -0.496100
     16 CAF        -2.9670   -2.2240    4.0930 ca        1 RLM     -0.159500
     17 CAH        -2.2120   -1.5690    3.1260 ca        1 RLM     -0.130000
     18 HAI        -0.6510   -0.1570   -0.8990 ha        1 RLM      0.159000
     19 HAA         3.9470    0.2280    1.7130 ho        1 RLM      0.432000
     20 HAJ        -0.2980    0.3380    3.4120 ha        1 RLM      0.159000
     21 HAK        -2.5190    0.2270    0.4840 hn        1 RLM      0.414800
     22 HAG        -4.6210    0.5600    1.9190 ha        1 RLM      0.143000
     23 HAH        -1.1590   -1.8590    2.9860 ha        1 RLM      0.143000
     24 HAE        -5.9650   -0.6310    3.6390 ha        1 RLM      0.145000
     25 HAB        -4.5890   -3.1520    5.6750 ho        1 RLM      0.419000
     26 HAF        -2.5060   -3.0110    4.7080 ha        1 RLM      0.145000
@<TRIPOS>BOND
     1    1    2 ar  
     2    1    9 ar  
     3    1   18 1   
     4    2    3 1   
     5    2    4 ar  
     6    4    5 1   
     7    4    6 ar  
     8    5   19 1   
     9    6    7 1   
    10    6    8 ar  
    11    8    9 ar  
    12    8   20 1   
    13    9   10 1   
    14   10   11 1   
    15   10   21 1   
    16   11   12 ar  
    17   11   17 ar  
    18   12   13 ar  
    19   12   22 1   
    20   13   14 ar  
    21   13   24 1   
    22   14   15 1   
    23   14   16 ar  
    24   15   25 1   
    25   16   17 ar  
    26   16   26 1   
    27   17   23 1   
@<TRIPOS>SUBSTRUCTURE
     1 RLM         1 TEMP              0 ****  ****    0 ROOT
