@<TRIPOS>MOLECULE
RLP
   44    41     1     0     0
SMALL
bcc


@<TRIPOS>ATOM
      1 O19        -4.4440   -2.6570    4.9990 o         1 RLP     -0.598800
      2 C18        -4.6060   -1.5530    4.4210 c         1 RLP      0.884600
      3 O18        -5.3520   -0.6850    4.9290 o         1 RLP     -0.598800
      4 C17        -3.9910   -1.3170    3.0770 c3        1 RLP     -0.172400
      5 C16        -2.5310   -1.0280    3.2390 c3        1 RLP      0.012800
      6 C7         -1.8700   -0.9480    1.8600 ce        1 RLP     -0.179700
      7 C8         -1.2640    0.0410    1.0670 c1        1 RLP      0.402100
      8 O8         -1.7020    1.3400    1.4540 o         1 RLP     -0.438000
      9 N9         -0.5710   -0.3080   -0.0290 n3        1 RLP     -0.160400
     10 C10        -0.4530   -1.6390   -0.3760 c1        1 RLP      0.496500
     11 C5         -1.0430   -2.6000    0.3960 c1        1 RLP     -0.116600
     12 N6         -1.7560   -2.2390    1.5240 ne        1 RLP     -0.328000
     13 C4         -0.9230   -3.9460    0.0450 c1        1 RLP      0.618500
     14 O4         -1.4130   -4.8050    0.7510 o         1 RLP     -0.627500
     15 N3         -0.2240   -4.2970   -1.0590 n2        1 RLP     -0.866800
     16 C2          0.3680   -3.3290   -1.8350 c1        1 RLP      0.819900
     17 O2          0.9750   -3.6430   -2.8380 o         1 RLP     -0.645500
     18 N1          0.2510   -1.9970   -1.4890 n1        1 RLP     -0.680800
     19 C11        -0.2250    0.8220   -0.8770 c3        1 RLP      0.046300
     20 C12         1.2900    1.0880   -0.7850 c3        1 RLP      0.141100
     21 O12         1.6310    1.4100    0.5400 oh        1 RLP     -0.592800
     22 C13         1.6530    2.2310   -1.6910 c3        1 RLP      0.105100
     23 O13         1.1410    1.9860   -2.9770 oh        1 RLP     -0.579800
     24 C14         3.1610    2.3620   -1.7640 c3        1 RLP      0.107100
     25 O14         3.6360    2.9190   -0.5720 oh        1 RLP     -0.607800
     26 C15         3.5340    3.2610   -2.9250 c3        1 RLP      0.087400
     27 O15         4.9220    3.3840   -2.9950 oh        1 RLP     -0.608800
     28 H171       -4.4290   -0.5550    2.6450 hc        1 RLP      0.078700
     29 H172       -4.1040   -2.1060    2.5290 hc        1 RLP      0.078700
     30 H161       -2.4170   -0.1750    3.7060 hc        1 RLP      0.057200
     31 H162       -2.1120   -1.7460    3.7630 hc        1 RLP      0.057200
     32 HO8        -1.3050    1.5730    2.2190 ho        1 RLP      0.266000
     33 HN3        -0.0870   -5.1880   -1.2530 hn        1 RLP      0.476400
     34 H111       -0.7170    1.6210   -0.5780 h1        1 RLP      0.083700
     35 H112       -0.4680    0.6180   -1.8150 h1        1 RLP      0.083700
     36 H121        1.7760    0.2890   -1.0600 h1        1 RLP      0.080700
     37 H12O        2.0600    0.7220    0.9130 ho        1 RLP      0.411000
     38 H131        1.2710    3.0610   -1.3400 h1        1 RLP      0.056700
     39 H13O        0.7880    2.7290   -3.3000 ho        1 RLP      0.389000
     40 H141        3.5610    1.4750   -1.8940 h1        1 RLP      0.072700
     41 H14O        4.5240    2.7780   -0.5070 ho        1 RLP      0.421000
     42 H151        3.1980    2.8710   -3.7630 h1        1 RLP      0.031700
     43 H152        3.1320    4.1520   -2.7930 h1        1 RLP      0.031700
     44 H15O        5.1320    4.0280   -3.5620 ho        1 RLP      0.402000
@<TRIPOS>BOND
     1    1    2 1   
     2    2    3 1   
     3    2    4 1   
     4    4    5 1   
     5    4   28 1   
     6    4   29 1   
     7    5    6 1   
     8    5   30 1   
     9    5   31 1   
    10    6    7 2   
    11    6   12 1   
    12    7    9 2   
    13    8   32 1   
    14    9   10 1   
    15    9   19 1   
    16   10   18 3   
    17   11   12 2   
    18   11   13 2   
    19   13   14 2   
    20   15   16 2   
    21   15   33 1   
    22   16   17 2   
    23   19   20 1   
    24   19   34 1   
    25   19   35 1   
    26   20   21 1   
    27   20   22 1   
    28   20   36 1   
    29   21   37 1   
    30   22   23 1   
    31   22   24 1   
    32   22   38 1   
    33   23   39 1   
    34   24   25 1   
    35   24   26 1   
    36   24   40 1   
    37   25   41 1   
    38   26   27 1   
    39   26   42 1   
    40   26   43 1   
    41   27   44 1   
@<TRIPOS>SUBSTRUCTURE
     1 RLP         1 TEMP              0 ****  ****    0 ROOT
