@<TRIPOS>MOLECULE
RLP
   44    45     1     0     0
SMALL
bcc


@<TRIPOS>ATOM
      1 O19         0.1590    0.5010    0.0950 o         1 RLP     -0.539000
      2 C18         1.1620    0.7690   -0.5730 c         1 RLP      0.633100
      3 O18         1.6760    2.0050   -0.3160 oh        1 RLP     -0.605100
      4 C17         1.8130   -0.0960   -1.6090 c3        1 RLP     -0.172400
      5 C16         3.2510   -0.4340   -1.2410 c3        1 RLP     -0.085700
      6 C7          4.1500   -0.3410   -2.4340 cc        1 RLP      0.170600
      7 C8          4.4560    1.0340   -2.8790 cd        1 RLP      0.251400
      8 O8          3.9270    2.0530   -2.3730 o         1 RLP     -0.439000
      9 N9          5.3560    1.1830   -3.9550 n         1 RLP     -0.165100
     10 C10         5.8900    0.0420   -4.5910 cd        1 RLP      0.135400
     11 C5          5.4720   -1.2620   -4.0790 cd        1 RLP      0.082800
     12 N6          4.6390   -1.4190   -3.0200 nc        1 RLP     -0.491000
     13 C4          6.0040   -2.4590   -4.7550 c         1 RLP      0.638000
     14 O4          5.7440   -3.6420   -4.4510 o         1 RLP     -0.666500
     15 N3          6.8690   -2.2330   -5.8310 n         1 RLP     -0.621500
     16 C2          7.2340   -0.9340   -6.2640 c         1 RLP      0.848900
     17 O2          8.0240   -0.8620   -7.2370 o         1 RLP     -0.683500
     18 N1          6.7310    0.2060   -5.6280 nc        1 RLP     -0.495400
     19 C11         5.7490    2.5130   -4.3700 c3        1 RLP      0.035300
     20 C12         7.1990    2.9190   -4.0400 c3        1 RLP      0.105100
     21 O12         7.3790    2.7880   -2.6390 oh        1 RLP     -0.592800
     22 C13         7.4600    4.3960   -4.4200 c3        1 RLP      0.109100
     23 O13         6.7760    4.8140   -5.5920 oh        1 RLP     -0.604800
     24 C14         8.9560    4.6050   -4.7250 c3        1 RLP      0.144100
     25 O14         9.6600    4.2830   -3.5340 oh        1 RLP     -0.614800
     26 C15         9.2190    6.0580   -5.1290 c3        1 RLP      0.094400
     27 O15        10.6190    6.1680   -5.3490 oh        1 RLP     -0.617800
     28 H171        1.7880    0.4650   -2.5830 hc        1 RLP      0.078700
     29 H172        1.2140   -1.0340   -1.7340 hc        1 RLP      0.078700
     30 H161        3.6310    0.2890   -0.4680 hc        1 RLP      0.057700
     31 H162        3.2890   -1.4610   -0.7910 hc        1 RLP      0.057700
     32 HO8         2.4580    2.1630   -0.8760 ho        1 RLP      0.466000
     33 HN3         7.2510   -3.0150   -6.3100 hn        1 RLP      0.320500
     34 H111        5.6300    2.5880   -5.4900 h1        1 RLP      0.073200
     35 H112        5.0570    3.2500   -3.8680 h1        1 RLP      0.073200
     36 H121        7.9240    2.2590   -4.5910 h1        1 RLP      0.082700
     37 H12O        8.3250    2.8950   -2.4730 ho        1 RLP      0.415000
     38 H131        7.1600    5.0480   -3.5510 h1        1 RLP      0.054700
     39 H13O        5.8320    4.7360   -5.4070 ho        1 RLP      0.411000
     40 H141        9.2800    3.9190   -5.5560 h1        1 RLP      0.071700
     41 H14O       10.5930    4.4470   -3.7200 ho        1 RLP      0.422000
     42 H151        8.9130    6.7550   -4.3050 h1        1 RLP      0.042700
     43 H152        8.6470    6.2970   -6.0630 h1        1 RLP      0.042700
     44 H15O       10.7710    7.0430   -5.7200 ho        1 RLP      0.401000
@<TRIPOS>BOND
     1    1    2 2   
     2    2    3 1   
     3    2    4 1   
     4    3   32 1   
     5    4    5 1   
     6    4   28 1   
     7    4   29 1   
     8    5    6 1   
     9    5   30 1   
    10    5   31 1   
    11    6    7 2   
    12    6   12 1   
    13    7    8 1   
    14    7    9 1   
    15    9   10 1   
    16    9   19 1   
    17   10   11 1   
    18   10   18 2   
    19   11   12 2   
    20   11   13 1   
    21   13   14 2   
    22   13   15 1   
    23   15   16 1   
    24   15   33 1   
    25   16   17 2   
    26   16   18 1   
    27   19   20 1   
    28   19   34 1   
    29   19   35 1   
    30   20   21 1   
    31   20   22 1   
    32   20   36 1   
    33   21   37 1   
    34   22   23 1   
    35   22   24 1   
    36   22   38 1   
    37   23   39 1   
    38   24   25 1   
    39   24   26 1   
    40   24   40 1   
    41   25   41 1   
    42   26   27 1   
    43   26   42 1   
    44   26   43 1   
    45   27   44 1   
@<TRIPOS>SUBSTRUCTURE
     1 RLP         1 TEMP              0 ****  ****    0 ROOT
