@<TRIPOS>MOLECULE
RLP
   44    45     1     0     0
SMALL
bcc


@<TRIPOS>ATOM
      1 O19         0.1350    0.5540    0.0800 o         1 RLP     -0.539000
      2 C18         1.1420    0.8130   -0.5870 c         1 RLP      0.633100
      3 O18         1.6560    2.0510   -0.3420 oh        1 RLP     -0.605100
      4 C17         1.7980   -0.0650   -1.6090 c3        1 RLP     -0.172400
      5 C16         3.2320   -0.4000   -1.2290 c3        1 RLP     -0.085700
      6 C7          4.1380   -0.3230   -2.4180 cc        1 RLP      0.170600
      7 C8          4.4490    1.0460   -2.8780 cd        1 RLP      0.251400
      8 O8          3.9180    2.0720   -2.3860 o         1 RLP     -0.439000
      9 N9          5.3550    1.1810   -3.9500 n         1 RLP     -0.165100
     10 C10         5.8910    0.0320   -4.5700 cd        1 RLP      0.135400
     11 C5          5.4680   -1.2660   -4.0450 cd        1 RLP      0.082800
     12 N6          4.6290   -1.4090   -2.9880 nc        1 RLP     -0.491000
     13 C4          6.0020   -2.4710   -4.7030 c         1 RLP      0.638000
     14 O4          5.7390   -3.6500   -4.3860 o         1 RLP     -0.666500
     15 N3          6.8730   -2.2590   -5.7770 ns        1 RLP     -0.621500
     16 C2          7.2420   -0.9660   -6.2240 c         1 RLP      0.848900
     17 O2          8.0380   -0.9070   -7.1940 o         1 RLP     -0.683500
     18 N1          6.7370    0.1820   -5.6040 nc        1 RLP     -0.495400
     19 C11         5.7520    2.5050   -4.3790 c3        1 RLP      0.035300
     20 C12         7.2010    2.9130   -4.0460 c3        1 RLP      0.105100
     21 O12         7.3730    2.7980   -2.6430 oh        1 RLP     -0.592800
     22 C13         7.4660    4.3840   -4.4420 c3        1 RLP      0.109100
     23 O13         6.7900    4.7900   -5.6230 oh        1 RLP     -0.604800
     24 C14         8.9650    4.5870   -4.7400 c3        1 RLP      0.144100
     25 O14         9.6610    4.2790   -3.5410 oh        1 RLP     -0.614800
     26 C15         9.2330    6.0350   -5.1600 c3        1 RLP      0.094400
     27 O15        10.6340    6.1400   -5.3730 oh        1 RLP     -0.617800
     28 H171        1.7780    0.4840   -2.5890 hc        1 RLP      0.078700
     29 H172        1.1980   -1.0040   -1.7250 hc        1 RLP      0.078700
     30 H161        3.2670   -1.4220   -0.7660 hc        1 RLP      0.057700
     31 H162        3.6100    0.3310   -0.4630 hc        1 RLP      0.057700
     32 HO8         2.4410    2.2020   -0.9000 ho        1 RLP      0.466000
     33 HN3         7.2560   -3.0480   -6.2450 hn        1 RLP      0.320500
     34 H111        5.6400    2.5670   -5.5000 h1        1 RLP      0.073200
     35 H112        5.0590    3.2490   -3.8900 h1        1 RLP      0.073200
     36 H121        7.9280    2.2450   -4.5850 h1        1 RLP      0.082700
     37 H12O        8.3190    2.9060   -2.4710 ho        1 RLP      0.415000
     38 H131        7.1630    5.0470   -3.5830 h1        1 RLP      0.054700
     39 H13O        5.8450    4.7150   -5.4420 ho        1 RLP      0.411000
     40 H141        9.2920    3.8910   -5.5620 h1        1 RLP      0.071700
     41 H14O       10.5960    4.4390   -3.7240 ho        1 RLP      0.422000
     42 H151        8.6660    6.2640   -6.1000 h1        1 RLP      0.042700
     43 H152        8.9230    6.7420   -4.3460 h1        1 RLP      0.042700
     44 H15O       10.7900    7.0110   -5.7540 ho        1 RLP      0.401000
@<TRIPOS>BOND
     1    1    2 2   
     2    2    3 1   
     3    2    4 1   
     4    3   32 1   
     5    4    5 1   
     6    4   28 1   
     7    4   29 1   
     8    5    6 1   
     9    5   30 1   
    10    5   31 1   
    11    6    7 2   
    12    6   12 1   
    13    7    8 1   
    14    7    9 1   
    15    9   10 1   
    16    9   19 1   
    17   10   11 1   
    18   10   18 2   
    19   11   12 2   
    20   11   13 1   
    21   13   14 2   
    22   13   15 1   
    23   15   16 1   
    24   15   33 1   
    25   16   17 2   
    26   16   18 1   
    27   19   20 1   
    28   19   34 1   
    29   19   35 1   
    30   20   21 1   
    31   20   22 1   
    32   20   36 1   
    33   21   37 1   
    34   22   23 1   
    35   22   24 1   
    36   22   38 1   
    37   23   39 1   
    38   24   25 1   
    39   24   26 1   
    40   24   40 1   
    41   25   41 1   
    42   26   27 1   
    43   26   42 1   
    44   26   43 1   
    45   27   44 1   
@<TRIPOS>SUBSTRUCTURE
     1 RLP         1 TEMP              0 ****  ****    0 ROOT
