@<TRIPOS>MOLECULE
RLP
   44    45     1     0     0
SMALL
bcc


@<TRIPOS>ATOM
      1 O19        -3.3630    0.6150   -5.7680 o         1 RLP     -0.534000
      2 C18        -2.8670    0.5330   -4.6400 c         1 RLP      0.632100
      3 O18        -3.7880    0.3840   -3.6470 oh        1 RLP     -0.603100
      4 C17        -1.4130    0.6060   -4.2870 c3        1 RLP     -0.173400
      5 C16        -0.9300   -0.6710   -3.6150 c3        1 RLP     -0.085700
      6 C7         -0.0400   -0.3670   -2.4510 cc        1 RLP      0.167600
      7 C8         -0.7250    0.1660   -1.2600 cd        1 RLP      0.238400
      8 O8         -1.9690    0.3360   -1.1810 o         1 RLP     -0.455000
      9 N9          0.0740    0.5130   -0.1540 n         1 RLP     -0.180100
     10 C10         1.4470    0.1880   -0.1460 cd        1 RLP      0.132400
     11 C5          2.0060   -0.3340   -1.3930 cd        1 RLP      0.088800
     12 N6          1.2640   -0.5880   -2.4970 nc        1 RLP     -0.486000
     13 C4          3.4570   -0.6040   -1.4190 c         1 RLP      0.638000
     14 O4          4.1010   -1.0080   -2.4080 o         1 RLP     -0.657500
     15 N3          4.1520   -0.3830   -0.2250 n         1 RLP     -0.619500
     16 C2          3.5240    0.0770    0.9590 c         1 RLP      0.849900
     17 O2          4.2470    0.2130    1.9750 o         1 RLP     -0.675500
     18 N1          2.1530    0.3660    0.9820 nc        1 RLP     -0.500400
     19 C11        -0.5470    1.1280    1.0020 c3        1 RLP     -0.006700
     20 C12        -1.0400    0.1160    2.0570 c3        1 RLP      0.101100
     21 O12        -2.4200   -0.1660    1.8500 oh        1 RLP     -0.633800
     22 C13        -0.9430    0.6840    3.4850 c3        1 RLP      0.115100
     23 O13         0.2120    1.4700    3.6860 oh        1 RLP     -0.601800
     24 C14        -0.9850   -0.4540    4.5290 c3        1 RLP      0.115100
     25 O14        -1.8390   -1.5130    4.1530 oh        1 RLP     -0.589800
     26 C15        -1.4060    0.1360    5.8810 c3        1 RLP      0.100400
     27 O15        -0.8970   -0.7160    6.8940 oh        1 RLP     -0.590800
     28 H171       -1.2740    1.4820   -3.5970 hc        1 RLP      0.078700
     29 H172       -0.8190    0.8020   -5.2170 hc        1 RLP      0.078700
     30 H161       -0.3990   -1.3110   -4.3680 hc        1 RLP      0.058700
     31 H162       -1.8080   -1.2600   -3.2310 hc        1 RLP      0.058700
     32 HO8        -3.3410    0.3340   -2.7830 ho        1 RLP      0.463000
     33 HN3         5.1290   -0.5640   -0.2000 hn        1 RLP      0.323500
     34 H111       -1.4410    1.7190    0.6420 h1        1 RLP      0.089200
     35 H112        0.1780    1.8510    1.4720 h1        1 RLP      0.089200
     36 H121       -0.4570   -0.8480    2.0080 h1        1 RLP      0.070700
     37 H12O       -2.5360   -0.3470    0.9060 ho        1 RLP      0.437000
     38 H131       -1.8040    1.3920    3.6550 h1        1 RLP      0.074700
     39 H13O        0.9790    0.9600    3.3840 ho        1 RLP      0.438000
     40 H141        0.0320   -0.9310    4.6290 h1        1 RLP      0.096700
     41 H14O       -2.6400   -1.1290    3.7720 ho        1 RLP      0.414000
     42 H151       -2.5250    0.1870    5.9500 h1        1 RLP      0.028200
     43 H152       -0.9730    1.1660    5.9930 h1        1 RLP      0.028200
     44 H15O       -1.1270   -0.3040    7.7340 ho        1 RLP      0.389000
@<TRIPOS>BOND
     1    1    2 2   
     2    2    3 1   
     3    2    4 1   
     4    3   32 1   
     5    4    5 1   
     6    4   28 1   
     7    4   29 1   
     8    5    6 1   
     9    5   30 1   
    10    5   31 1   
    11    6    7 2   
    12    6   12 1   
    13    7    8 1   
    14    7    9 1   
    15    9   10 1   
    16    9   19 1   
    17   10   11 1   
    18   10   18 2   
    19   11   12 2   
    20   11   13 1   
    21   13   14 2   
    22   13   15 1   
    23   15   16 1   
    24   15   33 1   
    25   16   17 2   
    26   16   18 1   
    27   19   20 1   
    28   19   34 1   
    29   19   35 1   
    30   20   21 1   
    31   20   22 1   
    32   20   36 1   
    33   21   37 1   
    34   22   23 1   
    35   22   24 1   
    36   22   38 1   
    37   23   39 1   
    38   24   25 1   
    39   24   26 1   
    40   24   40 1   
    41   25   41 1   
    42   26   27 1   
    43   26   42 1   
    44   26   43 1   
    45   27   44 1   
@<TRIPOS>SUBSTRUCTURE
     1 RLP         1 TEMP              0 ****  ****    0 ROOT
