@<TRIPOS>MOLECULE
RLT
   53    50     1     0     0
SMALL
bcc


@<TRIPOS>ATOM
      1 CAA        -9.1600   -1.1230    2.5260 c3        1 RLT     -0.132400
      2 CAB        -1.2180   -2.8450    0.6120 c3        1 RLT      0.143100
      3 CAC        -2.6120   -1.5420   -1.7890 c3        1 RLT     -0.108600
      4 CAD        -2.6860    0.9280   -1.2920 c3        1 RLT     -0.108600
      5 OAE         1.7650    2.8590   -0.6270 o         1 RLT     -0.600300
      6 OAF        -5.1030   -0.9370   -0.9260 o         1 RLT     -0.556100
      7 OAG         1.4470   -2.7640    1.3470 o         1 RLT     -0.627300
      8 OAH         3.2500   -0.6270    1.0790 oh        1 RLT     -0.485100
      9 FAI         9.4270    0.7360   -2.2220 f         1 RLT     -0.109100
     10 CAJ         7.1740    1.2880   -2.6470 c1        1 RLT     -0.069000
     11 CAK         8.1270    1.5690   -0.4350 c1        1 RLT     -0.113500
     12 CAL         5.9570    1.7870   -2.1860 c1        1 RLT     -0.069000
     13 CAM         6.9040    2.0700    0.0290 c1        1 RLT     -0.036500
     14 CAN         4.5430    2.7990   -0.2770 c3        1 RLT      0.093100
     15 NAO        -6.9080   -0.9110    3.1870 nc        1 RLT     -0.352000
     16 NAP        -5.6210   -0.8080    2.7500 nc        1 RLT     -0.317000
     17 NAQ        -0.0340    0.7070   -0.3300 n1        1 RLT     -0.468800
     18 NAR         3.6370    1.7470    0.1420 n         1 RLT     -0.535900
     19 NAS        -3.2640   -0.6840    0.4130 n         1 RLT     -0.549900
     20 OAT        -6.9160   -0.9840    1.0040 os        1 RLT     -0.343800
     21 CAU         2.2280    1.8240   -0.2120 c2        1 RLT      0.695300
     22 CAV        -4.6710   -0.8120    0.1980 c         1 RLT      0.609600
     23 CAW        -7.7020   -1.0180    2.1140 cd        1 RLT      0.482700
     24 CAX         8.2610    1.1780   -1.7740 c1        1 RLT      0.097100
     25 CAY         5.8200    2.1800   -0.8430 c1        1 RLT     -0.107100
     26 CAZ         1.8670   -0.5770    0.6670 ce        1 RLT     -0.069200
     27 CBA        -5.6340   -0.8540    1.4040 cd        1 RLT      0.378900
     28 CBB         1.3330    0.6370    0.0100 c1        1 RLT      0.014100
     29 CBC        -0.8860   -0.4880   -0.2060 c1        1 RLT      0.432700
     30 CBD         0.9860   -1.7290    0.9020 ce        1 RLT      0.574500
     31 NBE        -0.3820   -1.6730    0.4900 n2        1 RLT     -0.364200
     32 CBF        -2.3850   -0.4430   -0.7010 c3        1 RLT      0.155500
     33 HAA        -9.3280   -0.5270    3.2780 hc        1 RLT      0.081367
     34 HAAA       -9.3590   -2.0450    2.7890 hc        1 RLT      0.081367
     35 HAAB       -9.7330   -0.8670    1.7710 hc        1 RLT      0.081367
     36 HAB        -2.0910   -2.5890    1.0110 h1        1 RLT      0.070367
     37 HABA       -0.7720   -3.5070    1.1920 h1        1 RLT      0.070367
     38 HABB       -1.3650   -3.2360   -0.2780 h1        1 RLT      0.070367
     39 HAC        -1.7520   -1.8420   -2.1320 hc        1 RLT      0.062033
     40 HACA       -3.1520   -1.1650   -2.5320 hc        1 RLT      0.062033
     41 HACB       -3.0880   -2.3020   -1.3910 hc        1 RLT      0.062033
     42 HAD        -2.6960    1.5970   -0.5760 hc        1 RLT      0.062033
     43 HADA       -3.5670    0.9080   -1.7360 hc        1 RLT      0.062033
     44 HADB       -1.9860    1.1630   -1.9550 hc        1 RLT      0.062033
     45 HOAH        3.2990   -0.9130    1.9150 ho        1 RLT      0.459000
     46 HAJ         7.2680    1.0160   -3.5810 ha        1 RLT      0.098500
     47 HAK         8.8830    1.4920    0.1720 ha        1 RLT      0.090500
     48 HAL         5.2060    1.8630   -2.7900 ha        1 RLT      0.098500
     49 HAM         6.8110    2.3420    0.9560 ha        1 RLT      0.077500
     50 HAN         4.7690    3.3660    0.4990 h1        1 RLT      0.071700
     51 HANA        4.1100    3.3470   -0.9690 h1        1 RLT      0.071700
     52 HNAR        3.9380    1.0740    0.6950 hn        1 RLT      0.316500
     53 HNAS       -2.9380   -0.6650    1.2550 hn        1 RLT      0.335500
@<TRIPOS>BOND
     1    1   23 1   
     2    1   33 1   
     3    1   34 1   
     4    1   35 1   
     5    2   31 1   
     6    2   36 1   
     7    2   37 1   
     8    2   38 1   
     9    3   32 1   
    10    3   39 1   
    11    3   40 1   
    12    3   41 1   
    13    4   32 1   
    14    4   42 1   
    15    4   43 1   
    16    4   44 1   
    17    5   21 1   
    18    6   22 2   
    19    7   30 1   
    20    8   26 1   
    21    8   45 1   
    22    9   24 1   
    23   10   12 3   
    24   10   46 1   
    25   11   24 3   
    26   11   47 1   
    27   12   48 1   
    28   13   25 3   
    29   13   49 1   
    30   14   18 1   
    31   14   25 1   
    32   14   50 1   
    33   14   51 1   
    34   15   16 1   
    35   15   23 2   
    36   16   27 2   
    37   17   29 3   
    38   18   21 1   
    39   18   52 1   
    40   19   22 1   
    41   19   32 1   
    42   19   53 1   
    43   20   23 1   
    44   20   27 1   
    45   21   28 2   
    46   22   27 1   
    47   26   28 2   
    48   26   30 1   
    49   29   32 1   
    50   30   31 2   
@<TRIPOS>SUBSTRUCTURE
     1 RLT         1 TEMP              0 ****  ****    0 ROOT
