@<TRIPOS>MOLECULE
RLT
   55    55     1     0     0
SMALL
bcc


@<TRIPOS>ATOM
      1 CAA        -0.9810   -0.1410    0.2870 c1        1 RLT      0.043000
      2 CAB         7.8300   -1.9620   -0.8520 c2        1 RLT      0.170000
      3 CAC         6.6850   -1.5290   -3.6890 c3        1 RLT     -0.242500
      4 CAD         6.8580    0.8410   -4.2870 c3        1 RLT     -0.242500
      5 OAE        12.2420    2.4610   -1.8910 o         1 RLT     -0.207000
      6 OAF         4.8570   -1.7500   -1.6340 o         1 RLT     -0.353000
      7 OAG        10.5510   -2.3440   -0.8350 o         1 RLT     -0.099000
      8 CAJ        10.2620    7.6350   -5.4140 ca        1 RLT     -0.150500
      9 CAK         8.9040    5.7840   -5.6960 ca        1 RLT     -0.150500
     10 CAL        10.8690    6.8300   -4.3470 ca        1 RLT     -0.116500
     11 CAM        10.0250    5.0070   -5.5140 ca        1 RLT     -0.116500
     12 CAN        11.3670    4.5500   -3.3450 c3        1 RLT     -0.041000
     13 NAO         2.0140    1.6760   -0.8710 n2        1 RLT     -0.141000
     14 NAP         3.2380    1.5370   -1.3040 n2        1 RLT     -0.016000
     15 NAQ         9.0270    0.9640   -2.5880 n2        1 RLT     -0.128000
     16 NAR        10.4420    3.3890   -3.0600 ny        1 RLT     -0.078000
     17 NAS         5.8470    0.2820   -2.1060 ns        1 RLT     -0.392000
     18 OAT         2.4360   -0.5130   -0.8520 os        1 RLT     -0.075000
     19 CAV         4.7520   -0.5110   -1.7100 c2        1 RLT      0.421000
     20 CAW         1.4890    0.4510   -0.5870 c2        1 RLT     -0.116000
     21 CAX         9.3020    7.1030   -6.2530 ca        1 RLT      0.171000
     22 CAY        10.7150    5.4680   -4.2950 ca        1 RLT     -0.220000
     23 CAZ        10.9030   -0.0150   -1.3970 c2        1 RLT      0.179000
     24 CBA         3.5510    0.2150   -1.3140 c2        1 RLT     -0.218000
     25 CBB        10.3260    1.0470   -2.0720 c2        1 RLT     -0.230000
     26 CBC         8.2490   -0.0500   -2.3660 c2        1 RLT      0.092000
     27 CBD        10.0980   -1.2710   -1.2030 c2        1 RLT      0.288000
     28 NBE         8.6520   -1.1420   -1.4690 n         1 RLT     -0.164000
     29 CBF         6.8320   -0.1290   -3.0790 c3        1 RLT      0.149000
     30 HAA         0.3650    0.1000   -0.1720 h5        1 RLT      0.347000
     31 HAAA       -1.2470   -0.1250    1.3510 ha        1 RLT      0.096500
     32 HAAB       -1.8150   -0.2820   -0.4120 ha        1 RLT      0.096500
     33 HAB         5.5160   -4.0840   -1.4380 ha        1 RLT      0.003000
     34 HABA        6.1660   -3.9090   -1.3420 ha        1 RLT      0.003000
     35 HABB        8.2470   -2.7700   -0.1980 h4        1 RLT      0.247000
     36 HAC         6.6190   -2.3550   -2.9410 hc        1 RLT      0.116167
     37 HACA        7.5440   -1.7230   -4.3760 hc        1 RLT      0.116167
     38 HACB        5.7380   -1.5660   -4.2880 hc        1 RLT      0.116167
     39 HAD         5.8960    0.7350   -4.8490 hc        1 RLT      0.116167
     40 HADA        6.9600    1.9070   -3.9710 hc        1 RLT      0.116167
     41 HADB        7.6960    0.5760   -4.9740 hc        1 RLT      0.116167
     42 HOAH       12.6860    0.6440   -1.0180 ho        1 RLT      0.308000
     43 HAJ        10.5970    8.6790   -5.5210 ha        1 RLT      0.172500
     44 HAK         8.0350    5.7960   -5.0210 ha        1 RLT      0.172500
     45 HAL        11.4930    7.3750   -3.6190 ha        1 RLT      0.162500
     46 HAM        10.6820    4.7290   -6.3570 ha        1 RLT      0.162500
     47 HAN        12.3140    4.1170   -3.7880 hx        1 RLT      0.158000
     48 HANA       11.6210    5.0490   -2.3660 hx        1 RLT      0.158000
     49 HNAR        9.6280    3.7260   -2.5290 hn        1 RLT      0.277000
     50 HNAS        5.6800    1.2710   -2.1160 hn        1 RLT      0.253000
     51 CAU        11.0950    2.2870   -2.2980 c2        1 RLT      0.326000
     52 HAR2       10.0940    3.0310   -3.9670 hn        1 RLT      0.277000
     53 HAS2        6.7120   -1.9040   -0.9430 h4        1 RLT      0.247000
     54 OAH        12.1200   -0.1460   -0.8670 oh        1 RLT     -0.145000
     55 FAI         8.7220    7.7190   -7.2750 f         1 RLT     -0.031000
@<TRIPOS>BOND
     1    1   31 1   
     2    1   32 1   
     3    2   28 1   
     4    2   35 1   
     5    2   53 1   
     6    3   29 1   
     7    3   36 1   
     8    3   37 1   
     9    3   38 1   
    10    4   29 1   
    11    4   39 1   
    12    4   40 1   
    13    4   41 1   
    14    5   51 1   
    15    6   19 1   
    16    7   27 1   
    17    8   10 1   
    18    8   21 1   
    19    8   43 1   
    20    9   11 1   
    21    9   21 1   
    22    9   44 1   
    23   10   22 1   
    24   10   45 1   
    25   11   22 1   
    26   11   46 1   
    27   12   16 1   
    28   12   22 1   
    29   12   47 1   
    30   12   48 1   
    31   13   14 1   
    32   13   20 1   
    33   14   24 1   
    34   15   25 1   
    35   15   26 1   
    36   16   49 1   
    37   16   51 1   
    38   16   52 1   
    39   17   19 1   
    40   17   29 1   
    41   17   50 1   
    42   18   20 1   
    43   18   24 1   
    44   19   24 1   
    45   20   30 1   
    46   21   55 1   
    47   23   25 1   
    48   23   27 1   
    49   23   54 1   
    50   25   51 1   
    51   26   28 1   
    52   26   29 1   
    53   27   28 1   
    54   33   34 1   
    55   42   54 1   
@<TRIPOS>SUBSTRUCTURE
     1 RLT         1 TEMP              0 ****  ****    0 ROOT
