@<TRIPOS>MOLECULE
RLT
   55    56     1     0     0
SMALL
bcc


@<TRIPOS>ATOM
      1 CAA         0.2090    0.6820   -0.4960 c3        1 RLT     -0.167400
      2 CAB         8.4280   -2.2580   -0.6530 c1        1 RLT      0.079500
      3 CAC         6.9850   -2.0660   -3.3710 c3        1 RLT     -0.133100
      4 CAD         6.9830    0.2540   -4.2320 c3        1 RLT     -0.133100
      5 OAE        12.1000    2.6410   -1.7350 o         1 RLT     -0.462100
      6 OAF         4.3300   -0.8960   -3.4860 o         1 RLT     -0.372100
      7 OAG        11.1460   -2.4320   -1.3410 o         1 RLT     -0.356500
      8 CAJ         9.8470    7.5630   -5.4210 ca        1 RLT     -0.148000
      9 CAK         8.4130    5.7470   -5.4280 ca        1 RLT     -0.148000
     10 CAL        10.5600    6.7940   -4.3920 ca        1 RLT     -0.122000
     11 CAM         9.5270    4.9430   -5.3410 ca        1 RLT     -0.122000
     12 CAN        11.1140    4.5600   -3.3220 c3        1 RLT      0.199100
     13 NAO         2.6670    1.1740    0.2110 nc        1 RLT     -0.324000
     14 NAP         3.8220    0.8930   -0.3040 nc        1 RLT     -0.255000
     15 NAQ         9.0640    0.8140   -2.4760 nc        1 RLT     -0.552300
     16 NAR        10.2540    3.3760   -2.9540 n4        1 RLT     -0.645800
     17 NAS         6.0140   -0.1960   -1.9620 n4        1 RLT     -0.682800
     18 OAT         2.2610    0.0330   -1.6880 os        1 RLT     -0.303800
     19 CAV         4.5710   -0.3520   -2.4240 c         1 RLT      0.519600
     20 CAW         1.6730    0.6660   -0.5960 cd        1 RLT      0.598700
     21 CAX         8.7750    7.0210   -6.1020 ca        1 RLT      0.196900
     22 CAY        10.3760    5.4440   -4.2430 ca        1 RLT     -0.219300
     23 CAZ        11.1090   -0.0240   -1.4480 cd        1 RLT      0.225900
     24 CBA         3.6390    0.1980   -1.4640 cd        1 RLT      0.249900
     25 CBB        10.3730    1.0160   -2.0140 cc        1 RLT     -0.166600
     26 CBC         8.4680   -0.3330   -2.2600 cd        1 RLT      0.330900
     27 CBD        10.4890   -1.4090   -1.4000 c         1 RLT      0.693700
     28 NBE         9.0340   -1.3920   -1.4460 n         1 RLT     -0.276900
     29 CBF         7.0980   -0.5950   -2.9560 c3        1 RLT      0.151900
     30 HAA        -0.1520    1.7440   -0.4430 hc        1 RLT      0.118033
     31 HAAA       -0.1060    0.1550    0.4450 hc        1 RLT      0.118033
     32 HAAB       -0.2550    0.1740   -1.3800 hc        1 RLT      0.118033
     33 HAB         7.3200   -2.2540   -0.5990 ha        1 RLT     -0.009500
     34 HABA        5.1550   -2.7190   -0.8520 ha        1 RLT      0.002000
     35 HABB        5.0100   -3.3080   -0.5440 ha        1 RLT      0.002000
     36 HAC         6.7860   -2.7570   -2.5160 hc        1 RLT      0.093033
     37 HACA        7.9380   -2.3740   -3.8700 hc        1 RLT      0.093033
     38 HACB        6.1530   -2.1930   -4.1130 hc        1 RLT      0.093033
     39 HAD         6.0510   -0.0140   -4.7940 hc        1 RLT      0.093033
     40 HADA        6.9700    1.3490   -4.0170 hc        1 RLT      0.093033
     41 HADB        7.8560    0.0230   -4.8910 hc        1 RLT      0.093033
     42 HOAH       12.7750    0.8570   -0.9880 ho        1 RLT      0.502000
     43 HAJ        10.1960    8.5860   -5.6270 ha        1 RLT      0.170500
     44 HAK         7.6390    5.8250   -4.6510 ha        1 RLT      0.170500
     45 HAL        11.2850    7.3550   -3.7780 ha        1 RLT      0.162500
     46 HAM        10.0670    4.6040   -6.2420 ha        1 RLT      0.162500
     47 HAN        12.0460    4.1510   -3.8160 hx        1 RLT      0.120200
     48 HANA       11.4170    5.0880   -2.3720 hx        1 RLT      0.120200
     49 HNAR        9.4570    3.7000   -2.3940 hn        1 RLT      0.473300
     50 HNAS        6.1590    0.7900   -1.7100 hn        1 RLT      0.469300
     51 CAU        10.9950    2.3330   -2.1810 c         1 RLT      0.585300
     52 HAR2        9.8810    2.9700   -3.8280 hn        1 RLT      0.473300
     53 HAS2        6.1100   -0.7680   -1.1100 hn        1 RLT      0.469300
     54 OAH        12.3370   -0.0240   -0.9480 oh        1 RLT     -0.374100
     55 FAI         8.0850    7.6030   -7.0750 f         1 RLT     -0.068900
@<TRIPOS>BOND
     1    1   20 1   
     2    1   30 1   
     3    1   31 1   
     4    1   32 1   
     5    2   28 3   
     6    2   33 1   
     7    3   29 1   
     8    3   36 1   
     9    3   37 1   
    10    3   38 1   
    11    4   29 1   
    12    4   39 1   
    13    4   40 1   
    14    4   41 1   
    15    5   51 2   
    16    6   19 2   
    17    7   27 2   
    18    8   10 ar  
    19    8   21 ar  
    20    8   43 1   
    21    9   11 ar  
    22    9   21 ar  
    23    9   44 1   
    24   10   22 ar  
    25   10   45 1   
    26   11   22 ar  
    27   11   46 1   
    28   12   16 1   
    29   12   22 1   
    30   12   47 1   
    31   12   48 1   
    32   13   14 1   
    33   13   20 2   
    34   14   24 2   
    35   15   25 1   
    36   15   26 2   
    37   16   49 1   
    38   16   51 1   
    39   16   52 1   
    40   17   19 1   
    41   17   29 1   
    42   17   50 1   
    43   17   53 1   
    44   18   20 1   
    45   18   24 1   
    46   19   24 1   
    47   21   55 1   
    48   23   25 2   
    49   23   27 1   
    50   23   54 1   
    51   25   51 1   
    52   26   28 1   
    53   26   29 1   
    54   27   28 1   
    55   34   35 1   
    56   42   54 1   
@<TRIPOS>SUBSTRUCTURE
     1 RLT         1 TEMP              0 ****  ****    0 ROOT
