@<TRIPOS>MOLECULE
RLT
   53    55     1     0     0
SMALL
bcc


@<TRIPOS>ATOM
      1 CAA         7.1640    3.7530   -1.1880 c3        1 RLT     -0.132400
      2 CAB         2.7880   -2.8960    0.7550 c3        1 RLT      0.056300
      3 CAC         2.1490   -0.7500    2.6890 c3        1 RLT     -0.108100
      4 CAD         0.5590    0.8980    1.7800 c3        1 RLT     -0.108100
      5 OAE        -2.9850   -1.8420   -1.9140 o         1 RLT     -0.577100
      6 OAF         3.8030    1.4200    1.9920 o         1 RLT     -0.559100
      7 OAG         1.1890   -4.7820   -0.3920 o         1 RLT     -0.632500
      8 CAJ        -4.5330    2.5180   -1.6430 ca        1 RLT     -0.169500
      9 CAK        -5.6790    2.7770    0.4970 ca        1 RLT     -0.169500
     10 CAL        -4.4240    1.1520   -1.4070 ca        1 RLT     -0.091000
     11 CAM        -5.5570    1.4080    0.7160 ca        1 RLT     -0.091000
     12 CAN        -4.8300   -0.8920   -0.0100 c3        1 RLT      0.128300
     13 NAO         5.2090    2.3710   -2.1800 nc        1 RLT     -0.351000
     14 NAP         4.2320    1.6670   -1.6430 nc        1 RLT     -0.314000
     15 NAQ        -0.4870   -1.1440    0.3240 nc        1 RLT     -0.598300
     16 NAR        -3.5050   -1.3740    0.2870 n         1 RLT     -0.539900
     17 NAS         2.5350    0.2690    0.4250 n         1 RLT     -0.550900
     18 OAT         5.4420    2.5080    0.0490 os        1 RLT     -0.343800
     19 CAV         3.5310    1.1450    0.8110 c         1 RLT      0.609600
     20 CAW         5.9680    2.8990   -1.1900 cd        1 RLT      0.483700
     21 CAX        -5.1640    3.3360   -0.6860 ca        1 RLT      0.129900
     22 CAY        -4.9340    0.5900   -0.2300 ca        1 RLT     -0.142300
     23 CAZ        -0.7250   -3.3760   -0.5410 cd        1 RLT      0.035900
     24 CBA         4.3350    1.7230   -0.2980 cd        1 RLT      0.378900
     25 CBB        -1.2420   -2.1250   -0.2960 cc        1 RLT      0.043400
     26 CBC         0.7680   -1.3910    0.6700 cd        1 RLT      0.447900
     27 CBD         0.6790   -3.6630   -0.1750 c         1 RLT      0.646700
     28 NBE         1.4150   -2.6150    0.4140 n         1 RLT     -0.352300
     29 CBF         1.5410   -0.2260    1.3770 c3        1 RLT      0.109100
     30 HAA         6.9350    4.7210   -1.7030 hc        1 RLT      0.081367
     31 HAAA        7.4880    3.9600   -0.1380 hc        1 RLT      0.081367
     32 HAAB        7.9940    3.2400   -1.7380 hc        1 RLT      0.081367
     33 HAB         2.8610   -3.1730    1.8410 h1        1 RLT      0.069700
     34 HABA        3.1490   -3.7700    0.1430 h1        1 RLT      0.069700
     35 HABB        3.4500   -2.0210    0.5370 h1        1 RLT      0.069700
     36 HAC         1.4700   -1.5150    3.1340 hc        1 RLT      0.060200
     37 HACA        3.1640   -1.1890    2.5460 hc        1 RLT      0.060200
     38 HACB        2.2640    0.0980    3.4110 hc        1 RLT      0.060200
     39 HAD         1.1320    1.7080    2.2980 hc        1 RLT      0.060200
     40 HADA        0.0430    1.3400    0.8960 hc        1 RLT      0.060200
     41 HADB       -0.2040    0.4930    2.4840 hc        1 RLT      0.060200
     42 HOAH       -0.8890   -5.1280   -1.2660 ho        1 RLT      0.453000
     43 HAJ        -4.1360    2.9650   -2.5660 ha        1 RLT      0.150000
     44 HAK        -6.1720    3.4240    1.2370 ha        1 RLT      0.150000
     45 HAL        -3.9340    0.4980   -2.1490 ha        1 RLT      0.148500
     46 HAM        -5.9620    0.9710    1.6410 ha        1 RLT      0.148500
     47 HAN        -5.1980   -1.4200   -0.9390 h1        1 RLT      0.071700
     48 HANA       -5.4920   -1.1910    0.8540 h1        1 RLT      0.071700
     49 HNAR       -3.1100   -1.0800    1.1500 hn        1 RLT      0.314500
     50 HNAS        2.2530    0.2600   -0.5310 hn        1 RLT      0.338500
     51 OAH        -1.4770   -4.3700   -1.0880 oh        1 RLT     -0.453100
     52 CAU        -2.6390   -1.7530   -0.7240 c         1 RLT      0.696300
     53 FAI        -5.2760    4.6680   -0.9060 f         1 RLT     -0.140900
@<TRIPOS>BOND
     1    1   20 1   
     2    1   30 1   
     3    1   31 1   
     4    1   32 1   
     5    2   28 1   
     6    2   33 1   
     7    2   34 1   
     8    2   35 1   
     9    3   29 1   
    10    3   36 1   
    11    3   37 1   
    12    3   38 1   
    13    4   29 1   
    14    4   39 1   
    15    4   40 1   
    16    4   41 1   
    17    5   52 2   
    18    6   19 2   
    19    7   27 2   
    20    8   10 ar  
    21    8   21 ar  
    22    8   43 1   
    23    9   11 ar  
    24    9   21 ar  
    25    9   44 1   
    26   10   22 ar  
    27   10   45 1   
    28   11   22 ar  
    29   11   46 1   
    30   12   16 1   
    31   12   22 1   
    32   12   47 1   
    33   12   48 1   
    34   13   14 1   
    35   13   20 2   
    36   14   24 2   
    37   15   25 1   
    38   15   26 2   
    39   16   49 1   
    40   16   52 1   
    41   17   19 1   
    42   17   29 1   
    43   17   50 1   
    44   18   20 1   
    45   18   24 1   
    46   19   24 1   
    47   21   53 1   
    48   23   25 2   
    49   23   27 1   
    50   23   51 1   
    51   25   52 1   
    52   26   28 1   
    53   26   29 1   
    54   27   28 1   
    55   42   51 1   
@<TRIPOS>SUBSTRUCTURE
     1 RLT         1 TEMP              0 ****  ****    0 ROOT
