@<TRIPOS>MOLECULE
RM1
   25    26     1     0     0
SMALL
bcc


@<TRIPOS>ATOM
      1 C10         0.1520   -0.0610   -0.4360 c3        1 RM1      0.078100
      2 N10         1.5760   -0.0740   -0.0420 ny        1 RM1     -0.763000
      3 C9          1.7740   -0.0300    1.4610 c3        1 RM1      0.186800
      4 C8          1.9150   -1.4140    2.0260 ca        1 RM1     -0.195300
      5 C7          0.9610   -2.4210    2.0940 ca        1 RM1     -0.090000
      6 C6          1.3110   -3.6330    2.6990 ca        1 RM1     -0.123000
      7 C5          2.5870   -3.8200    3.2300 ca        1 RM1     -0.075000
      8 C4          3.5440   -2.7990    3.1790 ca        1 RM1     -0.107000
      9 C3          3.2030   -1.5960    2.5790 ca        1 RM1     -0.051300
     10 C2          4.0290   -0.3630    2.4480 c3        1 RM1     -0.048100
     11 C1          3.0920    0.6940    1.8530 c3        1 RM1     -0.100400
     12 H101        0.0750   -0.1400   -1.5550 hx        1 RM1      0.107033
     13 H102       -0.3760   -0.9320    0.0380 hx        1 RM1      0.107033
     14 H103       -0.3280    0.8950   -0.0950 hx        1 RM1      0.107033
     15 H10         2.0220   -0.9270   -0.4030 hn        1 RM1      0.451800
     16 H9          0.8820    0.5100    1.8900 hx        1 RM1      0.114700
     17 H7         -0.0560   -2.2780    1.7000 ha        1 RM1      0.134000
     18 H6          0.5660   -4.4420    2.7630 ha        1 RM1      0.160000
     19 H5          2.8450   -4.7820    3.7050 ha        1 RM1      0.162000
     20 H4          4.5440   -2.9480    3.6140 ha        1 RM1      0.163000
     21 H2C1        4.4150   -0.0300    3.4470 hc        1 RM1      0.086700
     22 H2C2        4.9160   -0.5410    1.7860 hc        1 RM1      0.086700
     23 H1C1        3.5790    1.2200    0.9950 hc        1 RM1      0.078700
     24 H1C2        2.8430    1.4680    2.6240 hc        1 RM1      0.078700
     25 H104        2.0490    0.7350   -0.4620 hn        1 RM1      0.451800
@<TRIPOS>BOND
     1    1    2 1   
     2    1   12 1   
     3    1   13 1   
     4    1   14 1   
     5    2    3 1   
     6    2   15 1   
     7    2   25 1   
     8    3    4 1   
     9    3   11 1   
    10    3   16 1   
    11    4    5 ar  
    12    4    9 ar  
    13    5    6 ar  
    14    5   17 1   
    15    6    7 ar  
    16    6   18 1   
    17    7    8 ar  
    18    7   19 1   
    19    8    9 ar  
    20    8   20 1   
    21    9   10 1   
    22   10   11 1   
    23   10   21 1   
    24   10   22 1   
    25   11   23 1   
    26   11   24 1   
@<TRIPOS>SUBSTRUCTURE
     1 RM1         1 TEMP              0 ****  ****    0 ROOT
