@<TRIPOS>MOLECULE
RM1
   24    25     1     0     0
SMALL
bcc


@<TRIPOS>ATOM
      1 C10        -2.7640    1.6400    0.1210 c3        1 RM1      0.156100
      2 N10        -2.3450    0.3130    0.4770 n3        1 RM1     -0.824200
      3 C9         -1.3650   -0.2990   -0.4000 c3        1 RM1      0.225800
      4 C8          0.0670    0.1760   -0.2620 ca        1 RM1     -0.130300
      5 C7          0.5730    1.4560   -0.4280 ca        1 RM1     -0.112000
      6 C6          1.9490    1.6680   -0.2660 ca        1 RM1     -0.136000
      7 C5          2.7970    0.6110    0.0510 ca        1 RM1     -0.126000
      8 C4          2.2920   -0.6860    0.2070 ca        1 RM1     -0.122000
      9 C3          0.9310   -0.8970    0.0480 ca        1 RM1     -0.076300
     10 C2          0.1840   -2.1820    0.1490 c3        1 RM1     -0.041100
     11 C1         -1.2730   -1.8400   -0.1730 c3        1 RM1     -0.076400
     12 H101       -3.1080    1.6540   -0.9470 h1        1 RM1      0.029033
     13 H102       -3.6310    1.9170    0.7790 h1        1 RM1      0.029033
     14 H103       -1.9670    2.4240    0.2430 h1        1 RM1      0.029033
     15 H10        -2.0360    0.2760    1.4300 hn        1 RM1      0.366800
     16 H9         -1.7000   -0.1120   -1.4630 h1        1 RM1      0.065700
     17 H7         -0.0850    2.2960   -0.6910 ha        1 RM1      0.133000
     18 H6          2.3590    2.6800   -0.3930 ha        1 RM1      0.130000
     19 H5          3.8750    0.7910    0.1760 ha        1 RM1      0.130000
     20 H4          2.9660   -1.5200    0.4490 ha        1 RM1      0.133000
     21 H2C1        0.2790   -2.6150    1.1770 hc        1 RM1      0.054200
     22 H2C2        0.5890   -2.9350   -0.5750 hc        1 RM1      0.054200
     23 H1C1       -1.9440   -2.1770    0.6540 hc        1 RM1      0.053700
     24 H1C2       -1.6000   -2.3590   -1.1060 hc        1 RM1      0.053700
@<TRIPOS>BOND
     1    1    2 1   
     2    1   12 1   
     3    1   13 1   
     4    1   14 1   
     5    2    3 1   
     6    2   15 1   
     7    3    4 1   
     8    3   11 1   
     9    3   16 1   
    10    4    5 ar  
    11    4    9 ar  
    12    5    6 ar  
    13    5   17 1   
    14    6    7 ar  
    15    6   18 1   
    16    7    8 ar  
    17    7   19 1   
    18    8    9 ar  
    19    8   20 1   
    20    9   10 1   
    21   10   11 1   
    22   10   21 1   
    23   10   22 1   
    24   11   23 1   
    25   11   24 1   
@<TRIPOS>SUBSTRUCTURE
     1 RM1         1 TEMP              0 ****  ****    0 ROOT
