@<TRIPOS>MOLECULE
RM1
   25    26     1     0     0
SMALL
bcc


@<TRIPOS>ATOM
      1 C10         0.1500   -0.0550   -0.4320 c3        1 RM1      0.078100
      2 N10         1.5750   -0.0690   -0.0400 n4        1 RM1     -0.763000
      3 C9          1.7750   -0.0310    1.4630 c3        1 RM1      0.186800
      4 C8          1.9170   -1.4160    2.0230 ca        1 RM1     -0.195300
      5 C7          0.9640   -2.4240    2.0880 ca        1 RM1     -0.090000
      6 C6          1.3150   -3.6380    2.6880 ca        1 RM1     -0.123000
      7 C5          2.5930   -3.8270    3.2170 ca        1 RM1     -0.075000
      8 C4          3.5490   -2.8040    3.1690 ca        1 RM1     -0.107000
      9 C3          3.2060   -1.5990    2.5730 ca        1 RM1     -0.051300
     10 C2          4.0310   -0.3650    2.4470 c3        1 RM1     -0.048100
     11 C1          3.0920    0.6930    1.8560 c3        1 RM1     -0.100400
     12 H101       -0.3300    0.9000   -0.0870 hx        1 RM1      0.107033
     13 H102       -0.3780   -0.9280    0.0400 hx        1 RM1      0.107033
     14 H103        0.0720   -0.1300   -1.5510 hx        1 RM1      0.107033
     15 H10         2.0200   -0.9210   -0.4040 hn        1 RM1      0.451800
     16 H9          0.8830    0.5070    1.8950 hx        1 RM1      0.114700
     17 H7         -0.0530   -2.2810    1.6960 ha        1 RM1      0.134000
     18 H6          0.5710   -4.4480    2.7500 ha        1 RM1      0.160000
     19 H5          2.8520   -4.7890    3.6890 ha        1 RM1      0.162000
     20 H4          4.5490   -2.9540    3.6020 ha        1 RM1      0.163000
     21 H2C1        4.4180   -0.0350    3.4460 hc        1 RM1      0.086700
     22 H2C2        4.9170   -0.5400    1.7830 hc        1 RM1      0.086700
     23 H1C1        3.5780    1.2220    0.9990 hc        1 RM1      0.078700
     24 H1C2        2.8440    1.4650    2.6300 hc        1 RM1      0.078700
     25 H104        2.0460    0.7420   -0.4580 hn        1 RM1      0.451800
@<TRIPOS>BOND
     1    1    2 1   
     2    1   12 1   
     3    1   13 1   
     4    1   14 1   
     5    2    3 1   
     6    2   15 1   
     7    2   25 1   
     8    3    4 1   
     9    3   11 1   
    10    3   16 1   
    11    4    5 ar  
    12    4    9 ar  
    13    5    6 ar  
    14    5   17 1   
    15    6    7 ar  
    16    6   18 1   
    17    7    8 ar  
    18    7   19 1   
    19    8    9 ar  
    20    8   20 1   
    21    9   10 1   
    22   10   11 1   
    23   10   21 1   
    24   10   22 1   
    25   11   23 1   
    26   11   24 1   
@<TRIPOS>SUBSTRUCTURE
     1 RM1         1 TEMP              0 ****  ****    0 ROOT
