@<TRIPOS>MOLECULE
RM1
   25    26     1     0     0
SMALL
bcc


@<TRIPOS>ATOM
      1 C10         0.0910   -0.0330   -0.3630 c3        1 RM1      0.078100
      2 N10         1.5270   -0.0520   -0.0140 n4        1 RM1     -0.763000
      3 C9          1.7720   -0.0270    1.4830 c3        1 RM1      0.186800
      4 C8          1.9260   -1.4180    2.0270 ca        1 RM1     -0.195300
      5 C7          0.9720   -2.4220    2.1130 ca        1 RM1     -0.090000
      6 C6          1.3370   -3.6420    2.6930 ca        1 RM1     -0.123000
      7 C5          2.6290   -3.8400    3.1820 ca        1 RM1     -0.075000
      8 C4          3.5870   -2.8200    3.1120 ca        1 RM1     -0.107000
      9 C3          3.2300   -1.6090    2.5370 ca        1 RM1     -0.051300
     10 C2          4.0560   -0.3770    2.3950 c3        1 RM1     -0.048100
     11 C1          3.1030    0.6890    1.8430 c3        1 RM1     -0.100400
     12 H101       -0.0200   -0.0980   -1.4800 hx        1 RM1      0.107033
     13 H102       -0.4230   -0.9080    0.1170 hx        1 RM1      0.107033
     14 H103       -0.3760    0.9200    0.0050 hx        1 RM1      0.107033
     15 H10         1.9600   -0.9020   -0.3980 hn        1 RM1      0.451800
     16 H9          0.8950    0.5100    1.9460 hx        1 RM1      0.114700
     17 H7         -0.0560   -2.2720    1.7540 ha        1 RM1      0.134000
     18 H6          0.5920   -4.4510    2.7710 ha        1 RM1      0.160000
     19 H5          2.8980   -4.8070    3.6380 ha        1 RM1      0.162000
     20 H4          4.5990   -2.9770    3.5140 ha        1 RM1      0.163000
     21 H2C1        4.4740   -0.0570    3.3850 hc        1 RM1      0.086700
     22 H2C2        4.9200   -0.5490    1.7040 hc        1 RM1      0.086700
     23 H1C1        3.5650    1.2240    0.9770 hc        1 RM1      0.078700
     24 H1C2        2.8810    1.4540    2.6300 hc        1 RM1      0.078700
     25 H104        1.9880    0.7610   -0.4380 hn        1 RM1      0.451800
@<TRIPOS>BOND
     1    1    2 1   
     2    1   12 1   
     3    1   13 1   
     4    1   14 1   
     5    2    3 1   
     6    2   15 1   
     7    2   25 1   
     8    3    4 1   
     9    3   11 1   
    10    3   16 1   
    11    4    5 ar  
    12    4    9 ar  
    13    5    6 ar  
    14    5   17 1   
    15    6    7 ar  
    16    6   18 1   
    17    7    8 ar  
    18    7   19 1   
    19    8    9 ar  
    20    8   20 1   
    21    9   10 1   
    22   10   11 1   
    23   10   21 1   
    24   10   22 1   
    25   11   23 1   
    26   11   24 1   
@<TRIPOS>SUBSTRUCTURE
     1 RM1         1 TEMP              0 ****  ****    0 ROOT
