@<TRIPOS>MOLECULE
RM2
   27    28     1     0     0
SMALL
bcc


@<TRIPOS>ATOM
      1 C13         0.3650   -0.6100   -0.3810 c2        1 RM2     -0.196000
      2 C12         1.5030    0.0390   -0.1310 ce        1 RM2     -0.226600
      3 C11         2.2550   -0.1740    1.1130 ce        1 RM2      0.461500
      4 N10         3.3450    0.4620    1.3690 n2        1 RM2     -0.576900
      5 C9          4.0450    0.2320    2.6150 c3        1 RM2      0.162800
      6 C1          5.0730    1.3650    2.9170 c3        1 RM2     -0.067400
      7 C2          6.4010    0.6960    3.2840 c3        1 RM2     -0.025100
      8 C3          6.1860   -0.7600    3.0680 ca        1 RM2     -0.100300
      9 C8          4.8650   -1.0400    2.6670 ca        1 RM2     -0.063300
     10 C7          4.4530   -2.3380    2.4030 ca        1 RM2     -0.148000
     11 C4          7.0950   -1.8100    3.2100 ca        1 RM2      0.132100
     12 C5          6.6830   -3.1300    2.9460 ca        1 RM2     -0.206000
     13 C6          5.3750   -3.3810    2.5460 ca        1 RM2     -0.094000
     14 O4          8.3750   -1.4990    3.6090 oh        1 RM2     -0.494100
     15 H131       -0.0780   -1.3350    0.3150 ha        1 RM2      0.116000
     16 H132       -0.2000   -0.4540   -1.3100 ha        1 RM2      0.116000
     17 H12         1.9240    0.7610   -0.8510 ha        1 RM2      0.146000
     18 H11         1.7980   -0.9230    1.8010 h4        1 RM2     -0.035200
     19 H9          3.3100    0.1900    3.4780 h1        1 RM2      0.050700
     20 H1C1        4.6940    1.9860    3.7630 hc        1 RM2      0.056700
     21 H1C2        5.2110    2.0340    2.0320 hc        1 RM2      0.056700
     22 H2C1        6.6780    0.8990    4.3500 hc        1 RM2      0.060700
     23 H2C2        7.2380    1.0710    2.6410 hc        1 RM2      0.060700
     24 H7          3.4230   -2.5490    2.0810 ha        1 RM2      0.133000
     25 H5          7.3990   -3.9570    3.0550 ha        1 RM2      0.132000
     26 H6          5.0610   -4.4150    2.3380 ha        1 RM2      0.133000
     27 H4          8.8830   -2.3220    3.6390 ho        1 RM2      0.418000
@<TRIPOS>BOND
     1    1    2 2   
     2    1   15 1   
     3    1   16 1   
     4    2    3 1   
     5    2   17 1   
     6    3    4 2   
     7    3   18 1   
     8    4    5 1   
     9    5    6 1   
    10    5    9 1   
    11    5   19 1   
    12    6    7 1   
    13    6   20 1   
    14    6   21 1   
    15    7    8 1   
    16    7   22 1   
    17    7   23 1   
    18    8    9 ar  
    19    8   11 ar  
    20    9   10 ar  
    21   10   13 ar  
    22   10   24 1   
    23   11   12 ar  
    24   11   14 1   
    25   12   13 ar  
    26   12   25 1   
    27   13   26 1   
    28   14   27 1   
@<TRIPOS>SUBSTRUCTURE
     1 RM2         1 TEMP              0 ****  ****    0 ROOT
