@<TRIPOS>MOLECULE
RM2
   27    28     1     0     0
SMALL
bcc


@<TRIPOS>ATOM
      1 C13        -5.0140    1.1020    0.1380 c2        1 RM2     -0.194000
      2 C12        -4.1010    0.2350    0.5760 ce        1 RM2     -0.227600
      3 C11        -2.8400    0.0120   -0.1440 ce        1 RM2      0.463500
      4 N10        -1.9610   -0.8360    0.2650 n2        1 RM2     -0.578900
      5 C9         -0.7390   -1.0350   -0.4860 c3        1 RM2      0.163800
      6 C1         -0.0100   -2.3450   -0.0560 c3        1 RM2     -0.062400
      7 C2          1.4560   -1.9910    0.2110 c3        1 RM2     -0.033100
      8 C3          1.5460   -0.5140    0.0550 ca        1 RM2     -0.163300
      9 C8          0.3070    0.0470   -0.3170 ca        1 RM2     -0.056300
     10 C7          0.1690    1.4120   -0.5080 ca        1 RM2     -0.149000
     11 C4          2.6510    0.3170    0.2290 ca        1 RM2      0.136100
     12 C5          2.5210    1.7070    0.0340 ca        1 RM2     -0.152000
     13 C6          1.2890    2.2360   -0.3290 ca        1 RM2     -0.099000
     14 O4          3.8980   -0.1410    0.5870 oh        1 RM2     -0.496100
     15 H131       -5.9570    1.2720    0.6740 ha        1 RM2      0.116000
     16 H132       -4.8860    1.6980   -0.7760 ha        1 RM2      0.116000
     17 H12        -4.2580   -0.3500    1.4990 ha        1 RM2      0.146000
     18 H11        -2.7210    0.6350   -1.0610 h4        1 RM2     -0.034200
     19 H9         -0.9670   -1.1110   -1.5940 h1        1 RM2      0.051700
     20 H1C1       -0.4730   -2.7860    0.8620 hc        1 RM2      0.057700
     21 H1C2       -0.0930   -3.0950   -0.8780 hc        1 RM2      0.057700
     22 H2C1        1.7600   -2.3050    1.2430 hc        1 RM2      0.049700
     23 H2C2        2.1310   -2.5110   -0.5160 hc        1 RM2      0.049700
     24 H7         -0.7990    1.8490   -0.7900 ha        1 RM2      0.133000
     25 H5          3.4000    2.3520    0.1760 ha        1 RM2      0.150000
     26 H6          1.1890    3.3220   -0.4770 ha        1 RM2      0.134000
     27 H4          3.8350   -1.1000    0.7100 ho        1 RM2      0.421000
@<TRIPOS>BOND
     1    1    2 2   
     2    1   15 1   
     3    1   16 1   
     4    2    3 1   
     5    2   17 1   
     6    3    4 2   
     7    3   18 1   
     8    4    5 1   
     9    5    6 1   
    10    5    9 1   
    11    5   19 1   
    12    6    7 1   
    13    6   20 1   
    14    6   21 1   
    15    7    8 1   
    16    7   22 1   
    17    7   23 1   
    18    8    9 ar  
    19    8   11 ar  
    20    9   10 ar  
    21   10   13 ar  
    22   10   24 1   
    23   11   12 ar  
    24   11   14 1   
    25   12   13 ar  
    26   12   25 1   
    27   13   26 1   
    28   14   27 1   
@<TRIPOS>SUBSTRUCTURE
     1 RM2         1 TEMP              0 ****  ****    0 ROOT
