@<TRIPOS>MOLECULE
RM2
   27    28     1     0     0
SMALL
bcc


@<TRIPOS>ATOM
      1 C13         0.3760   -0.6000   -0.3850 c2        1 RM2     -0.196000
      2 C12         1.5250    0.0340   -0.1490 ce        1 RM2     -0.226600
      3 C11         2.2730   -0.1610    1.1000 ce        1 RM2      0.461500
      4 N10         3.3740    0.4620    1.3420 n2        1 RM2     -0.576900
      5 C9          4.0680    0.2500    2.5950 c3        1 RM2      0.162800
      6 C1          5.1150    1.3720    2.8700 c3        1 RM2     -0.067400
      7 C2          6.4310    0.6890    3.2550 c3        1 RM2     -0.025100
      8 C3          6.1900   -0.7680    3.0750 ca        1 RM2     -0.100300
      9 C8          4.8650   -1.0350    2.6790 ca        1 RM2     -0.063300
     10 C7          4.4300   -2.3310    2.4460 ca        1 RM2     -0.148000
     11 C4          7.0810   -1.8300    3.2440 ca        1 RM2      0.132100
     12 C5          6.6460   -3.1480    3.0130 ca        1 RM2     -0.206000
     13 C6          5.3340   -3.3860    2.6170 ca        1 RM2     -0.094000
     14 O4          8.3660   -1.5310    3.6370 oh        1 RM2     -0.494100
     15 H131       -0.0810   -1.2990    0.3290 ha        1 RM2      0.116000
     16 H132       -0.1850   -0.4570   -1.3180 ha        1 RM2      0.116000
     17 H12         1.9600    0.7310   -0.8870 ha        1 RM2      0.146000
     18 H11         1.8020   -0.8840    1.8060 h4        1 RM2     -0.035200
     19 H9          3.3310    0.2430    3.4570 h1        1 RM2      0.050700
     20 H1C1        4.7460    2.0210    3.7000 hc        1 RM2      0.056700
     21 H1C2        5.2660    2.0170    1.9690 hc        1 RM2      0.056700
     22 H2C1        6.7100    0.9140    4.3160 hc        1 RM2      0.060700
     23 H2C2        7.2750    1.0330    2.6050 hc        1 RM2      0.060700
     24 H7          3.3980   -2.5310    2.1280 ha        1 RM2      0.133000
     25 H5          7.3470   -3.9850    3.1430 ha        1 RM2      0.132000
     26 H6          5.0020   -4.4190    2.4340 ha        1 RM2      0.133000
     27 H4          8.8590   -2.3630    3.6880 ho        1 RM2      0.418000
@<TRIPOS>BOND
     1    1    2 2   
     2    1   15 1   
     3    1   16 1   
     4    2    3 1   
     5    2   17 1   
     6    3    4 2   
     7    3   18 1   
     8    4    5 1   
     9    5    6 1   
    10    5    9 1   
    11    5   19 1   
    12    6    7 1   
    13    6   20 1   
    14    6   21 1   
    15    7    8 1   
    16    7   22 1   
    17    7   23 1   
    18    8    9 ar  
    19    8   11 ar  
    20    9   10 ar  
    21   10   13 ar  
    22   10   24 1   
    23   11   12 ar  
    24   11   14 1   
    25   12   13 ar  
    26   12   25 1   
    27   13   26 1   
    28   14   27 1   
@<TRIPOS>SUBSTRUCTURE
     1 RM2         1 TEMP              0 ****  ****    0 ROOT
