@<TRIPOS>MOLECULE
RM2
   27    23     1     0     0
SMALL
bcc


@<TRIPOS>ATOM
      1 C13        -4.1440   -1.5410    0.9950 c1        1 RM2     -0.169500
      2 C12        -3.3160   -0.6230    0.4640 c1        1 RM2     -0.169500
      3 C11        -2.3740    0.1710    1.3730 c1        1 RM2     -0.039000
      4 N10        -1.0950    0.2040    1.1160 n1        1 RM2     -0.167000
      5 C9         -0.5960   -0.4630    0.0450 c2        1 RM2     -0.013000
      6 C1          0.2110   -1.6230    0.5210 c3        1 RM2     -0.172000
      7 C2          1.6350   -1.2360    0.4670 c3        1 RM2     -0.106000
      8 C3          1.7110    0.1280   -0.1480 c2        1 RM2     -0.105000
      9 C8          0.4490    0.4320   -0.6740 c2        1 RM2     -0.034000
     10 C7          0.2920    1.5320   -1.5100 c1        1 RM2     -0.129000
     11 C4          2.8050    0.9290   -0.4640 c1        1 RM2      0.084000
     12 C5          2.6420    2.0290   -1.3020 c1        1 RM2     -0.169500
     13 C6          1.3860    2.3290   -1.8230 c1        1 RM2     -0.169500
     14 O4          4.0840    0.5830   -0.0040 oh        1 RM2     -0.252000
     15 H131       -4.1440   -1.7050    1.9920 DU        1 RM2      0.116000
     16 H132       -4.7560   -2.0590    0.4070 ha        1 RM2      0.127750
     17 H12        -3.3160   -0.4600   -0.5260 ha        1 RM2      0.127750
     18 H11        -2.7370    0.6620    2.1620 ha        1 RM2      0.143000
     19 H9         -1.4030   -0.6620   -0.4370 ha        1 RM2      0.105000
     20 H1C1       -0.0350   -1.8250    1.4580 hc        1 RM2      0.088500
     21 H1C2        0.0620   -2.3990   -0.0840 hc        1 RM2      0.088500
     22 H2C1        1.9930   -1.2000    1.3750 hc        1 RM2      0.099000
     23 H2C2        2.1180   -1.8710   -0.0970 hc        1 RM2      0.099000
     24 H7         -0.5820    1.7440   -1.8740 ha        1 RM2      0.146000
     25 H5          3.4240    2.6020   -1.5290 ha        1 RM2      0.127750
     26 H6          1.2780    3.0740   -2.3900 ha        1 RM2      0.127750
     27 H4          4.4100    1.2470    0.4870 ho        1 RM2      0.216000
@<TRIPOS>BOND
     1    1    2 1   
     2    1   16 1   
     3    2   17 1   
     4    3    4 1   
     5    3   18 1   
     6    5    6 1   
     7    5    9 1   
     8    5   19 1   
     9    6    7 1   
    10    6   20 1   
    11    6   21 1   
    12    7    8 1   
    13    7   22 1   
    14    7   23 1   
    15    8    9 1   
    16    8   11 1   
    17    9   10 1   
    18   10   24 1   
    19   11   14 1   
    20   12   13 1   
    21   12   25 1   
    22   13   26 1   
    23   14   27 1   
@<TRIPOS>SUBSTRUCTURE
     1 RM2         1 TEMP              0 ****  ****    0 ROOT
