@<TRIPOS>MOLECULE
RM4
   23    23     1     0     0
SMALL
bcc


@<TRIPOS>ATOM
      1 C1          0.0670    0.1850    0.0860 c3        1 RM4      0.318900
      2 C2          1.6050    0.2650    0.1790 c3        1 RM4      0.063100
      3 C3          2.0790    0.0380    1.6190 c3        1 RM4      0.111100
      4 C4          1.4130   -1.2140    2.2140 c3        1 RM4      0.082100
      5 C5         -0.1160   -1.0990    2.1040 c3        1 RM4      0.162100
      6 C6         -0.8060   -2.3540    2.5970 c3        1 RM4     -0.090100
      7 O1         -0.3180   -0.0080   -1.2530 oh        1 RM4     -0.607800
      8 O2          2.2200   -0.7320   -0.6230 oh        1 RM4     -0.607800
      9 O3          3.4850   -0.0770    1.7000 oh        1 RM4     -0.595800
     10 O4          1.7280   -1.3370    3.5900 oh        1 RM4     -0.595800
     11 O5         -0.4880   -0.9480    0.7300 os        1 RM4     -0.451600
     12 H1         -0.4100    1.1360    0.4510 h2        1 RM4      0.073700
     13 H2          1.9370    1.2800   -0.1760 h1        1 RM4      0.064700
     14 H3          1.8310    0.9400    2.2470 h1        1 RM4      0.088700
     15 H4          1.7720   -2.1260    1.6590 h1        1 RM4      0.063700
     16 H5         -0.4660   -0.1980    2.6810 h1        1 RM4      0.052700
     17 H6         -1.9130   -2.2200    2.5680 hc        1 RM4      0.054033
     18 H6A        -0.5350   -3.2260    1.9540 hc        1 RM4      0.054033
     19 H6B        -0.4760   -2.5530    3.6450 hc        1 RM4      0.054033
     20 HO1        -0.5000   -0.9510   -1.3850 ho        1 RM4      0.436000
     21 HO2         1.8830   -0.6100   -1.5210 ho        1 RM4      0.425000
     22 HO3         3.7640   -0.7210    1.0340 ho        1 RM4      0.424000
     23 HO4         2.6820   -1.1910    3.6660 ho        1 RM4      0.421000
@<TRIPOS>BOND
     1    1    2 1   
     2    1    7 1   
     3    1   11 1   
     4    1   12 1   
     5    2    3 1   
     6    2    8 1   
     7    2   13 1   
     8    3    4 1   
     9    3    9 1   
    10    3   14 1   
    11    4    5 1   
    12    4   10 1   
    13    4   15 1   
    14    5    6 1   
    15    5   11 1   
    16    5   16 1   
    17    6   17 1   
    18    6   18 1   
    19    6   19 1   
    20    7   20 1   
    21    8   21 1   
    22    9   22 1   
    23   10   23 1   
@<TRIPOS>SUBSTRUCTURE
     1 RM4         1 TEMP              0 ****  ****    0 ROOT
