@<TRIPOS>MOLECULE
RM4
   23    23     1     0     0
SMALL
bcc


@<TRIPOS>ATOM
      1 C1          1.4500   -0.4670   -0.7490 c3        1 RM4      0.318900
      2 C2          1.0090    0.9720   -0.4060 c3        1 RM4      0.063100
      3 C3         -0.5070    1.1300   -0.5540 c3        1 RM4      0.111100
      4 C4         -1.2410   -0.0100    0.1720 c3        1 RM4      0.082100
      5 C5         -0.7340   -1.3690   -0.3360 c3        1 RM4      0.162100
      6 C6         -1.3670   -2.5190    0.4200 c3        1 RM4     -0.090100
      7 O1          2.7370   -0.7050   -0.2330 oh        1 RM4     -0.607800
      8 O2          1.3330    1.3020    0.9360 oh        1 RM4     -0.607800
      9 O3         -0.9580    2.3790   -0.0720 oh        1 RM4     -0.595800
     10 O4         -2.6320    0.0460   -0.0930 oh        1 RM4     -0.595800
     11 O5          0.6760   -1.4700   -0.1130 os        1 RM4     -0.451600
     12 H1          1.4870   -0.6240   -1.8610 h2        1 RM4      0.073700
     13 H2          1.5370    1.6850   -1.0990 h1        1 RM4      0.064700
     14 H3         -0.7850    1.1310   -1.6470 h1        1 RM4      0.088700
     15 H4         -1.0620    0.0770    1.2800 h1        1 RM4      0.063700
     16 H5         -0.9390   -1.4570   -1.4400 h1        1 RM4      0.052700
     17 H6         -2.4780   -2.4300    0.3370 hc        1 RM4      0.054033
     18 H6A        -1.0340   -3.4920   -0.0110 hc        1 RM4      0.054033
     19 H6B        -1.0750   -2.4860    1.4970 hc        1 RM4      0.054033
     20 HO1         2.6470   -1.1870    0.6040 ho        1 RM4      0.436000
     21 HO2         2.2840    1.1580    1.0330 ho        1 RM4      0.425000
     22 HO3        -0.5830    2.5030    0.8110 ho        1 RM4      0.424000
     23 HO4        -2.8960    0.9690    0.0260 ho        1 RM4      0.421000
@<TRIPOS>BOND
     1    1    2 1   
     2    1    7 1   
     3    1   11 1   
     4    1   12 1   
     5    2    3 1   
     6    2    8 1   
     7    2   13 1   
     8    3    4 1   
     9    3    9 1   
    10    3   14 1   
    11    4    5 1   
    12    4   10 1   
    13    4   15 1   
    14    5    6 1   
    15    5   11 1   
    16    5   16 1   
    17    6   17 1   
    18    6   18 1   
    19    6   19 1   
    20    7   20 1   
    21    8   21 1   
    22    9   22 1   
    23   10   23 1   
@<TRIPOS>SUBSTRUCTURE
     1 RM4         1 TEMP              0 ****  ****    0 ROOT
