@<TRIPOS>MOLECULE
RM4
   23    23     1     0     0
SMALL
bcc


@<TRIPOS>ATOM
      1 C1          0.0510    0.1790    0.0880 c3        1 RM4      0.318900
      2 C2          1.5890    0.2780    0.1710 c3        1 RM4      0.063100
      3 C3          2.0750    0.0560    1.6070 c3        1 RM4      0.111100
      4 C4          1.4280   -1.2050    2.2050 c3        1 RM4      0.082100
      5 C5         -0.1030   -1.1080    2.1050 c3        1 RM4      0.162100
      6 C6         -0.7740   -2.3720    2.6020 c3        1 RM4     -0.090100
      7 O1         -0.3410   -0.0170   -1.2490 oh        1 RM4     -0.607800
      8 O2          2.2100   -0.7100   -0.6360 oh        1 RM4     -0.607800
      9 O3          3.4820   -0.0430    1.6790 oh        1 RM4     -0.595800
     10 O4          1.7530   -1.3260    3.5790 oh        1 RM4     -0.595800
     11 O5         -0.4860   -0.9610    0.7350 os        1 RM4     -0.451600
     12 H1         -0.4350    1.1250    0.4560 h2        1 RM4      0.073700
     13 H2          1.9050    1.2980   -0.1860 h1        1 RM4      0.064700
     14 H3          1.8200    0.9540    2.2370 h1        1 RM4      0.088700
     15 H4          1.7940   -2.1120    1.6470 h1        1 RM4      0.063700
     16 H5         -0.4600   -0.2120    2.6860 h1        1 RM4      0.052700
     17 H6         -1.8830   -2.2510    2.5810 hc        1 RM4      0.054033
     18 H6A        -0.4360   -2.5670    3.6480 hc        1 RM4      0.054033
     19 H6B        -0.4970   -3.2400    1.9570 hc        1 RM4      0.054033
     20 HO1        -0.5120   -0.9620   -1.3810 ho        1 RM4      0.436000
     21 HO2         1.8650   -0.5920   -1.5320 ho        1 RM4      0.425000
     22 HO3         3.7650   -0.6830    1.0100 ho        1 RM4      0.424000
     23 HO4         2.7050   -1.1670    3.6490 ho        1 RM4      0.421000
@<TRIPOS>BOND
     1    1    2 1   
     2    1    7 1   
     3    1   11 1   
     4    1   12 1   
     5    2    3 1   
     6    2    8 1   
     7    2   13 1   
     8    3    4 1   
     9    3    9 1   
    10    3   14 1   
    11    4    5 1   
    12    4   10 1   
    13    4   15 1   
    14    5    6 1   
    15    5   11 1   
    16    5   16 1   
    17    6   17 1   
    18    6   18 1   
    19    6   19 1   
    20    7   20 1   
    21    8   21 1   
    22    9   22 1   
    23   10   23 1   
@<TRIPOS>SUBSTRUCTURE
     1 RM4         1 TEMP              0 ****  ****    0 ROOT
