@<TRIPOS>MOLECULE
RM8
   45    48     1     0     0
SMALL
bcc


@<TRIPOS>ATOM
      1 C1         -2.3290    2.5930    1.4280 c3        1 RM8     -0.046900
      2 N1         -4.0680    0.7660    1.3870 na        1 RM8     -0.195400
      3 C2         -2.9410    1.3920    0.8290 cc        1 RM8     -0.025300
      4 N2         -0.1060    0.9960   -0.6200 n3        1 RM8     -0.731600
      5 C3         -2.5420    0.6970   -0.3190 cd        1 RM8     -0.153400
      6 N3          2.6580    0.1200   -0.3810 nh        1 RM8     -0.732300
      7 C4         -3.4580   -0.4100   -0.4940 ca        1 RM8     -0.084800
      8 N4          4.8620    0.9810    0.1730 nb        1 RM8     -0.713000
      9 C5         -3.5830   -1.4340   -1.4340 ca        1 RM8     -0.088000
     10 C6         -4.6130   -2.3520   -1.2970 ca        1 RM8     -0.157000
     11 C7         -5.5300   -2.2690   -0.2330 ca        1 RM8     -0.115000
     12 C8         -5.4440   -1.2680    0.7220 ca        1 RM8     -0.145000
     13 C9         -4.4060   -0.3320    0.5960 ca        1 RM8     -0.044200
     14 C10        -1.4320    1.0440   -1.2340 c3        1 RM8      0.246000
     15 C11         0.9220    1.4850   -1.5290 c3        1 RM8      0.162300
     16 C12         2.3370    1.4370   -0.9160 c3        1 RM8      0.185300
     17 C13         1.6340   -0.3740    0.5320 c3        1 RM8      0.185300
     18 C14         0.2240   -0.3190   -0.0890 c3        1 RM8      0.162300
     19 C15         3.9950   -0.0760    0.0770 ca        1 RM8      0.618200
     20 C16         4.4260   -1.4100    0.3510 ca        1 RM8     -0.264300
     21 C17         5.7490   -1.6340    0.7190 ca        1 RM8     -0.076000
     22 C18         6.6310   -0.5570    0.8110 ca        1 RM8     -0.278300
     23 C19         6.1310    0.7230    0.5220 ca        1 RM8      0.421200
     24 H1         -1.8000    2.3300    2.3780 hc        1 RM8      0.056367
     25 H1A        -1.5810    3.0220    0.7160 hc        1 RM8      0.056367
     26 H1B        -3.1000    3.3720    1.6550 hc        1 RM8      0.056367
     27 HN1        -4.5520    1.0700    2.1880 hn        1 RM8      0.297700
     28 H5         -2.8710   -1.5060   -2.2690 ha        1 RM8      0.132000
     29 H6         -4.7220   -3.1630   -2.0310 ha        1 RM8      0.129000
     30 H7         -6.3330   -3.0170   -0.1620 ha        1 RM8      0.129000
     31 H8         -6.1640   -1.2080    1.5500 ha        1 RM8      0.131000
     32 H10        -1.5830    2.1040   -1.5970 h1        1 RM8      0.037700
     33 H10A       -1.4910    0.3650   -2.1380 h1        1 RM8      0.037700
     34 H11         0.9280    0.9130   -2.5030 h1        1 RM8      0.041700
     35 H11A        0.6940    2.5620   -1.7630 h1        1 RM8      0.041700
     36 H12         2.4150    2.2380   -0.1250 h1        1 RM8      0.049450
     37 H12A        3.0720    1.6750   -1.7340 h1        1 RM8      0.049450
     38 H13         1.8540   -1.4480    0.7810 h1        1 RM8      0.049450
     39 H13A        1.6300    0.2150    1.4950 h1        1 RM8      0.049450
     40 H14        -0.5200   -0.5590    0.7200 h1        1 RM8      0.041700
     41 H14A        0.1470   -1.1210   -0.8810 h1        1 RM8      0.041700
     42 H16         3.7310   -2.2550    0.2560 ha        1 RM8      0.146000
     43 H17         6.0950   -2.6570    0.9300 ha        1 RM8      0.136000
     44 H18         7.6800   -0.6990    1.0960 ha        1 RM8      0.143000
     45 H19         6.7880    1.6110    0.5780 h4        1 RM8      0.019100
@<TRIPOS>BOND
     1    1    3 1   
     2    1   24 1   
     3    1   25 1   
     4    1   26 1   
     5    2    3 1   
     6    2   13 1   
     7    2   27 1   
     8    3    5 2   
     9    4   14 1   
    10    4   15 1   
    11    4   18 1   
    12    5    7 1   
    13    5   14 1   
    14    6   16 1   
    15    6   17 1   
    16    6   19 1   
    17    7    9 ar  
    18    7   13 ar  
    19    8   19 ar  
    20    8   23 ar  
    21    9   10 ar  
    22    9   28 1   
    23   10   11 ar  
    24   10   29 1   
    25   11   12 ar  
    26   11   30 1   
    27   12   13 ar  
    28   12   31 1   
    29   14   32 1   
    30   14   33 1   
    31   15   16 1   
    32   15   34 1   
    33   15   35 1   
    34   16   36 1   
    35   16   37 1   
    36   17   18 1   
    37   17   38 1   
    38   17   39 1   
    39   18   40 1   
    40   18   41 1   
    41   19   20 ar  
    42   20   21 ar  
    43   20   42 1   
    44   21   22 ar  
    45   21   43 1   
    46   22   23 ar  
    47   22   44 1   
    48   23   45 1   
@<TRIPOS>SUBSTRUCTURE
     1 RM8         1 TEMP              0 ****  ****    0 ROOT
