@<TRIPOS>MOLECULE
RM8
   45    48     1     0     0
SMALL
bcc


@<TRIPOS>ATOM
      1 C1          0.2790    0.6280   -0.0210 c3        1 RM8     -0.046900
      2 N1          2.4200    0.0230    1.1670 na        1 RM8     -0.195400
      3 C2          1.7020    0.2410   -0.0200 cc        1 RM8     -0.025300
      4 N2          1.7560    1.4430   -2.9940 n3        1 RM8     -0.731600
      5 C3          2.5460    0.0390   -1.1190 cd        1 RM8     -0.153400
      6 N3          1.8530    3.8230   -4.6650 nh        1 RM8     -0.732300
      7 C4          3.8470   -0.3270   -0.6030 ca        1 RM8     -0.084800
      8 N4          0.3780    5.4100   -5.7670 nb        1 RM8     -0.713000
      9 C5          5.0730   -0.6500   -1.1880 ca        1 RM8     -0.088000
     10 C6          6.1470   -0.9640   -0.3680 ca        1 RM8     -0.157000
     11 C7          6.0230   -0.9640    1.0320 ca        1 RM8     -0.115000
     12 C8          4.8250   -0.6500    1.6550 ca        1 RM8     -0.145000
     13 C9          3.7290   -0.3300    0.8390 ca        1 RM8     -0.044200
     14 C10         2.1830    0.1180   -2.5520 c3        1 RM8      0.246000
     15 C11         1.2780    1.4200   -4.3700 c3        1 RM8      0.162300
     16 C12         0.8300    2.8080   -4.8730 c3        1 RM8      0.185300
     17 C13         2.3340    3.8540   -3.2880 c3        1 RM8      0.185300
     18 C14         2.7760    2.4620   -2.7950 c3        1 RM8      0.162300
     19 C15         1.6030    5.1100   -5.2270 ca        1 RM8      0.618200
     20 C16         2.6810    6.0450   -5.2850 ca        1 RM8     -0.264300
     21 C17         2.4820    7.2750   -5.9020 ca        1 RM8     -0.076000
     22 C18         1.2370    7.5750   -6.4560 ca        1 RM8     -0.278300
     23 C19         0.2280    6.6020   -6.3620 ca        1 RM8      0.421200
     24 H1          0.1610    1.6850    0.3280 hc        1 RM8      0.056367
     25 H1A        -0.3240   -0.0360    0.6490 hc        1 RM8      0.056367
     26 H1B        -0.1250    0.5540   -1.0620 hc        1 RM8      0.056367
     27 HN1         2.0510    0.0830    2.0770 hn        1 RM8      0.297700
     28 H5          5.1790   -0.6530   -2.2820 ha        1 RM8      0.132000
     29 H6          7.1190   -1.2200   -0.8160 ha        1 RM8      0.129000
     30 H7          6.9000   -1.2190    1.6460 ha        1 RM8      0.129000
     31 H8          4.7350   -0.6520    2.7490 ha        1 RM8      0.131000
     32 H10         1.3150   -0.5820   -2.7420 h1        1 RM8      0.037700
     33 H10A        3.0610   -0.2570   -3.1620 h1        1 RM8      0.037700
     34 H11         2.0570    1.0100   -5.0780 h1        1 RM8      0.041700
     35 H11A        0.3810    0.7410   -4.4140 h1        1 RM8      0.041700
     36 H12         0.6340    2.7240   -5.9780 h1        1 RM8      0.049450
     37 H12A       -0.1380    3.0820   -4.3630 h1        1 RM8      0.049450
     38 H13         1.5420    4.2530   -2.5910 h1        1 RM8      0.049450
     39 H13A        3.2270    4.5360   -3.2280 h1        1 RM8      0.049450
     40 H14         2.9780    2.5350   -1.6900 h1        1 RM8      0.041700
     41 H14A        3.7450    2.1890   -3.3080 h1        1 RM8      0.041700
     42 H16         3.6640    5.7930   -4.8650 ha        1 RM8      0.146000
     43 H17         3.3050    8.0030   -5.9560 ha        1 RM8      0.136000
     44 H18         1.0460    8.5340   -6.9510 ha        1 RM8      0.143000
     45 H19        -0.7760    6.7880   -6.7850 h4        1 RM8      0.019100
@<TRIPOS>BOND
     1    1    3 1   
     2    1   24 1   
     3    1   25 1   
     4    1   26 1   
     5    2    3 1   
     6    2   13 1   
     7    2   27 1   
     8    3    5 2   
     9    4   14 1   
    10    4   15 1   
    11    4   18 1   
    12    5    7 1   
    13    5   14 1   
    14    6   16 1   
    15    6   17 1   
    16    6   19 1   
    17    7    9 ar  
    18    7   13 ar  
    19    8   19 ar  
    20    8   23 ar  
    21    9   10 ar  
    22    9   28 1   
    23   10   11 ar  
    24   10   29 1   
    25   11   12 ar  
    26   11   30 1   
    27   12   13 ar  
    28   12   31 1   
    29   14   32 1   
    30   14   33 1   
    31   15   16 1   
    32   15   34 1   
    33   15   35 1   
    34   16   36 1   
    35   16   37 1   
    36   17   18 1   
    37   17   38 1   
    38   17   39 1   
    39   18   40 1   
    40   18   41 1   
    41   19   20 ar  
    42   20   21 ar  
    43   20   42 1   
    44   21   22 ar  
    45   21   43 1   
    46   22   23 ar  
    47   22   44 1   
    48   23   45 1   
@<TRIPOS>SUBSTRUCTURE
     1 RM8         1 TEMP              0 ****  ****    0 ROOT
