@<TRIPOS>MOLECULE
RM8
   45    48     1     0     0
SMALL
bcc


@<TRIPOS>ATOM
      1 C1          0.2890    0.6250   -0.0130 c3        1 RM8     -0.046900
      2 N1          2.4350    0.0180    1.1650 na        1 RM8     -0.195400
      3 C2          1.7120    0.2380   -0.0190 cc        1 RM8     -0.025300
      4 N2          1.7540    1.4440   -2.9920 n3        1 RM8     -0.731600
      5 C3          2.5500    0.0370   -1.1220 cd        1 RM8     -0.153400
      6 N3          1.8450    3.8260   -4.6600 nh        1 RM8     -0.732300
      7 C4          3.8540   -0.3300   -0.6130 ca        1 RM8     -0.084800
      8 N4          0.3660    5.4150   -5.7540 nb        1 RM8     -0.713000
      9 C5          5.0770   -0.6520   -1.2030 ca        1 RM8     -0.088000
     10 C6          6.1550   -0.9680   -0.3890 ca        1 RM8     -0.157000
     11 C7          6.0370   -0.9690    1.0120 ca        1 RM8     -0.115000
     12 C8          4.8420   -0.6560    1.6410 ca        1 RM8     -0.145000
     13 C9          3.7430   -0.3350    0.8300 ca        1 RM8     -0.044200
     14 C10         2.1810    0.1180   -2.5530 c3        1 RM8      0.246000
     15 C11         1.2690    1.4230   -4.3660 c3        1 RM8      0.162300
     16 C12         0.8200    2.8120   -4.8650 c3        1 RM8      0.185300
     17 C13         2.3320    3.8550   -3.2860 c3        1 RM8      0.185300
     18 C14         2.7760    2.4620   -2.7960 c3        1 RM8      0.162300
     19 C15         1.5930    5.1140   -5.2190 ca        1 RM8      0.618200
     20 C16         2.6720    6.0480   -5.2810 ca        1 RM8     -0.264300
     21 C17         2.4710    7.2790   -5.8960 ca        1 RM8     -0.076000
     22 C18         1.2240    7.5800   -6.4440 ca        1 RM8     -0.278300
     23 C19         0.2150    6.6090   -6.3470 ca        1 RM8      0.421200
     24 H1         -0.1200    0.5530   -1.0520 hc        1 RM8      0.056367
     25 H1A        -0.3110   -0.0390    0.6580 hc        1 RM8      0.056367
     26 H1B         0.1730    1.6820    0.3380 hc        1 RM8      0.056367
     27 HN1         2.0710    0.0780    2.0760 hn        1 RM8      0.297700
     28 H5          5.1780   -0.6550   -2.2980 ha        1 RM8      0.132000
     29 H6          7.1240   -1.2240   -0.8420 ha        1 RM8      0.129000
     30 H7          6.9170   -1.2260    1.6210 ha        1 RM8      0.129000
     31 H8          4.7570   -0.6600    2.7350 ha        1 RM8      0.131000
     32 H10         1.3120   -0.5810   -2.7400 h1        1 RM8      0.037700
     33 H10A        3.0560   -0.2570   -3.1680 h1        1 RM8      0.037700
     34 H11         0.3710    0.7450   -4.4070 h1        1 RM8      0.041700
     35 H11A        2.0440    1.0130   -5.0780 h1        1 RM8      0.041700
     36 H12        -0.1450    3.0860   -4.3500 h1        1 RM8      0.049450
     37 H12A        0.6190    2.7290   -5.9690 h1        1 RM8      0.049450
     38 H13         3.2260    4.5350   -3.2290 h1        1 RM8      0.049450
     39 H13A        1.5440    4.2530   -2.5840 h1        1 RM8      0.049450
     40 H14         3.7420    2.1880   -3.3130 h1        1 RM8      0.041700
     41 H14A        2.9820    2.5330   -1.6920 h1        1 RM8      0.041700
     42 H16         3.6570    5.7940   -4.8660 ha        1 RM8      0.146000
     43 H17         3.2950    8.0060   -5.9530 ha        1 RM8      0.136000
     44 H18         1.0320    8.5400   -6.9380 ha        1 RM8      0.143000
     45 H19        -0.7910    6.7960   -6.7650 h4        1 RM8      0.019100
@<TRIPOS>BOND
     1    1    3 1   
     2    1   24 1   
     3    1   25 1   
     4    1   26 1   
     5    2    3 1   
     6    2   13 1   
     7    2   27 1   
     8    3    5 2   
     9    4   14 1   
    10    4   15 1   
    11    4   18 1   
    12    5    7 1   
    13    5   14 1   
    14    6   16 1   
    15    6   17 1   
    16    6   19 1   
    17    7    9 ar  
    18    7   13 ar  
    19    8   19 ar  
    20    8   23 ar  
    21    9   10 ar  
    22    9   28 1   
    23   10   11 ar  
    24   10   29 1   
    25   11   12 ar  
    26   11   30 1   
    27   12   13 ar  
    28   12   31 1   
    29   14   32 1   
    30   14   33 1   
    31   15   16 1   
    32   15   34 1   
    33   15   35 1   
    34   16   36 1   
    35   16   37 1   
    36   17   18 1   
    37   17   38 1   
    38   17   39 1   
    39   18   40 1   
    40   18   41 1   
    41   19   20 ar  
    42   20   21 ar  
    43   20   42 1   
    44   21   22 ar  
    45   21   43 1   
    46   22   23 ar  
    47   22   44 1   
    48   23   45 1   
@<TRIPOS>SUBSTRUCTURE
     1 RM8         1 TEMP              0 ****  ****    0 ROOT
