@<TRIPOS>MOLECULE
RMA
   30    31     1     0     0
SMALL
bcc


@<TRIPOS>ATOM
      1 C13        -1.2410    0.4740   -2.2950 c1        1 RMA      0.016500
      2 C12        -0.6960    0.1430   -1.2820 c1        1 RMA     -0.272100
      3 C11        -0.1330   -0.2680   -0.0280 c3        1 RMA      0.219900
      4 N10         1.3660   -0.0970    0.0110 n4        1 RMA     -0.686400
      5 C10         2.0450   -1.1690   -0.7540 c3        1 RMA      0.082100
      6 C9          1.8990   -0.0130    1.4270 c3        1 RMA      0.188800
      7 C1          1.4360   -1.1580    2.3670 c3        1 RMA     -0.092400
      8 C2          0.6090   -0.5170    3.4890 c3        1 RMA     -0.046100
      9 C3          0.7230    0.9540    3.2790 ca        1 RMA     -0.057300
     10 C8          1.4500    1.2500    2.1050 ca        1 RMA     -0.189300
     11 C7          1.7140    2.5620    1.7360 ca        1 RMA     -0.096000
     12 C4          0.2460    1.9800    4.0820 ca        1 RMA     -0.106000
     13 C5          0.5020    3.3040    3.7040 ca        1 RMA     -0.080000
     14 C6          1.2280    3.5920    2.5480 ca        1 RMA     -0.120000
     15 H13        -1.7260    0.7680   -3.1980 ha        1 RMA      0.197500
     16 H111       -0.5640    0.3520    0.8180 hx        1 RMA      0.120200
     17 H112       -0.3680   -1.3570    0.1660 hx        1 RMA      0.120200
     18 H101        3.1370   -0.9270   -0.8510 hx        1 RMA      0.102033
     19 H102        1.9260   -2.1470   -0.2170 hx        1 RMA      0.102033
     20 H103        1.5830   -1.2430   -1.7760 hx        1 RMA      0.102033
     21 H9          3.0240   -0.0310    1.3220 hx        1 RMA      0.107700
     22 H11         2.3490   -1.6480    2.7930 hc        1 RMA      0.075200
     23 H12         0.8480   -1.9460    1.8380 hc        1 RMA      0.075200
     24 H21         1.0100   -0.8130    4.4930 hc        1 RMA      0.083700
     25 H22        -0.4610   -0.8460    3.4420 hc        1 RMA      0.083700
     26 H7          2.3020    2.7980    0.8380 ha        1 RMA      0.135000
     27 H4         -0.3170    1.7610    5.0030 ha        1 RMA      0.161000
     28 H5          0.1300    4.1290    4.3350 ha        1 RMA      0.160000
     29 H6          1.4290    4.6400    2.2730 ha        1 RMA      0.159000
     30 H104        1.5810    0.8080   -0.4340 hn        1 RMA      0.452800
@<TRIPOS>BOND
     1    1    2 3   
     2    1   15 1   
     3    2    3 1   
     4    3    4 1   
     5    3   16 1   
     6    3   17 1   
     7    4    5 1   
     8    4    6 1   
     9    4   30 1   
    10    5   18 1   
    11    5   19 1   
    12    5   20 1   
    13    6    7 1   
    14    6   10 1   
    15    6   21 1   
    16    7    8 1   
    17    7   22 1   
    18    7   23 1   
    19    8    9 1   
    20    8   24 1   
    21    8   25 1   
    22    9   10 ar  
    23    9   12 ar  
    24   10   11 ar  
    25   11   14 ar  
    26   11   26 1   
    27   12   13 ar  
    28   12   27 1   
    29   13   14 ar  
    30   13   28 1   
    31   14   29 1   
@<TRIPOS>SUBSTRUCTURE
     1 RMA         1 TEMP              0 ****  ****    0 ROOT
