@<TRIPOS>MOLECULE
RMA
   29    30     1     0     0
SMALL
bcc


@<TRIPOS>ATOM
      1 C13         3.9180   -1.9700    0.7970 c1        1 RMA     -0.154500
      2 C12         2.9700   -1.2440    0.7390 c1        1 RMA     -0.135100
      3 C11         1.8050   -0.3900    0.7120 c3        1 RMA      0.242900
      4 N10         1.6010    0.2960   -0.5620 n3        1 RMA     -0.723600
      5 C10         2.7020    1.1570   -0.9300 c3        1 RMA      0.154100
      6 C9          0.3090    0.9640   -0.6690 c3        1 RMA      0.228800
      7 C1          0.0500    2.1770    0.2770 c3        1 RMA     -0.112400
      8 C2         -1.3570    2.0180    0.8590 c3        1 RMA     -0.034100
      9 C3         -1.8320    0.6820    0.3980 ca        1 RMA     -0.085300
     10 C8         -0.8830    0.0630   -0.4440 ca        1 RMA     -0.094300
     11 C7         -1.1260   -1.1890   -0.9860 ca        1 RMA     -0.100000
     12 C4         -3.0280    0.0470    0.6950 ca        1 RMA     -0.123000
     13 C5         -3.2740   -1.2180    0.1460 ca        1 RMA     -0.127000
     14 C6         -2.3350   -1.8290   -0.6820 ca        1 RMA     -0.137000
     15 H13         4.7570   -2.6150    0.8540 ha        1 RMA      0.163500
     16 H111        1.8920    0.3420    1.5740 h1        1 RMA      0.056200
     17 H112        0.8900   -1.0320    0.8990 h1        1 RMA      0.056200
     18 H101        2.5460    1.5150   -1.9820 h1        1 RMA      0.035033
     19 H102        2.8090    2.0530   -0.2600 h1        1 RMA      0.035033
     20 H103        3.6530    0.5630   -0.8890 h1        1 RMA      0.035033
     21 H9          0.2540    1.3380   -1.7370 h1        1 RMA      0.070700
     22 H11         0.8050    2.2150    1.1010 hc        1 RMA      0.047700
     23 H12         0.1330    3.1270   -0.3030 hc        1 RMA      0.047700
     24 H21        -1.3400    2.0740    1.9770 hc        1 RMA      0.054700
     25 H22        -2.0370    2.8270    0.4890 hc        1 RMA      0.054700
     26 H7         -0.3830   -1.6720   -1.6370 ha        1 RMA      0.147000
     27 H4         -3.7720    0.5230    1.3480 ha        1 RMA      0.133000
     28 H5         -4.2190   -1.7330    0.3750 ha        1 RMA      0.130000
     29 H6         -2.5420   -2.8230   -1.1050 ha        1 RMA      0.131000
@<TRIPOS>BOND
     1    1    2 3   
     2    1   15 1   
     3    2    3 1   
     4    3    4 1   
     5    3   16 1   
     6    3   17 1   
     7    4    5 1   
     8    4    6 1   
     9    5   18 1   
    10    5   19 1   
    11    5   20 1   
    12    6    7 1   
    13    6   10 1   
    14    6   21 1   
    15    7    8 1   
    16    7   22 1   
    17    7   23 1   
    18    8    9 1   
    19    8   24 1   
    20    8   25 1   
    21    9   10 ar  
    22    9   12 ar  
    23   10   11 ar  
    24   11   14 ar  
    25   11   26 1   
    26   12   13 ar  
    27   12   27 1   
    28   13   14 ar  
    29   13   28 1   
    30   14   29 1   
@<TRIPOS>SUBSTRUCTURE
     1 RMA         1 TEMP              0 ****  ****    0 ROOT
