@<TRIPOS>MOLECULE
RMA
   30    31     1     0     0
SMALL
bcc


@<TRIPOS>ATOM
      1 C13        -1.1710    0.4650   -2.3290 c1        1 RMA      0.016500
      2 C12        -0.6420    0.1360   -1.3070 c1        1 RMA     -0.272100
      3 C11        -0.0980   -0.2730   -0.0440 c3        1 RMA      0.219900
      4 N10         1.4000   -0.1030    0.0170 nx        1 RMA     -0.686400
      5 C10         2.0900   -1.1770   -0.7360 c3        1 RMA      0.082100
      6 C9          1.9110   -0.0180    1.4420 c3        1 RMA      0.188800
      7 C1          1.4340   -1.1610    2.3760 c3        1 RMA     -0.092400
      8 C2          0.5900   -0.5180    3.4850 c3        1 RMA     -0.046100
      9 C3          0.7090    0.9530    3.2740 ca        1 RMA     -0.057300
     10 C8          1.4530    1.2470    2.1110 ca        1 RMA     -0.189300
     11 C7          1.7240    2.5570    1.7440 ca        1 RMA     -0.096000
     12 C4          0.2210    1.9800    4.0690 ca        1 RMA     -0.106000
     13 C5          0.4830    3.3040    3.6930 ca        1 RMA     -0.080000
     14 C6          1.2260    3.5900    2.5470 ca        1 RMA     -0.120000
     15 H13        -1.6420    0.7580   -3.2400 ha        1 RMA      0.197500
     16 H111       -0.5420    0.3490    0.7940 hx        1 RMA      0.120200
     17 H112       -0.3380   -1.3620    0.1480 hx        1 RMA      0.120200
     18 H101        1.6430   -1.2520   -1.7640 hx        1 RMA      0.102033
     19 H102        1.9610   -2.1550   -0.1990 hx        1 RMA      0.102033
     20 H103        3.1830   -0.9360   -0.8160 hx        1 RMA      0.102033
     21 H9          3.0380   -0.0370    1.3540 hx        1 RMA      0.107700
     22 H11         2.3400   -1.6510    2.8160 hc        1 RMA      0.075200
     23 H12         0.8530   -1.9490    1.8390 hc        1 RMA      0.075200
     24 H21        -0.4790   -0.8470    3.4220 hc        1 RMA      0.083700
     25 H22         0.9770   -0.8120    4.4950 hc        1 RMA      0.083700
     26 H7          2.3260    2.7930    0.8540 ha        1 RMA      0.135000
     27 H4         -0.3560    1.7630    4.9810 ha        1 RMA      0.161000
     28 H5          0.1020    4.1300    4.3160 ha        1 RMA      0.160000
     29 H6          1.4320    4.6370    2.2740 ha        1 RMA      0.159000
     30 H104        1.6220    0.8010   -0.4250 hn        1 RMA      0.452800
@<TRIPOS>BOND
     1    1    2 3   
     2    1   15 1   
     3    2    3 1   
     4    3    4 1   
     5    3   16 1   
     6    3   17 1   
     7    4    5 1   
     8    4    6 1   
     9    4   30 1   
    10    5   18 1   
    11    5   19 1   
    12    5   20 1   
    13    6    7 1   
    14    6   10 1   
    15    6   21 1   
    16    7    8 1   
    17    7   22 1   
    18    7   23 1   
    19    8    9 1   
    20    8   24 1   
    21    8   25 1   
    22    9   10 ar  
    23    9   12 ar  
    24   10   11 ar  
    25   11   14 ar  
    26   11   26 1   
    27   12   13 ar  
    28   12   27 1   
    29   13   14 ar  
    30   13   28 1   
    31   14   29 1   
@<TRIPOS>SUBSTRUCTURE
     1 RMA         1 TEMP              0 ****  ****    0 ROOT
