@<TRIPOS>MOLECULE
RMA
   30    31     1     0     0
SMALL
bcc


@<TRIPOS>ATOM
      1 C13        -1.2560    0.4020   -2.2830 c1        1 RMA      0.016500
      2 C12        -0.7060    0.0850   -1.2680 c1        1 RMA     -0.272100
      3 C11        -0.1370   -0.3090   -0.0120 c3        1 RMA      0.219900
      4 N10         1.3600   -0.1260    0.0220 n4        1 RMA     -0.686400
      5 C10         2.0450   -1.2010   -0.7340 c3        1 RMA      0.082100
      6 C9          1.8960   -0.0250    1.4360 c3        1 RMA      0.188800
      7 C1          1.4440   -1.1630    2.3880 c3        1 RMA     -0.092400
      8 C2          0.6150   -0.5170    3.5060 c3        1 RMA     -0.046100
      9 C3          0.7180    0.9530    3.2810 ca        1 RMA     -0.057300
     10 C8          1.4400    1.2420    2.1020 ca        1 RMA     -0.189300
     11 C7          1.6940    2.5510    1.7190 ca        1 RMA     -0.096000
     12 C4          0.2360    1.9830    4.0750 ca        1 RMA     -0.106000
     13 C5          0.4820    3.3050    3.6830 ca        1 RMA     -0.080000
     14 C6          1.2030    3.5870    2.5220 ca        1 RMA     -0.120000
     15 H13        -1.7450    0.6830   -3.1880 ha        1 RMA      0.197500
     16 H111       -0.3640   -1.3980    0.1940 hx        1 RMA      0.120200
     17 H112       -0.5710    0.3170    0.8290 hx        1 RMA      0.120200
     18 H101        3.1350   -0.9530   -0.8360 hx        1 RMA      0.102033
     19 H102        1.5810   -1.2890   -1.7540 hx        1 RMA      0.102033
     20 H103        1.9340   -2.1750   -0.1870 hx        1 RMA      0.102033
     21 H9          3.0220   -0.0360    1.3280 hx        1 RMA      0.107700
     22 H11         0.8600   -1.9600    1.8690 hc        1 RMA      0.075200
     23 H12         2.3610   -1.6420    2.8170 hc        1 RMA      0.075200
     24 H21         1.0200   -0.7990    4.5110 hc        1 RMA      0.083700
     25 H22        -0.4530   -0.8540    3.4640 hc        1 RMA      0.083700
     26 H7          2.2790    2.7840    0.8170 ha        1 RMA      0.135000
     27 H4         -0.3230    1.7700    4.9980 ha        1 RMA      0.161000
     28 H5          0.1050    4.1340    4.3060 ha        1 RMA      0.160000
     29 H6          1.3960    4.6340    2.2360 ha        1 RMA      0.159000
     30 H104        1.5680    0.7760   -0.4320 hn        1 RMA      0.452800
@<TRIPOS>BOND
     1    1    2 3   
     2    1   15 1   
     3    2    3 1   
     4    3    4 1   
     5    3   16 1   
     6    3   17 1   
     7    4    5 1   
     8    4    6 1   
     9    4   30 1   
    10    5   18 1   
    11    5   19 1   
    12    5   20 1   
    13    6    7 1   
    14    6   10 1   
    15    6   21 1   
    16    7    8 1   
    17    7   22 1   
    18    7   23 1   
    19    8    9 1   
    20    8   24 1   
    21    8   25 1   
    22    9   10 ar  
    23    9   12 ar  
    24   10   11 ar  
    25   11   14 ar  
    26   11   26 1   
    27   12   13 ar  
    28   12   27 1   
    29   13   14 ar  
    30   13   28 1   
    31   14   29 1   
@<TRIPOS>SUBSTRUCTURE
     1 RMA         1 TEMP              0 ****  ****    0 ROOT
