@<TRIPOS>MOLECULE
RMB
   38    40     1     0     0
SMALL
bcc


@<TRIPOS>ATOM
      1 N3          0.1440    0.9310    0.1900 nc        1 RMB     -0.624100
      2 N1          1.8500    0.5820    1.7010 na        1 RMB     -0.154300
      3 C2          1.4760    0.9330    0.3900 cd        1 RMB      0.458700
      4 C7A         0.6610    0.3100    2.3840 ca        1 RMB     -0.066200
      5 C3A        -0.4140    0.5430    1.4230 ca        1 RMB      0.068400
      6 C4         -1.7430    0.3670    1.8220 ca        1 RMB     -0.084000
      7 C5         -2.0070   -0.0290    3.1300 ca        1 RMB     -0.130300
      8 C6         -0.9580   -0.2530    4.0450 ca        1 RMB     -0.141000
      9 C7          0.3730   -0.0900    3.6940 ca        1 RMB     -0.120000
     10 C8         -3.4040   -0.2270    3.5840 c3        1 RMB     -0.032800
     11 P           7.8570    0.2610   -0.8190 p5        1 RMB      1.331900
     12 O1P         8.3730    0.4300    0.5840 o         1 RMB     -0.927500
     13 O2P         8.7780   -0.2910   -1.8590 o         1 RMB     -0.927500
     14 O3P         6.9210    1.3840   -1.2270 o         1 RMB     -0.927500
     15 O5'         6.6700   -0.9990   -0.6100 os        1 RMB     -0.562200
     16 C5'         6.0290   -1.0380    0.5970 c3        1 RMB      0.224400
     17 C4'         4.6830   -0.2720    0.5320 c3        1 RMB      0.054100
     18 O4'         3.8530   -0.6830    1.6500 os        1 RMB     -0.428600
     19 C3'         4.8950    1.2510    0.6440 c3        1 RMB      0.088100
     20 O3'         4.3320    1.9170   -0.4670 oh        1 RMB     -0.698800
     21 C2'         4.1390    1.6720    1.9180 c3        1 RMB      0.111100
     22 O2'         3.4620    2.9000    1.8480 oh        1 RMB     -0.609800
     23 C1'         3.2040    0.4470    2.2170 c3        1 RMB      0.211800
     24 H21         2.2550    1.1840   -0.3580 h5        1 RMB      0.117800
     25 H41        -2.5600    0.5410    1.1080 ha        1 RMB      0.127000
     26 H61        -1.2100   -0.5690    5.0680 ha        1 RMB      0.109000
     27 H71         1.1780   -0.2720    4.4190 ha        1 RMB      0.131000
     28 H81        -4.1330   -0.0030    2.7680 hc        1 RMB      0.025367
     29 H82        -3.6310    0.4420    4.4510 hc        1 RMB      0.025367
     30 H83        -3.5600   -1.2850    3.9130 hc        1 RMB      0.025367
     31 H5'1        5.7810   -2.1090    0.8560 h1        1 RMB      0.009700
     32 H5'2        6.6660   -0.5950    1.4140 h1        1 RMB      0.009700
     33 H4'         4.1290   -0.5290   -0.4080 h1        1 RMB      0.056700
     34 H3'         6.0130    1.4700    0.6850 h1        1 RMB      0.171700
     35 HO3'        5.0630    1.9670   -1.1290 ho        1 RMB      0.509000
     36 H2'         4.8500    1.7630    2.7840 h1        1 RMB      0.077700
     37 HO2'        3.2850    3.0860    0.9140 ho        1 RMB      0.427000
     38 H1'         3.1170    0.2390    3.3210 h2        1 RMB      0.065700
@<TRIPOS>BOND
     1    1    3 2   
     2    1    5 1   
     3    2    3 1   
     4    2    4 1   
     5    2   23 1   
     6    3   24 1   
     7    4    5 ar  
     8    4    9 ar  
     9    5    6 ar  
    10    6    7 ar  
    11    6   25 1   
    12    7    8 ar  
    13    7   10 1   
    14    8    9 ar  
    15    8   26 1   
    16    9   27 1   
    17   10   28 1   
    18   10   29 1   
    19   10   30 1   
    20   11   12 1   
    21   11   13 1   
    22   11   14 1   
    23   11   15 1   
    24   15   16 1   
    25   16   17 1   
    26   16   31 1   
    27   16   32 1   
    28   17   18 1   
    29   17   19 1   
    30   17   33 1   
    31   18   23 1   
    32   19   20 1   
    33   19   21 1   
    34   19   34 1   
    35   20   35 1   
    36   21   22 1   
    37   21   23 1   
    38   21   36 1   
    39   22   37 1   
    40   23   38 1   
@<TRIPOS>SUBSTRUCTURE
     1 RMB         1 TEMP              0 ****  ****    0 ROOT
