@<TRIPOS>MOLECULE
RMB
   38    40     1     0     0
SMALL
bcc


@<TRIPOS>ATOM
      1 N3         -0.2850    1.9730    2.8510 nc        1 RMB     -0.624100
      2 N1          0.3370   -0.0110    1.8550 na        1 RMB     -0.154300
      3 C2          0.1130    1.3710    1.7130 cd        1 RMB      0.458700
      4 C7A         0.0350   -0.3190    3.1850 ca        1 RMB     -0.066200
      5 C3A        -0.3480    0.9440    3.8100 ca        1 RMB      0.068400
      6 C4         -0.6960    0.9630    5.1650 ca        1 RMB     -0.084000
      7 C5         -0.6700   -0.2280    5.8840 ca        1 RMB     -0.130300
      8 C6         -0.3010   -1.4400    5.2650 ca        1 RMB     -0.141000
      9 C7          0.0530   -1.5060    3.9260 ca        1 RMB     -0.120000
     10 C8         -1.0360   -0.2440    7.3200 c3        1 RMB     -0.032800
     11 P           0.6520    0.0560   -4.6590 p5        1 RMB      1.331900
     12 O1P         1.4140   -1.2370   -4.5600 o         1 RMB     -0.927500
     13 O2P         0.0190    0.4160   -5.9640 o         1 RMB     -0.927500
     14 O3P         1.3000    1.1680   -3.8560 o         1 RMB     -0.927500
     15 O5'        -0.7090   -0.2550   -3.6140 os        1 RMB     -0.562200
     16 C5'        -0.4870   -1.0910   -2.5560 c3        1 RMB      0.224400
     17 C4'        -0.1450   -0.2850   -1.2770 c3        1 RMB      0.054100
     18 O4'        -0.3360   -1.1370   -0.1180 os        1 RMB     -0.428600
     19 C3'         1.3260    0.1770   -1.2790 c3        1 RMB      0.088100
     20 O3'         1.4100    1.5800   -1.1380 oh        1 RMB     -0.698800
     21 C2'         1.9610   -0.4900   -0.0440 c3        1 RMB      0.111100
     22 O2'         2.8840    0.2940    0.6660 oh        1 RMB     -0.609800
     23 C1'         0.7240   -0.9450    0.8080 c3        1 RMB      0.211800
     24 H21         0.2740    1.8600    0.7310 h5        1 RMB      0.117800
     25 H41        -0.9850    1.9080    5.6460 ha        1 RMB      0.127000
     26 H61        -0.2970   -2.3600    5.8680 ha        1 RMB      0.109000
     27 H71         0.3340   -2.4590    3.4590 ha        1 RMB      0.131000
     28 H81        -0.1860   -0.6320    7.9350 hc        1 RMB      0.025367
     29 H82        -1.2930    0.7800    7.6850 hc        1 RMB      0.025367
     30 H83        -1.9190   -0.9090    7.4900 hc        1 RMB      0.025367
     31 H5'1        0.3520   -1.8120   -2.7730 h1        1 RMB      0.009700
     32 H5'2       -1.4290   -1.6720   -2.3320 h1        1 RMB      0.009700
     33 H4'        -0.8370    0.5900   -1.1670 h1        1 RMB      0.056700
     34 H3'         1.8130   -0.1310   -2.2630 h1        1 RMB      0.171700
     35 HO3'        1.4070    1.9270   -2.0630 ho        1 RMB      0.509000
     36 H2'         2.5160   -1.4200   -0.3440 h1        1 RMB      0.077700
     37 HO2'        2.6880    1.2240    0.4770 ho        1 RMB      0.427000
     38 H1'         0.8940   -1.9430    1.3040 h2        1 RMB      0.065700
@<TRIPOS>BOND
     1    1    3 2   
     2    1    5 1   
     3    2    3 1   
     4    2    4 1   
     5    2   23 1   
     6    3   24 1   
     7    4    5 ar  
     8    4    9 ar  
     9    5    6 ar  
    10    6    7 ar  
    11    6   25 1   
    12    7    8 ar  
    13    7   10 1   
    14    8    9 ar  
    15    8   26 1   
    16    9   27 1   
    17   10   28 1   
    18   10   29 1   
    19   10   30 1   
    20   11   12 1   
    21   11   13 1   
    22   11   14 1   
    23   11   15 1   
    24   15   16 1   
    25   16   17 1   
    26   16   31 1   
    27   16   32 1   
    28   17   18 1   
    29   17   19 1   
    30   17   33 1   
    31   18   23 1   
    32   19   20 1   
    33   19   21 1   
    34   19   34 1   
    35   20   35 1   
    36   21   22 1   
    37   21   23 1   
    38   21   36 1   
    39   22   37 1   
    40   23   38 1   
@<TRIPOS>SUBSTRUCTURE
     1 RMB         1 TEMP              0 ****  ****    0 ROOT
