@<TRIPOS>MOLECULE
RMB
   38    40     1     0     0
SMALL
bcc


@<TRIPOS>ATOM
      1 N3          0.1520    1.0530    0.2310 nc        1 RMB     -0.624100
      2 N1          1.8550    0.5890    1.7140 na        1 RMB     -0.154300
      3 C2          1.4850    1.0130    0.4240 cd        1 RMB      0.458700
      4 C7A         0.6630    0.3130    2.3900 ca        1 RMB     -0.066200
      5 C3A        -0.4100    0.6200    1.4480 ca        1 RMB      0.068400
      6 C4         -1.7410    0.4580    1.8450 ca        1 RMB     -0.084000
      7 C5         -2.0090    0.0040    3.1340 ca        1 RMB     -0.130300
      8 C6         -0.9620   -0.2900    4.0310 ca        1 RMB     -0.141000
      9 C7          0.3710   -0.1420    3.6800 ca        1 RMB     -0.120000
     10 C8         -3.4080   -0.1800    3.5860 c3        1 RMB     -0.032800
     11 P           7.8400    0.2420   -0.8540 p5        1 RMB      1.331900
     12 O1P         8.3670    0.3280    0.5510 o         1 RMB     -0.927500
     13 O2P         8.7420   -0.2820   -1.9260 o         1 RMB     -0.927500
     14 O3P         6.9310    1.4070   -1.2010 o         1 RMB     -0.927500
     15 O5'         6.6230   -0.9970   -0.7010 os        1 RMB     -0.562200
     16 C5'         5.9870   -1.0790    0.5060 c3        1 RMB      0.224400
     17 C4'         4.6600   -0.2780    0.4880 c3        1 RMB      0.054100
     18 O4'         3.8260   -0.7220    1.5890 os        1 RMB     -0.428600
     19 C3'         4.9110    1.2330    0.6730 c3        1 RMB      0.088100
     20 O3'         4.3600    1.9660   -0.4010 oh        1 RMB     -0.698800
     21 C2'         4.1720    1.6090    1.9700 c3        1 RMB      0.111100
     22 O2'         3.5260    2.8560    1.9650 oh        1 RMB     -0.609800
     23 C1'         3.2080    0.3950    2.2150 c3        1 RMB      0.211800
     24 H21         2.2660    1.2800   -0.3160 h5        1 RMB      0.117800
     25 H41        -2.5570    0.6860    1.1450 ha        1 RMB      0.127000
     26 H61        -1.2170   -0.6490    5.0380 ha        1 RMB      0.109000
     27 H71         1.1750   -0.3800    4.3910 ha        1 RMB      0.131000
     28 H81        -4.1350    0.0970    2.7840 hc        1 RMB      0.025367
     29 H82        -3.5880   -1.2480    3.8690 hc        1 RMB      0.025367
     30 H83        -3.6150    0.4550    4.4830 hc        1 RMB      0.025367
     31 H5'1        5.7140   -2.1550    0.7140 h1        1 RMB      0.009700
     32 H5'2        6.6390   -0.6920    1.3400 h1        1 RMB      0.009700
     33 H4'         4.0960   -0.4740   -0.4600 h1        1 RMB      0.056700
     34 H3'         6.0350    1.4210    0.7180 h1        1 RMB      0.171700
     35 HO3'        5.0890    2.0300   -1.0630 ho        1 RMB      0.509000
     36 H2'         4.8890    1.6400    2.8350 h1        1 RMB      0.077700
     37 HO2'        3.3490    3.0920    1.0420 ho        1 RMB      0.427000
     38 H1'         3.1210    0.1350    3.3080 h2        1 RMB      0.065700
@<TRIPOS>BOND
     1    1    3 2   
     2    1    5 1   
     3    2    3 1   
     4    2    4 1   
     5    2   23 1   
     6    3   24 1   
     7    4    5 ar  
     8    4    9 ar  
     9    5    6 ar  
    10    6    7 ar  
    11    6   25 1   
    12    7    8 ar  
    13    7   10 1   
    14    8    9 ar  
    15    8   26 1   
    16    9   27 1   
    17   10   28 1   
    18   10   29 1   
    19   10   30 1   
    20   11   12 1   
    21   11   13 1   
    22   11   14 1   
    23   11   15 1   
    24   15   16 1   
    25   16   17 1   
    26   16   31 1   
    27   16   32 1   
    28   17   18 1   
    29   17   19 1   
    30   17   33 1   
    31   18   23 1   
    32   19   20 1   
    33   19   21 1   
    34   19   34 1   
    35   20   35 1   
    36   21   22 1   
    37   21   23 1   
    38   21   36 1   
    39   22   37 1   
    40   23   38 1   
@<TRIPOS>SUBSTRUCTURE
     1 RMB         1 TEMP              0 ****  ****    0 ROOT
