@<TRIPOS>MOLECULE
RMC
   55    57     1     0     0
SMALL
bcc


@<TRIPOS>ATOM
      1 OAP        -1.6700    4.3900   -1.8550 oh        1 RMC     -0.607800
      2 CAQ        -0.4130    3.8510   -1.4760 c3        1 RMC      0.094400
      3 CAR        -0.4440    3.6080    0.0500 c3        1 RMC      0.209500
      4 CAK        -0.6440    4.9630    0.7510 c3        1 RMC     -0.079400
      5 CAI        -0.4760    4.8730    2.2440 c3        1 RMC     -0.091100
      6 NAS        -1.4460    2.6480    0.4740 nh        1 RMC     -0.801900
      7 CAT        -1.3110    1.2800    0.1390 ca        1 RMC      0.910900
      8 NAU        -2.4810    0.5390    0.1810 nb        1 RMC     -0.786000
      9 CAV        -2.2790   -0.7900   -0.0030 ca        1 RMC      0.488800
     10 NAW        -3.2080   -1.8430    0.0010 na        1 RMC     -0.270000
     11 CAZ        -4.6340   -1.7490    0.2160 c3        1 RMC      0.057000
     12 CAY        -5.4430   -2.2350   -0.9900 c3        1 RMC     -0.111100
     13 CBA        -5.0930   -2.5130    1.4610 c3        1 RMC     -0.111100
     14 CAX        -2.4600   -3.0230   -0.2340 cc        1 RMC      0.390700
     15 CAN        -0.9820   -1.4170   -0.2540 ca        1 RMC     -0.242200
     16 NAO        -1.1480   -2.8040   -0.3870 nd        1 RMC     -0.536100
     17 NAL        -0.0360    0.8000   -0.1290 nb        1 RMC     -0.842000
     18 CAM         0.1540   -0.5420   -0.2950 ca        1 RMC      0.777200
     19 NAJ         1.4450   -1.0470   -0.4550 nh        1 RMC     -0.758300
     20 CAD         2.5750   -0.1350   -0.4230 c3        1 RMC      0.255100
     21 CAE         4.9270   -0.8360   -0.9720 ca        1 RMC     -0.115000
     22 CAG         6.1510   -1.3960   -0.6080 ca        1 RMC     -0.133000
     23 CAH         6.3270   -1.9240    0.6700 ca        1 RMC     -0.125000
     24 CAF         5.2760   -1.8910    1.5870 ca        1 RMC     -0.133000
     25 CAC         4.0520   -1.3270    1.2290 ca        1 RMC     -0.115000
     26 CAB         3.8730   -0.7960   -0.0530 ca        1 RMC     -0.102300
     27 CBB         1.6250   -2.2840   -1.1750 c3        1 RMC      0.198100
     28 HAP        -1.6760    4.4260   -2.8190 ho        1 RMC      0.403000
     29 HAQ1        0.4020    4.5840   -1.7180 h1        1 RMC      0.034200
     30 HAQ2       -0.2190    2.8910   -2.0240 h1        1 RMC      0.034200
     31 HAR         0.5750    3.2130    0.3400 h1        1 RMC      0.085700
     32 HAK1       -1.6550    5.3750    0.4950 hc        1 RMC      0.050700
     33 HAK2        0.1190    5.6700    0.3290 hc        1 RMC      0.050700
     34 HAI1       -0.5150    5.8940    2.6950 hc        1 RMC      0.037033
     35 HAI2       -1.2860    4.2560    2.7030 hc        1 RMC      0.037033
     36 HAI3        0.5060    4.4080    2.5050 hc        1 RMC      0.037033
     37 HAS        -2.3810    2.9980    0.3720 hn        1 RMC      0.426800
     38 HAZ        -4.8700   -0.6510    0.3740 h1        1 RMC      0.091700
     39 HAY1       -5.2660   -3.3200   -1.1810 hc        1 RMC      0.046533
     40 HAY2       -6.5280   -2.0820   -0.7760 hc        1 RMC      0.046533
     41 HAY3       -5.1760   -1.6610   -1.9090 hc        1 RMC      0.046533
     42 HBA1       -4.5620   -2.1470    2.3720 hc        1 RMC      0.046533
     43 HBA2       -6.1890   -2.3500    1.5960 hc        1 RMC      0.046533
     44 HBA3       -4.9040   -3.6070    1.3520 hc        1 RMC      0.046533
     45 HAX        -2.9510   -4.0010   -0.2760 h5        1 RMC      0.068800
     46 HAD1        2.6860    0.3700   -1.4280 h1        1 RMC      0.059200
     47 HAD2        2.3800    0.6690    0.3460 h1        1 RMC      0.059200
     48 HAG         6.9780   -1.4220   -1.3330 ha        1 RMC      0.132000
     49 HAH         7.2920   -2.3670    0.9550 ha        1 RMC      0.131000
     50 HAF         5.4120   -2.3080    2.5960 ha        1 RMC      0.132000
     51 HAC         3.2210   -1.3000    1.9500 ha        1 RMC      0.137500
     52 HBB1        1.4620   -3.1480   -0.4770 h1        1 RMC      0.051367
     53 HBB2        0.9120   -2.3680   -2.0380 h1        1 RMC      0.051367
     54 HBB3        2.6740   -2.3390   -1.5740 h1        1 RMC      0.051367
     55 HAE         4.7920   -0.4230   -1.9820 ha        1 RMC      0.137500
@<TRIPOS>BOND
     1    1    2 1   
     2    1   28 1   
     3    2    3 1   
     4    2   29 1   
     5    2   30 1   
     6    3    4 1   
     7    3    6 1   
     8    3   31 1   
     9    4    5 1   
    10    4   32 1   
    11    4   33 1   
    12    5   34 1   
    13    5   35 1   
    14    5   36 1   
    15    6    7 1   
    16    6   37 1   
    17    7    8 ar  
    18    7   17 ar  
    19    8    9 ar  
    20    9   10 1   
    21    9   15 ar  
    22   10   11 1   
    23   10   14 1   
    24   11   12 1   
    25   11   13 1   
    26   11   38 1   
    27   12   39 1   
    28   12   40 1   
    29   12   41 1   
    30   13   42 1   
    31   13   43 1   
    32   13   44 1   
    33   14   16 2   
    34   14   45 1   
    35   15   16 1   
    36   15   18 ar  
    37   17   18 ar  
    38   18   19 1   
    39   19   20 1   
    40   19   27 1   
    41   20   26 1   
    42   20   46 1   
    43   20   47 1   
    44   21   22 ar  
    45   21   26 ar  
    46   21   55 1   
    47   22   23 ar  
    48   22   48 1   
    49   23   24 ar  
    50   23   49 1   
    51   24   25 ar  
    52   24   50 1   
    53   25   26 ar  
    54   25   51 1   
    55   27   52 1   
    56   27   53 1   
    57   27   54 1   
@<TRIPOS>SUBSTRUCTURE
     1 RMC         1 TEMP              0 ****  ****    0 ROOT
