@<TRIPOS>MOLECULE
RMC
   57    59     1     0     0
SMALL
bcc


@<TRIPOS>ATOM
      1 OAP         2.3140    1.1460    0.5760 oh        1 RMC     -0.612800
      2 CAQ         2.3520    0.7320    1.9230 c3        1 RMC      0.112400
      3 CAR         1.1610   -0.2110    2.2120 c3        1 RMC      0.096500
      4 CAK        -0.1450    0.5890    2.2540 c3        1 RMC     -0.114400
      5 CAI        -1.3560   -0.2490    2.5700 c3        1 RMC     -0.126100
      6 NAS         1.0770   -1.2940    1.1540 n4        1 RMC     -0.737700
      7 CAT         2.1220   -2.3480    1.3080 ca        1 RMC      0.726900
      8 NAU         1.9770   -3.1840    2.3880 nb        1 RMC     -0.616000
      9 CAV         2.9370   -4.1340    2.4700 ca        1 RMC      0.448800
     10 NAW         3.1550   -5.1660    3.3900 na        1 RMC     -0.218000
     11 CAZ         2.3370   -5.5010    4.5600 c3        1 RMC      0.042000
     12 CAY         1.7100   -6.8890    4.4370 c3        1 RMC     -0.123100
     13 CBA         3.1380   -5.4120    5.8580 c3        1 RMC     -0.123100
     14 CAX         4.3140   -5.8370    2.9590 cc        1 RMC      0.528700
     15 CAN         4.0470   -4.2570    1.4840 ca        1 RMC     -0.097200
     16 NAO         4.8670   -5.3220    1.8340 nd        1 RMC     -0.563100
     17 NAL         3.0960   -2.3640    0.3340 nb        1 RMC     -0.668000
     18 CAM         4.0530   -3.3200    0.4280 ca        1 RMC      0.572200
     19 NAJ         5.1200   -3.3850   -0.5950 n4        1 RMC     -0.676100
     20 CAD         5.8970   -2.0770   -0.6690 c3        1 RMC      0.195100
     21 CAE         7.4030   -1.9100   -2.6610 ca        1 RMC     -0.099500
     22 CAG         8.6570   -2.0560   -3.2520 ca        1 RMC     -0.114500
     23 CAH         9.7200   -2.5860   -2.5170 ca        1 RMC     -0.064000
     24 CAF         9.5310   -2.9670   -1.1870 ca        1 RMC     -0.114500
     25 CAC         8.2820   -2.8200   -0.5890 ca        1 RMC     -0.099500
     26 CAB         7.2130   -2.2890   -1.3250 ca        1 RMC     -0.205300
     27 CBB         4.5670   -3.7600   -1.9260 c3        1 RMC      0.088100
     28 HAP         1.9990    2.0600    0.5410 ho        1 RMC      0.447000
     29 HAQ1        3.3230    0.1810    2.0530 h1        1 RMC      0.086700
     30 HAQ2        2.3100    1.5880    2.6460 h1        1 RMC      0.086700
     31 HAR         1.3210   -0.7150    3.2110 hx        1 RMC      0.124700
     32 HAK1       -0.0110    1.3630    3.0610 hc        1 RMC      0.091700
     33 HAK2       -0.2880    1.1410    1.2870 hc        1 RMC      0.091700
     34 HAI1       -2.2030    0.4210    2.8700 hc        1 RMC      0.063033
     35 HAI2       -1.7020   -0.8370    1.6850 hc        1 RMC      0.063033
     36 HAI3       -1.1570   -0.9480    3.4180 hc        1 RMC      0.063033
     37 HAS         1.1860   -0.8340    0.2320 hn        1 RMC      0.488300
     38 HAZ         1.5060   -4.7320    4.5940 h1        1 RMC      0.094700
     39 HAY1        1.0520   -7.0530    5.3270 hc        1 RMC      0.070867
     40 HAY2        1.0850   -6.9780    3.5160 hc        1 RMC      0.070867
     41 HAY3        2.4900   -7.6890    4.4250 hc        1 RMC      0.070867
     42 HBA1        2.4400   -5.6110    6.7100 hc        1 RMC      0.070867
     43 HBA2        3.9530   -6.1730    5.8870 hc        1 RMC      0.070867
     44 HBA3        3.5820   -4.3970    5.9980 hc        1 RMC      0.070867
     45 HAX         4.7170   -6.7080    3.5110 h5        1 RMC      0.128800
     46 HAD1        6.0370   -1.7180    0.3910 hx        1 RMC      0.107200
     47 HAD2        5.2640   -1.3350   -1.2330 hx        1 RMC      0.107200
     48 HAH        10.7130   -2.6970   -2.9860 ha        1 RMC      0.171000
     49 HAF        10.3730   -3.3790   -0.6070 ha        1 RMC      0.167000
     50 HAC         8.1440   -3.1020    0.4660 ha        1 RMC      0.138000
     51 HBB1        3.8180   -2.9960   -2.2630 hx        1 RMC      0.112700
     52 HBB2        4.0830   -4.7710   -1.8600 hx        1 RMC      0.112700
     53 HBB3        5.4230   -3.7920   -2.6580 hx        1 RMC      0.112700
     54 HAE         6.5720   -1.4790   -3.2410 ha        1 RMC      0.138000
     55 HAS2        0.1490   -1.7410    1.2080 hn        1 RMC      0.488300
     56 HAJ1        5.7880   -4.1230   -0.3040 hn        1 RMC      0.486800
     57 HAG         8.8100   -1.7470   -4.2990 ha        1 RMC      0.167000
@<TRIPOS>BOND
     1    1    2 1   
     2    1   28 1   
     3    2    3 1   
     4    2   29 1   
     5    2   30 1   
     6    3    4 1   
     7    3    6 1   
     8    3   31 1   
     9    4    5 1   
    10    4   32 1   
    11    4   33 1   
    12    5   34 1   
    13    5   35 1   
    14    5   36 1   
    15    6    7 1   
    16    6   37 1   
    17    6   55 1   
    18    7    8 ar  
    19    7   17 ar  
    20    8    9 ar  
    21    9   10 1   
    22    9   15 ar  
    23   10   11 1   
    24   10   14 1   
    25   11   12 1   
    26   11   13 1   
    27   11   38 1   
    28   12   39 1   
    29   12   40 1   
    30   12   41 1   
    31   13   42 1   
    32   13   43 1   
    33   13   44 1   
    34   14   16 2   
    35   14   45 1   
    36   15   16 1   
    37   15   18 ar  
    38   17   18 ar  
    39   18   19 1   
    40   19   20 1   
    41   19   27 1   
    42   19   56 1   
    43   20   26 1   
    44   20   46 1   
    45   20   47 1   
    46   21   22 ar  
    47   21   26 ar  
    48   21   54 1   
    49   22   23 ar  
    50   22   57 1   
    51   23   24 ar  
    52   23   48 1   
    53   24   25 ar  
    54   24   49 1   
    55   25   26 ar  
    56   25   50 1   
    57   27   51 1   
    58   27   52 1   
    59   27   53 1   
@<TRIPOS>SUBSTRUCTURE
     1 RMC         1 TEMP              0 ****  ****    0 ROOT
