@<TRIPOS>MOLECULE
RMC
   55    57     1     0     0
SMALL
bcc


@<TRIPOS>ATOM
      1 OAP        -0.5650   -0.3760    0.6600 oh        1 RMC     -0.607800
      2 CAQ         0.7800   -0.1460    0.2720 c3        1 RMC      0.094400
      3 CAR         1.6170    0.0420    1.5590 c3        1 RMC      0.209500
      4 CAK         1.0890    1.2810    2.3030 c3        1 RMC     -0.079400
      5 CAI         1.9670    1.6800    3.4580 c3        1 RMC     -0.091100
      6 NAS         1.6340   -1.1210    2.4260 nh        1 RMC     -0.801900
      7 CAT         2.2990   -2.3030    2.0230 ca        1 RMC      0.910900
      8 NAU         1.8990   -3.4610    2.6710 nb        1 RMC     -0.786000
      9 CAV         2.6620   -4.5390    2.3580 ca        1 RMC      0.488800
     10 NAW         2.5790   -5.8590    2.8310 na        1 RMC     -0.270000
     11 CAZ         1.6370   -6.3840    3.7930 c3        1 RMC      0.057000
     12 CAY         0.7570   -7.4930    3.2090 c3        1 RMC     -0.111100
     13 CBA         2.3210   -6.9080    5.0590 c3        1 RMC     -0.111100
     14 CAX         3.6190   -6.5700    2.1840 cc        1 RMC      0.390700
     15 CAN         3.7810   -4.5330    1.4180 ca        1 RMC     -0.242200
     16 NAO         4.3440   -5.8170    1.3480 nd        1 RMC     -0.536100
     17 NAL         3.3170   -2.1880    1.0860 nb        1 RMC     -0.842000
     18 CAM         4.0870   -3.2780    0.7950 ca        1 RMC      0.777200
     19 NAJ         5.1810   -3.1480   -0.0620 nh        1 RMC     -0.758300
     20 CAD         5.4970   -1.8430   -0.6190 c3        1 RMC      0.255100
     21 CAE         7.2480   -1.4890   -2.3890 ca        1 RMC     -0.115000
     22 CAG         8.5750   -1.2970   -2.7740 ca        1 RMC     -0.133000
     23 CAH         9.5910   -1.3220   -1.8200 ca        1 RMC     -0.125000
     24 CAF         9.2800   -1.5380   -0.4770 ca        1 RMC     -0.133000
     25 CAC         7.9540   -1.7260   -0.0880 ca        1 RMC     -0.115000
     26 CAB         6.9320   -1.7010   -1.0430 ca        1 RMC     -0.102300
     27 CBB         5.6230   -4.3000   -0.8070 c3        1 RMC      0.198100
     28 HAP        -1.0480   -0.6050   -0.1420 ho        1 RMC      0.403000
     29 HAQ1        0.8420    0.7870   -0.3490 h1        1 RMC      0.034200
     30 HAQ2        1.1670   -1.0120   -0.3260 h1        1 RMC      0.034200
     31 HAR         2.6780    0.2580    1.2310 h1        1 RMC      0.085700
     32 HAK1        0.0410    1.0900    2.6550 hc        1 RMC      0.050700
     33 HAK2        1.0420    2.1180    1.5580 hc        1 RMC      0.050700
     34 HAI1        3.0240    1.8130    3.1240 hc        1 RMC      0.037033
     35 HAI2        1.6090    2.6450    3.8930 hc        1 RMC      0.037033
     36 HAI3        1.9500    0.9060    4.2630 hc        1 RMC      0.037033
     37 HAS         0.7470   -1.2870    2.8630 hn        1 RMC      0.426800
     38 HAZ         0.9620   -5.5240    4.0930 h1        1 RMC      0.091700
     39 HAY1        1.3710   -8.3780    2.9150 hc        1 RMC      0.046533
     40 HAY2        0.1980   -7.1300    2.3140 hc        1 RMC      0.046533
     41 HAY3        0.0210   -7.8100    3.9860 hc        1 RMC      0.046533
     42 HBA1        2.9850   -7.7740    4.8270 hc        1 RMC      0.046533
     43 HBA2        1.5340   -7.2430    5.7770 hc        1 RMC      0.046533
     44 HBA3        2.9300   -6.1090    5.5450 hc        1 RMC      0.046533
     45 HAX         3.7790   -7.6360    2.3820 h5        1 RMC      0.068800
     46 HAD1        4.8240   -1.6330   -1.5020 h1        1 RMC      0.059200
     47 HAD2        5.3000   -1.0500    0.1610 h1        1 RMC      0.059200
     48 HAG         8.8180   -1.1270   -3.8330 ha        1 RMC      0.132000
     49 HAH        10.6370   -1.1720   -2.1250 ha        1 RMC      0.131000
     50 HAF        10.0800   -1.5600    0.2770 ha        1 RMC      0.132000
     51 HAC         7.7060   -1.8970    0.9710 ha        1 RMC      0.137500
     52 HBB1        6.1930   -3.9670   -1.7160 h1        1 RMC      0.051367
     53 HBB2        4.7580   -4.9330   -1.1430 h1        1 RMC      0.051367
     54 HBB3        6.3040   -4.9200   -0.1650 h1        1 RMC      0.051367
     55 HAE         6.4490   -1.4710   -3.1460 ha        1 RMC      0.137500
@<TRIPOS>BOND
     1    1    2 1   
     2    1   28 1   
     3    2    3 1   
     4    2   29 1   
     5    2   30 1   
     6    3    4 1   
     7    3    6 1   
     8    3   31 1   
     9    4    5 1   
    10    4   32 1   
    11    4   33 1   
    12    5   34 1   
    13    5   35 1   
    14    5   36 1   
    15    6    7 1   
    16    6   37 1   
    17    7    8 ar  
    18    7   17 ar  
    19    8    9 ar  
    20    9   10 1   
    21    9   15 ar  
    22   10   11 1   
    23   10   14 1   
    24   11   12 1   
    25   11   13 1   
    26   11   38 1   
    27   12   39 1   
    28   12   40 1   
    29   12   41 1   
    30   13   42 1   
    31   13   43 1   
    32   13   44 1   
    33   14   16 2   
    34   14   45 1   
    35   15   16 1   
    36   15   18 ar  
    37   17   18 ar  
    38   18   19 1   
    39   19   20 1   
    40   19   27 1   
    41   20   26 1   
    42   20   46 1   
    43   20   47 1   
    44   21   22 ar  
    45   21   26 ar  
    46   21   55 1   
    47   22   23 ar  
    48   22   48 1   
    49   23   24 ar  
    50   23   49 1   
    51   24   25 ar  
    52   24   50 1   
    53   25   26 ar  
    54   25   51 1   
    55   27   52 1   
    56   27   53 1   
    57   27   54 1   
@<TRIPOS>SUBSTRUCTURE
     1 RMC         1 TEMP              0 ****  ****    0 ROOT
