@<TRIPOS>MOLECULE
RMC
   55    57     1     0     0
SMALL
bcc


@<TRIPOS>ATOM
      1 OAP        -0.5650   -0.3740    0.6650 oh        1 RMC     -0.607800
      2 CAQ         0.7800   -0.1440    0.2780 c3        1 RMC      0.094400
      3 CAR         1.6180    0.0410    1.5640 c3        1 RMC      0.209500
      4 CAK         1.0900    1.2790    2.3100 c3        1 RMC     -0.079400
      5 CAI         1.9680    1.6770    3.4660 c3        1 RMC     -0.091100
      6 NAS         1.6340   -1.1230    2.4290 nu        1 RMC     -0.801900
      7 CAT         2.2990   -2.3040    2.0240 ca        1 RMC      0.910900
      8 NAU         1.9000   -3.4630    2.6700 nb        1 RMC     -0.786000
      9 CAV         2.6630   -4.5410    2.3560 ca        1 RMC      0.488800
     10 NAW         2.5790   -5.8610    2.8270 na        1 RMC     -0.270000
     11 CAZ         1.6380   -6.3880    3.7880 c3        1 RMC      0.057000
     12 CAY         0.7580   -7.4960    3.2020 c3        1 RMC     -0.111100
     13 CBA         2.3210   -6.9150    5.0530 c3        1 RMC     -0.111100
     14 CAX         3.6190   -6.5720    2.1780 cc        1 RMC      0.390700
     15 CAN         3.7810   -4.5340    1.4150 ca        1 RMC     -0.242200
     16 NAO         4.3440   -5.8180    1.3430 nd        1 RMC     -0.536100
     17 NAL         3.3170   -2.1880    1.0860 nb        1 RMC     -0.842000
     18 CAM         4.0870   -3.2770    0.7930 ca        1 RMC      0.777200
     19 NAJ         5.1800   -3.1460   -0.0630 nh        1 RMC     -0.758300
     20 CAD         5.4970   -1.8410   -0.6190 c3        1 RMC      0.255100
     21 CAE         7.2470   -1.4830   -2.3880 ca        1 RMC     -0.115000
     22 CAG         8.5730   -1.2900   -2.7730 ca        1 RMC     -0.133000
     23 CAH         9.5900   -1.3170   -1.8190 ca        1 RMC     -0.125000
     24 CAF         9.2790   -1.5360   -0.4770 ca        1 RMC     -0.133000
     25 CAC         7.9530   -1.7240   -0.0870 ca        1 RMC     -0.115000
     26 CAB         6.9310   -1.6970   -1.0430 ca        1 RMC     -0.102300
     27 CBB         5.6220   -4.2970   -0.8110 c3        1 RMC      0.198100
     28 HAP        -1.0490   -0.6030   -0.1370 ho        1 RMC      0.403000
     29 HAQ1        0.8420    0.7900   -0.3430 h1        1 RMC      0.034200
     30 HAQ2        1.1670   -1.0100   -0.3230 h1        1 RMC      0.034200
     31 HAR         2.6780    0.2590    1.2360 h1        1 RMC      0.085700
     32 HAK1        1.0420    2.1180    1.5670 hc        1 RMC      0.050700
     33 HAK2        0.0420    1.0880    2.6620 hc        1 RMC      0.050700
     34 HAI1        1.9520    0.9010    4.2690 hc        1 RMC      0.037033
     35 HAI2        1.6110    2.6410    3.9020 hc        1 RMC      0.037033
     36 HAI3        3.0250    1.8100    3.1310 hc        1 RMC      0.037033
     37 HAS         0.7470   -1.2890    2.8670 hn        1 RMC      0.426800
     38 HAZ         0.9620   -5.5290    4.0890 h1        1 RMC      0.091700
     39 HAY1        0.0210   -7.8140    3.9790 hc        1 RMC      0.046533
     40 HAY2        0.1980   -7.1310    2.3080 hc        1 RMC      0.046533
     41 HAY3        1.3710   -8.3800    2.9060 hc        1 RMC      0.046533
     42 HBA1        2.9300   -6.1160    5.5400 hc        1 RMC      0.046533
     43 HBA2        2.9860   -7.7800    4.8180 hc        1 RMC      0.046533
     44 HBA3        1.5340   -7.2510    5.7700 hc        1 RMC      0.046533
     45 HAX         3.7790   -7.6380    2.3740 h5        1 RMC      0.068800
     46 HAD1        4.8230   -1.6290   -1.5010 h1        1 RMC      0.059200
     47 HAD2        5.2990   -1.0480    0.1620 h1        1 RMC      0.059200
     48 HAG         8.8170   -1.1190   -3.8320 ha        1 RMC      0.132000
     49 HAH        10.6360   -1.1660   -2.1240 ha        1 RMC      0.131000
     50 HAF        10.0790   -1.5590    0.2770 ha        1 RMC      0.132000
     51 HAC         7.7060   -1.8980    0.9710 ha        1 RMC      0.137500
     52 HBB1        6.1920   -3.9620   -1.7190 h1        1 RMC      0.051367
     53 HBB2        4.7580   -4.9290   -1.1470 h1        1 RMC      0.051367
     54 HBB3        6.3040   -4.9180   -0.1700 h1        1 RMC      0.051367
     55 HAE         6.4490   -1.4640   -3.1450 ha        1 RMC      0.137500
@<TRIPOS>BOND
     1    1    2 1   
     2    1   28 1   
     3    2    3 1   
     4    2   29 1   
     5    2   30 1   
     6    3    4 1   
     7    3    6 1   
     8    3   31 1   
     9    4    5 1   
    10    4   32 1   
    11    4   33 1   
    12    5   34 1   
    13    5   35 1   
    14    5   36 1   
    15    6    7 1   
    16    6   37 1   
    17    7    8 ar  
    18    7   17 ar  
    19    8    9 ar  
    20    9   10 1   
    21    9   15 ar  
    22   10   11 1   
    23   10   14 1   
    24   11   12 1   
    25   11   13 1   
    26   11   38 1   
    27   12   39 1   
    28   12   40 1   
    29   12   41 1   
    30   13   42 1   
    31   13   43 1   
    32   13   44 1   
    33   14   16 2   
    34   14   45 1   
    35   15   16 1   
    36   15   18 ar  
    37   17   18 ar  
    38   18   19 1   
    39   19   20 1   
    40   19   27 1   
    41   20   26 1   
    42   20   46 1   
    43   20   47 1   
    44   21   22 ar  
    45   21   26 ar  
    46   21   55 1   
    47   22   23 ar  
    48   22   48 1   
    49   23   24 ar  
    50   23   49 1   
    51   24   25 ar  
    52   24   50 1   
    53   25   26 ar  
    54   25   51 1   
    55   27   52 1   
    56   27   53 1   
    57   27   54 1   
@<TRIPOS>SUBSTRUCTURE
     1 RMC         1 TEMP              0 ****  ****    0 ROOT
