@<TRIPOS>MOLECULE
RME
   39    40     1     0     0
SMALL
bcc


@<TRIPOS>ATOM
      1 C1          2.0680   -0.4080   -0.9240 c3        1 RME     -0.135100
      2 N1          3.2690    0.2820    1.1590 ny        1 RME     -0.667800
      3 O1          2.9630    2.4010    2.0780 o         1 RME     -0.424100
      4 C2          2.0920    0.5200    0.2710 c3        1 RME      0.105800
      5 N2          5.3180   -0.6350    4.9320 nb        1 RME     -0.681000
      6 C3          3.3380    1.2620    2.3170 c         1 RME      0.591700
      7 N3          5.6650   -0.4810    2.5200 nh        1 RME     -0.781300
      8 C4          3.8030    0.7120    3.5890 ca        1 RME     -0.340900
      9 N4          7.8670   -1.0060    0.7050 n3        1 RME     -0.736600
     10 C5          3.0990    1.0900    4.7510 ca        1 RME     -0.013000
     11 C6          3.4940    0.5820    5.9790 ca        1 RME     -0.251300
     12 C7          4.6060   -0.2890    6.0120 ca        1 RME      0.487200
     13 C8          4.9460   -0.1400    3.7130 ca        1 RME      0.660200
     14 C9          6.5410    0.6040    2.0620 c3        1 RME      0.157300
     15 C10         7.1860    0.2750    0.7000 c3        1 RME      0.171800
     16 C11         7.0270   -2.0860    1.1950 c3        1 RME      0.171800
     17 C12         6.3770   -1.7610    2.5570 c3        1 RME      0.157300
     18 C13         8.5210   -1.3110   -0.5460 c3        1 RME      0.157100
     19 H1          2.9650   -0.2690   -1.5750 hc        1 RME      0.078033
     20 H1A         2.0070   -1.4810   -0.6150 hc        1 RME      0.078033
     21 H1B         1.1570   -0.1680   -1.5300 hc        1 RME      0.078033
     22 HN1         3.2360   -0.6750    1.5300 hn        1 RME      0.465800
     23 H2          1.1630    0.3820    0.8950 hx        1 RME      0.111200
     24 H2A         2.1310    1.5970   -0.0690 hx        1 RME      0.111200
     25 H5          2.2440    1.7830    4.6720 ha        1 RME      0.170000
     26 H6          2.9680    0.8500    6.9070 ha        1 RME      0.182000
     27 H7          4.9570   -0.7280    6.9690 h4        1 RME      0.060100
     28 H9          5.9240    1.5390    1.9500 h1        1 RME      0.066450
     29 H9A         7.3590    0.8120    2.8100 h1        1 RME      0.066450
     30 H10         7.9470    1.0760    0.4810 h1        1 RME      0.041700
     31 H10A        6.3880    0.3300   -0.1010 h1        1 RME      0.041700
     32 H11         6.2180   -2.3590    0.4570 h1        1 RME      0.041700
     33 H11A        7.6800   -2.9920    1.3430 h1        1 RME      0.041700
     34 H12         7.1810   -1.7700    3.3490 h1        1 RME      0.066450
     35 H12A        5.6340   -2.5700    2.7990 h1        1 RME      0.066450
     36 H13         9.2290   -0.4780   -0.7960 h1        1 RME      0.046033
     37 H13A        9.1090   -2.2590   -0.4210 h1        1 RME      0.046033
     38 H13B        7.8020   -1.4430   -1.4010 h1        1 RME      0.046033
     39 H121        4.1350    0.3720    0.6090 hn        1 RME      0.465800
@<TRIPOS>BOND
     1    1    4 1   
     2    1   19 1   
     3    1   20 1   
     4    1   21 1   
     5    2    4 1   
     6    2    6 1   
     7    2   22 1   
     8    2   39 1   
     9    3    6 2   
    10    4   23 1   
    11    4   24 1   
    12    5   12 ar  
    13    5   13 ar  
    14    6    8 1   
    15    7   13 1   
    16    7   14 1   
    17    7   17 1   
    18    8   10 ar  
    19    8   13 ar  
    20    9   15 1   
    21    9   16 1   
    22    9   18 1   
    23   10   11 ar  
    24   10   25 1   
    25   11   12 ar  
    26   11   26 1   
    27   12   27 1   
    28   14   15 1   
    29   14   28 1   
    30   14   29 1   
    31   15   30 1   
    32   15   31 1   
    33   16   17 1   
    34   16   32 1   
    35   16   33 1   
    36   17   34 1   
    37   17   35 1   
    38   18   36 1   
    39   18   37 1   
    40   18   38 1   
@<TRIPOS>SUBSTRUCTURE
     1 RME         1 TEMP              0 ****  ****    0 ROOT
