@<TRIPOS>MOLECULE
RME
   39    40     1     0     0
SMALL
bcc


@<TRIPOS>ATOM
      1 C1          2.7070   -0.4590   -1.1040 c3        1 RME     -0.133100
      2 N1          3.0450   -0.0310    1.3320 n4        1 RME     -0.686800
      3 O1          2.0470    1.8130    2.3480 o         1 RME     -0.432100
      4 C2          2.5220    0.5090    0.0440 c3        1 RME      0.110800
      5 N2          5.5540   -0.2070    4.9310 nb        1 RME     -0.674000
      6 C3          2.8470    0.8980    2.5020 c         1 RME      0.582700
      7 N3          5.5450   -0.3130    2.4940 nh        1 RME     -0.778300
      8 C4          3.6010    0.5900    3.7210 ca        1 RME     -0.312900
      9 N4          7.6840   -1.0350    0.6710 n3        1 RME     -0.736600
     10 C5          2.9900    0.9500    4.9410 ca        1 RME     -0.017000
     11 C6          3.6570    0.7100    6.1350 ca        1 RME     -0.241300
     12 C7          4.9390    0.1240    6.0750 ca        1 RME      0.480200
     13 C8          4.9090    0.0170    3.7500 ca        1 RME      0.638200
     14 C9          6.5830    0.6600    2.1290 c3        1 RME      0.147800
     15 C10         7.2080    0.3340    0.7560 c3        1 RME      0.170800
     16 C11         6.6740   -2.0020    1.0620 c3        1 RME      0.170800
     17 C12         6.0630   -1.6860    2.4430 c3        1 RME      0.147800
     18 C13         8.3170   -1.3440   -0.5900 c3        1 RME      0.157100
     19 H1          3.7840   -0.7080   -1.2670 hc        1 RME      0.076033
     20 H1A         2.1350   -1.4050   -0.9430 hc        1 RME      0.076033
     21 H1B         2.3160    0.0300   -2.0340 hc        1 RME      0.076033
     22 HN1         2.5760   -0.9170    1.5460 hn        1 RME      0.475300
     23 H2          3.0670    1.4760   -0.1620 hx        1 RME      0.109700
     24 H2A         1.4290    0.7510    0.1850 hx        1 RME      0.109700
     25 H5          1.9920    1.4220    4.9340 ha        1 RME      0.176000
     26 H6          3.2070    0.9740    7.1040 ha        1 RME      0.184000
     27 H7          5.5140   -0.0890    7.0000 h4        1 RME      0.061100
     28 H9          7.4030    0.6940    2.9030 h1        1 RME      0.069700
     29 H9A         6.1080    1.6770    2.0710 h1        1 RME      0.069700
     30 H10         8.0910    1.0200    0.6160 h1        1 RME      0.042700
     31 H10A        6.4540    0.5710   -0.0520 h1        1 RME      0.042700
     32 H11         7.1660   -3.0130    1.1320 h1        1 RME      0.042700
     33 H11A        5.8410   -2.0750    0.3010 h1        1 RME      0.042700
     34 H12         6.8470   -1.8690    3.2330 h1        1 RME      0.069700
     35 H12A        5.2060   -2.3900    2.6270 h1        1 RME      0.069700
     36 H13         7.6100   -1.2980   -1.4630 h1        1 RME      0.046033
     37 H13A        8.7500   -2.3780   -0.5310 h1        1 RME      0.046033
     38 H13B        9.1510   -0.6140   -0.7620 h1        1 RME      0.046033
     39 H121        4.0740   -0.2250    1.2540 hn        1 RME      0.475300
@<TRIPOS>BOND
     1    1    4 1   
     2    1   19 1   
     3    1   20 1   
     4    1   21 1   
     5    2    4 1   
     6    2    6 1   
     7    2   22 1   
     8    2   39 1   
     9    3    6 2   
    10    4   23 1   
    11    4   24 1   
    12    5   12 ar  
    13    5   13 ar  
    14    6    8 1   
    15    7   13 1   
    16    7   14 1   
    17    7   17 1   
    18    8   10 ar  
    19    8   13 ar  
    20    9   15 1   
    21    9   16 1   
    22    9   18 1   
    23   10   11 ar  
    24   10   25 1   
    25   11   12 ar  
    26   11   26 1   
    27   12   27 1   
    28   14   15 1   
    29   14   28 1   
    30   14   29 1   
    31   15   30 1   
    32   15   31 1   
    33   16   17 1   
    34   16   32 1   
    35   16   33 1   
    36   17   34 1   
    37   17   35 1   
    38   18   36 1   
    39   18   37 1   
    40   18   38 1   
@<TRIPOS>SUBSTRUCTURE
     1 RME         1 TEMP              0 ****  ****    0 ROOT
