@<TRIPOS>MOLECULE
RME
   38    39     1     0     0
SMALL
bcc


@<TRIPOS>ATOM
      1 C1          3.0600    3.1160    0.3690 c3        1 RME     -0.108100
      2 N1          1.9880    0.9590   -0.1990 n         1 RME     -0.550900
      3 O1          2.1490    0.0290   -2.2930 o         1 RME     -0.614100
      4 C2          2.2830    2.2940   -0.6480 c3        1 RME      0.086000
      5 N2         -0.1640   -2.8070    0.6580 nb        1 RME     -0.706000
      6 C3          1.8650   -0.0910   -1.0820 c         1 RME      0.679700
      7 N3         -0.6890   -0.4600    0.2530 nh        1 RME     -0.738300
      8 C4          1.4450   -1.4040   -0.5110 ca        1 RME     -0.257900
      9 N4         -3.0420    1.2440    0.2100 n3        1 RME     -0.734600
     10 C5          2.3180   -2.4890   -0.6310 ca        1 RME     -0.039000
     11 C6          1.9560   -3.7210   -0.0920 ca        1 RME     -0.271300
     12 C7          0.7090   -3.8170    0.5500 ca        1 RME      0.430200
     13 C8          0.1830   -1.5910    0.1310 ca        1 RME      0.627200
     14 C9         -1.3000   -0.0650   -1.0150 c3        1 RME      0.172800
     15 C10        -2.0810    1.2580   -0.8830 c3        1 RME      0.167300
     16 C11        -2.4550    0.7940    1.4640 c3        1 RME      0.167300
     17 C12        -1.6770   -0.5300    1.3250 c3        1 RME      0.172800
     18 C13        -3.7450    2.4980    0.3450 c3        1 RME      0.158100
     19 H1          3.2350    4.1340   -0.0560 hc        1 RME      0.041367
     20 H1A         2.4930    3.2230    1.3250 hc        1 RME      0.041367
     21 H1B         4.0490    2.6490    0.5940 hc        1 RME      0.041367
     22 HN1         1.6280    0.8580    0.7210 hn        1 RME      0.319500
     23 H2          1.3160    2.8310   -0.8840 h1        1 RME      0.051700
     24 H2A         2.8740    2.2250   -1.6070 h1        1 RME      0.051700
     25 H5          3.2800   -2.3570   -1.1520 ha        1 RME      0.156000
     26 H6          2.6180   -4.5930   -0.1630 ha        1 RME      0.150000
     27 H7          0.3770   -4.7720    1.0010 h4        1 RME      0.025100
     28 H9         -0.4850    0.0850   -1.7780 h1        1 RME      0.056700
     29 H9A        -1.9990   -0.8640   -1.3970 h1        1 RME      0.056700
     30 H10        -2.6530    1.4110   -1.8410 h1        1 RME      0.038450
     31 H10A       -1.3420    2.1060   -0.7810 h1        1 RME      0.038450
     32 H11        -1.7710    1.5750    1.9080 h1        1 RME      0.038450
     33 H11A       -3.2960    0.6180    2.1920 h1        1 RME      0.038450
     34 H12        -2.4170   -1.3660    1.1640 h1        1 RME      0.056700
     35 H12A       -1.1350   -0.7200    2.2920 h1        1 RME      0.056700
     36 H13        -4.2470    2.7380   -0.6290 h1        1 RME      0.033033
     37 H13A       -4.5300    2.3880    1.1380 h1        1 RME      0.033033
     38 H13B       -3.0750    3.3580    0.6230 h1        1 RME      0.033033
@<TRIPOS>BOND
     1    1    4 1   
     2    1   19 1   
     3    1   20 1   
     4    1   21 1   
     5    2    4 1   
     6    2    6 1   
     7    2   22 1   
     8    3    6 2   
     9    4   23 1   
    10    4   24 1   
    11    5   12 ar  
    12    5   13 ar  
    13    6    8 1   
    14    7   13 1   
    15    7   14 1   
    16    7   17 1   
    17    8   10 ar  
    18    8   13 ar  
    19    9   15 1   
    20    9   16 1   
    21    9   18 1   
    22   10   11 ar  
    23   10   25 1   
    24   11   12 ar  
    25   11   26 1   
    26   12   27 1   
    27   14   15 1   
    28   14   28 1   
    29   14   29 1   
    30   15   30 1   
    31   15   31 1   
    32   16   17 1   
    33   16   32 1   
    34   16   33 1   
    35   17   34 1   
    36   17   35 1   
    37   18   36 1   
    38   18   37 1   
    39   18   38 1   
@<TRIPOS>SUBSTRUCTURE
     1 RME         1 TEMP              0 ****  ****    0 ROOT
