@<TRIPOS>MOLECULE
RME
   39    40     1     0     0
SMALL
bcc


@<TRIPOS>ATOM
      1 C1          2.0740   -0.4370   -0.9280 c3        1 RME     -0.135100
      2 N1          3.2580    0.2520    1.1650 n4        1 RME     -0.667800
      3 O1          2.9050    2.3500    2.1130 o         1 RME     -0.424100
      4 C2          2.0770    0.4750    0.2800 c3        1 RME      0.105800
      5 N2          5.3260   -0.6710    4.9260 nb        1 RME     -0.681000
      6 C3          3.3040    1.2160    2.3370 c         1 RME      0.591700
      7 N3          5.6710   -0.4760    2.5170 nh        1 RME     -0.781300
      8 C4          3.7810    0.6590    3.6010 ca        1 RME     -0.340900
      9 N4          7.8840   -0.9250    0.6960 n3        1 RME     -0.736600
     10 C5          3.0680    1.0050    4.7680 ca        1 RME     -0.013000
     11 C6          3.4750    0.4900    5.9890 ca        1 RME     -0.251300
     12 C7          4.6060   -0.3570    6.0100 ca        1 RME      0.487200
     13 C8          4.9440   -0.1680    3.7140 ca        1 RME      0.660200
     14 C9          6.5220    0.6350    2.0750 c3        1 RME      0.157300
     15 C10         7.1740    0.3390    0.7080 c3        1 RME      0.171800
     16 C11         7.0690   -2.0300    1.1710 c3        1 RME      0.171800
     17 C12         6.4120   -1.7400    2.5360 c3        1 RME      0.157300
     18 C13         8.5460   -1.1990   -0.5590 c3        1 RME      0.157100
     19 H1          2.9680   -0.2680   -1.5770 hc        1 RME      0.078033
     20 H1A         1.1580   -0.2080   -1.5310 hc        1 RME      0.078033
     21 H1B         2.0370   -1.5140   -0.6340 hc        1 RME      0.078033
     22 HN1         4.1220    0.3690    0.6160 hn        1 RME      0.465800
     23 H2          2.0910    1.5580   -0.0450 hx        1 RME      0.111200
     24 H2A         1.1510    0.3070    0.9010 hx        1 RME      0.111200
     25 H5          2.1980    1.6800    4.6980 ha        1 RME      0.170000
     26 H6          2.9420    0.7330    6.9200 ha        1 RME      0.182000
     27 H7          4.9670   -0.8000    6.9610 h4        1 RME      0.060100
     28 H9          5.8840    1.5570    1.9750 h1        1 RME      0.066450
     29 H9A         7.3350    0.8520    2.8260 h1        1 RME      0.066450
     30 H10         6.3760    0.3870   -0.0920 h1        1 RME      0.041700
     31 H10A        7.9170    1.1600    0.5010 h1        1 RME      0.041700
     32 H11         7.7420   -2.9240    1.3060 h1        1 RME      0.041700
     33 H11A        6.2660   -2.3120    0.4280 h1        1 RME      0.041700
     34 H12         5.6860   -2.5680    2.7660 h1        1 RME      0.066450
     35 H12A        7.2150   -1.7420    3.3290 h1        1 RME      0.066450
     36 H13         7.8300   -1.3340   -1.4150 h1        1 RME      0.046033
     37 H13A        9.1550   -2.1340   -0.4470 h1        1 RME      0.046033
     38 H13B        9.2350   -0.3460   -0.7960 h1        1 RME      0.046033
     39 H121        3.2470   -0.7110    1.5230 hn        1 RME      0.465800
@<TRIPOS>BOND
     1    1    4 1   
     2    1   19 1   
     3    1   20 1   
     4    1   21 1   
     5    2    4 1   
     6    2    6 1   
     7    2   22 1   
     8    2   39 1   
     9    3    6 2   
    10    4   23 1   
    11    4   24 1   
    12    5   12 ar  
    13    5   13 ar  
    14    6    8 1   
    15    7   13 1   
    16    7   14 1   
    17    7   17 1   
    18    8   10 ar  
    19    8   13 ar  
    20    9   15 1   
    21    9   16 1   
    22    9   18 1   
    23   10   11 ar  
    24   10   25 1   
    25   11   12 ar  
    26   11   26 1   
    27   12   27 1   
    28   14   15 1   
    29   14   28 1   
    30   14   29 1   
    31   15   30 1   
    32   15   31 1   
    33   16   17 1   
    34   16   32 1   
    35   16   33 1   
    36   17   34 1   
    37   17   35 1   
    38   18   36 1   
    39   18   37 1   
    40   18   38 1   
@<TRIPOS>SUBSTRUCTURE
     1 RME         1 TEMP              0 ****  ****    0 ROOT
