@<TRIPOS>MOLECULE
RMM
   29    30     1     0     0
SMALL
bcc


@<TRIPOS>ATOM
      1 N01        -0.6040    0.5170    2.5840 n1        1 RMM     -0.298800
      2 C02        -0.3470    0.2930    1.4710 cg        1 RMM      0.153500
      3 C03         0.0000   -0.0100    0.1330 ce        1 RMM     -0.195900
      4 C04         1.4080   -0.2470   -0.1410 c         1 RMM      0.573300
      5 N05         2.3520   -0.1230    1.0460 n4        1 RMM     -0.755400
      6 O06         1.9670   -0.5340   -1.1930 o         1 RMM     -0.438100
      7 C07        -0.8810   -0.1400   -0.9140 cf        1 RMM      0.178800
      8 C08        -2.2950    0.0680   -0.9330 ca        1 RMM     -0.160800
      9 C09        -2.9860    0.8460    0.0150 ca        1 RMM     -0.061000
     10 C10        -4.3650    0.9990   -0.0810 ca        1 RMM     -0.134000
     11 C11        -5.0770    0.3840   -1.1090 ca        1 RMM     -0.052000
     12 C12        -4.4100   -0.3870   -2.0810 ca        1 RMM      0.028000
     13 C13        -5.1370   -1.0130   -3.1460 cc        1 RMM     -0.257300
     14 C14        -6.4700   -0.7770   -3.5540 cd        1 RMM     -0.102300
     15 N15        -6.7060   -1.6300   -4.6250 na        1 RMM     -0.000600
     16 N16        -5.6460   -2.3830   -4.9250 nd        1 RMM     -0.488800
     17 C17        -4.6640   -2.0450   -4.0540 cc        1 RMM      0.316200
     18 C18        -3.0210   -0.5260   -1.9910 ca        1 RMM     -0.064000
     19 H051        2.0870   -0.7970    1.7700 hn        1 RMM      0.470800
     20 H052        3.3160   -0.3070    0.7430 hn        1 RMM      0.470800
     21 H072       -0.4440   -0.4700   -1.8870 ha        1 RMM      0.167000
     22 H091       -2.4430    1.3660    0.8180 ha        1 RMM      0.146000
     23 H101       -4.8990    1.6120    0.6640 ha        1 RMM      0.161000
     24 H111       -6.1710    0.5030   -1.1650 ha        1 RMM      0.155000
     25 H141       -7.2250   -0.0870   -3.1770 h4        1 RMM      0.186000
     26 H151       -7.5480   -1.7180   -5.1500 hn        1 RMM      0.338700
     27 H171       -3.6840   -2.5220   -4.0760 h4        1 RMM      0.044100
     28 H181       -2.4890   -1.1180   -2.7530 ha        1 RMM      0.148000
     29 H053        2.2920    0.8220    1.4380 hn        1 RMM      0.470800
@<TRIPOS>BOND
     1    1    2 3   
     2    2    3 1   
     3    3    4 1   
     4    3    7 2   
     5    4    5 1   
     6    4    6 2   
     7    5   19 1   
     8    5   20 1   
     9    5   29 1   
    10    7    8 1   
    11    7   21 1   
    12    8    9 ar  
    13    8   18 ar  
    14    9   10 ar  
    15    9   22 1   
    16   10   11 ar  
    17   10   23 1   
    18   11   12 ar  
    19   11   24 1   
    20   12   13 1   
    21   12   18 ar  
    22   13   14 2   
    23   13   17 1   
    24   14   15 1   
    25   14   25 1   
    26   15   16 1   
    27   15   26 1   
    28   16   17 2   
    29   17   27 1   
    30   18   28 1   
@<TRIPOS>SUBSTRUCTURE
     1 RMM         1 TEMP              0 ****  ****    0 ROOT
