@<TRIPOS>MOLECULE
RMM
   29    30     1     0     0
SMALL
bcc


@<TRIPOS>ATOM
      1 N01        -0.6310    0.7040    2.5570 n1        1 RMM     -0.299800
      2 C02        -0.3600    0.4210    1.4600 cg        1 RMM      0.153500
      3 C03         0.0040    0.0460    0.1450 ce        1 RMM     -0.195900
      4 C04         1.4130   -0.2170   -0.0960 c         1 RMM      0.573300
      5 N05         2.3410   -0.0390    1.0970 nz        1 RMM     -0.755400
      6 O06         1.9840   -0.5630   -1.1220 o         1 RMM     -0.438100
      7 C07        -0.8640   -0.1300   -0.9070 cf        1 RMM      0.178800
      8 C08        -2.2750    0.0890   -0.9590 ca        1 RMM     -0.160800
      9 C09        -2.9720    0.9210   -0.0610 ca        1 RMM     -0.061000
     10 C10        -4.3480    1.0810   -0.1860 ca        1 RMM     -0.134000
     11 C11        -5.0500    0.4250   -1.1950 ca        1 RMM     -0.052000
     12 C12        -4.3770   -0.4010   -2.1160 ca        1 RMM      0.028000
     13 C13        -5.0940   -1.0710   -3.1620 cc        1 RMM     -0.257300
     14 C14        -6.4900   -1.2540   -3.2870 cd        1 RMM     -0.102300
     15 N15        -6.6850   -1.9640   -4.4660 na        1 RMM     -0.000600
     16 N16        -5.5400   -2.2400   -5.0940 nd        1 RMM     -0.488800
     17 C17        -4.5410   -1.7190   -4.3400 cc        1 RMM      0.316200
     18 C18        -2.9910   -0.5520   -1.9950 ca        1 RMM     -0.064000
     19 H051        2.2840    0.9250    1.4390 hn        1 RMM      0.470467
     20 H052        3.3080   -0.2460    0.8180 hn        1 RMM      0.470467
     21 H072       -0.4150   -0.5150   -1.8540 ha        1 RMM      0.167000
     22 H091       -2.4360    1.4760    0.7220 ha        1 RMM      0.146000
     23 H101       -4.8860    1.7370    0.5170 ha        1 RMM      0.161000
     24 H111       -6.1400    0.5600   -1.2810 ha        1 RMM      0.155000
     25 H141       -7.3150   -0.9480   -2.6440 h4        1 RMM      0.186000
     26 H151       -7.5530   -2.2590   -4.8540 hn        1 RMM      0.338700
     27 H171       -3.4950   -1.7980   -4.6350 h4        1 RMM      0.045100
     28 H181       -2.4540   -1.1940   -2.7130 ha        1 RMM      0.148000
     29 H053        2.0600   -0.6720    1.8510 hn        1 RMM      0.470467
@<TRIPOS>BOND
     1    1    2 3   
     2    2    3 1   
     3    3    4 1   
     4    3    7 2   
     5    4    5 1   
     6    4    6 2   
     7    5   19 1   
     8    5   20 1   
     9    5   29 1   
    10    7    8 1   
    11    7   21 1   
    12    8    9 ar  
    13    8   18 ar  
    14    9   10 ar  
    15    9   22 1   
    16   10   11 ar  
    17   10   23 1   
    18   11   12 ar  
    19   11   24 1   
    20   12   13 1   
    21   12   18 ar  
    22   13   14 2   
    23   13   17 1   
    24   14   15 1   
    25   14   25 1   
    26   15   16 1   
    27   15   26 1   
    28   16   17 2   
    29   17   27 1   
    30   18   28 1   
@<TRIPOS>SUBSTRUCTURE
     1 RMM         1 TEMP              0 ****  ****    0 ROOT
