@<TRIPOS>MOLECULE
RMM
   28    29     1     0     0
SMALL
bcc


@<TRIPOS>ATOM
      1 N01        -0.9100    0.3070    2.5220 n1        1 RMM     -0.367800
      2 C02        -0.5180    0.1840    1.4320 cg        1 RMM      0.195500
      3 C03        -0.0200    0.0140    0.1140 ce        1 RMM     -0.095900
      4 C04         1.4490   -0.2230   -0.0470 c         1 RMM      0.674300
      5 N05         2.2530   -0.2280    1.0630 n         1 RMM     -0.664000
      6 O06         1.9470   -0.4120   -1.1790 o         1 RMM     -0.618100
      7 C07        -0.7920    0.0300   -0.9950 cf        1 RMM      0.038800
      8 C08        -2.2260    0.2500   -1.0620 ca        1 RMM     -0.098800
      9 C09        -2.8780    1.1700   -0.2310 ca        1 RMM     -0.101000
     10 C10        -4.2540    1.3580   -0.3470 ca        1 RMM     -0.127000
     11 C11        -4.9890    0.6360   -1.2830 ca        1 RMM     -0.109000
     12 C12        -4.3510   -0.2870   -2.1290 ca        1 RMM      0.012000
     13 C13        -5.1040   -1.0340   -3.0990 cc        1 RMM     -0.216300
     14 C14        -6.5010   -1.2200   -3.1620 cd        1 RMM     -0.127300
     15 N15        -6.7380   -2.0180   -4.2790 na        1 RMM     -0.017600
     16 N16        -5.6150   -2.3460   -4.9210 nd        1 RMM     -0.510800
     17 C17        -4.5930   -1.7720   -4.2410 cc        1 RMM      0.312200
     18 C18        -2.9650   -0.4660   -2.0160 ca        1 RMM     -0.095000
     19 H051        3.2230   -0.3910    0.9520 hn        1 RMM      0.319500
     20 H052        1.8920   -0.0950    1.9710 hn        1 RMM      0.319500
     21 H072       -0.2950   -0.1590   -1.9720 ha        1 RMM      0.171000
     22 H091       -2.3050    1.7540    0.5050 ha        1 RMM      0.143000
     23 H101       -4.7620    2.0840    0.3060 ha        1 RMM      0.139000
     24 H111       -6.0750    0.7910   -1.3670 ha        1 RMM      0.133000
     25 H141       -7.3020   -0.8630   -2.5170 h4        1 RMM      0.179000
     26 H151       -7.6170   -2.3410   -4.6090 hn        1 RMM      0.324700
     27 H171       -3.5540   -1.8770   -4.5560 h4        1 RMM      0.046100
     28 H181       -2.4530   -1.1830   -2.6750 ha        1 RMM      0.141000
@<TRIPOS>BOND
     1    1    2 3   
     2    2    3 1   
     3    3    4 1   
     4    3    7 2   
     5    4    5 1   
     6    4    6 2   
     7    5   19 1   
     8    5   20 1   
     9    7    8 1   
    10    7   21 1   
    11    8    9 ar  
    12    8   18 ar  
    13    9   10 ar  
    14    9   22 1   
    15   10   11 ar  
    16   10   23 1   
    17   11   12 ar  
    18   11   24 1   
    19   12   13 1   
    20   12   18 ar  
    21   13   14 2   
    22   13   17 1   
    23   14   15 1   
    24   14   25 1   
    25   15   16 1   
    26   15   26 1   
    27   16   17 2   
    28   17   27 1   
    29   18   28 1   
@<TRIPOS>SUBSTRUCTURE
     1 RMM         1 TEMP              0 ****  ****    0 ROOT
