@<TRIPOS>MOLECULE
RMN
   18    18     1     0     0
SMALL
bcc


@<TRIPOS>ATOM
      1 C1          0.2510    0.2880    0.4420 ca        1 RMN     -0.052300
      2 C2         -1.0140    0.4460    1.0280 ca        1 RMN     -0.126000
      3 C3         -1.2180    0.0980    2.3610 ca        1 RMN     -0.150000
      4 C4         -0.1670   -0.4140    3.1240 ca        1 RMN     -0.164000
      5 C5          1.0890   -0.5830    2.5440 ca        1 RMN     -0.150000
      6 C6          1.2980   -0.2340    1.2100 ca        1 RMN     -0.126000
      7 C7          0.4570    0.7090   -0.9810 c3        1 RMN      0.042400
      8 C10        -0.6370    0.1280   -1.9300 c         1 RMN      0.904600
      9 O8          1.7560    0.3640   -1.4330 oh        1 RMN     -0.639800
     10 O11        -0.2560   -0.7700   -2.7320 o         1 RMN     -0.827300
     11 O12        -1.8010    0.6020   -1.8600 o         1 RMN     -0.827300
     12 H2         -1.8410    0.8220    0.3990 ha        1 RMN      0.157500
     13 H3         -2.2120    0.2210    2.8120 ha        1 RMN      0.107500
     14 H4         -0.3310   -0.6880    4.1750 ha        1 RMN      0.103000
     15 H5          1.9170   -0.9930    3.1380 ha        1 RMN      0.107500
     16 H6          2.2860   -0.3670    0.7450 ha        1 RMN      0.157500
     17 H7          0.4080    1.8350   -1.0270 h1        1 RMN      0.054700
     18 HO8         1.6530   -0.4080   -2.0140 ho        1 RMN      0.427000
@<TRIPOS>BOND
     1    1    2 ar  
     2    1    6 ar  
     3    1    7 1   
     4    2    3 ar  
     5    2   12 1   
     6    3    4 ar  
     7    3   13 1   
     8    4    5 ar  
     9    4   14 1   
    10    5    6 ar  
    11    5   15 1   
    12    6   16 1   
    13    7    8 1   
    14    7    9 1   
    15    7   17 1   
    16    8   10 1   
    17    8   11 1   
    18    9   18 1   
@<TRIPOS>SUBSTRUCTURE
     1 RMN         1 TEMP              0 ****  ****    0 ROOT
