@<TRIPOS>MOLECULE
RMN
   18    15     1     0     0
SMALL
bcc


@<TRIPOS>ATOM
      1 C1         -0.0230   -0.1480   -0.2070 c1        1 RMN     -0.045100
      2 C2          1.3620   -0.1900   -0.1910 c1        1 RMN     -0.092750
      3 C3          2.0420   -0.1840    1.0170 c1        1 RMN     -0.092750
      4 C4          1.3360   -0.1350    2.2090 c1        1 RMN     -0.092750
      5 C5         -0.0490   -0.0930    2.1930 c1        1 RMN     -0.092750
      6 C6         -0.7290   -0.0990    0.9850 c1        1 RMN     -0.032500
      7 C7         -0.7650   -0.1670   -1.5240 c3        1 RMN      0.003200
      8 C10        -1.1020    1.2480   -1.9340 c         1 RMN      0.939600
      9 O8         -1.9520   -0.9100   -1.3830 oh        1 RMN     -0.575800
     10 O11        -0.4470    1.8110   -2.8510 o         1 RMN     -0.823300
     11 O12        -2.0410    1.8620   -1.3630 o         1 RMN     -0.823300
     12 H2          1.8590   -0.2390   -1.0300 ha        1 RMN      0.053500
     13 H3          3.0170   -0.2140    1.0280 ha        1 RMN      0.053500
     14 H4          1.8150   -0.1310    3.0600 ha        1 RMN      0.053500
     15 H5         -0.5460   -0.0590    3.0330 ha        1 RMN      0.053500
     16 H6         -1.7050   -0.0840    0.9740 ha        1 RMN      0.132500
     17 H7         -0.2020   -0.5800   -2.2090 h1        1 RMN      0.023700
     18 HO8        -1.8680   -1.6870   -1.8070 ho        1 RMN      0.358000
@<TRIPOS>BOND
     1    1    6 3   
     2    1    7 1   
     3    2    3 3   
     4    2   12 1   
     5    3   13 1   
     6    4    5 3   
     7    4   14 1   
     8    5   15 1   
     9    6   16 1   
    10    7    8 1   
    11    7    9 1   
    12    7   17 1   
    13    8   10 1   
    14    8   11 1   
    15    9   18 1   
@<TRIPOS>SUBSTRUCTURE
     1 RMN         1 TEMP              0 ****  ****    0 ROOT
