@<TRIPOS>MOLECULE
RMN
   18    18     1     0     0
SMALL
bcc


@<TRIPOS>ATOM
      1 C1         -0.0580   -0.0790    0.0380 ca        1 RMN     -0.052300
      2 C2          1.2810    0.3410    0.0510 ca        1 RMN     -0.126000
      3 C3          1.9860    0.4020    1.2500 ca        1 RMN     -0.150000
      4 C4          1.3670    0.0500    2.4500 ca        1 RMN     -0.164000
      5 C5          0.0340   -0.3580    2.4450 ca        1 RMN     -0.150000
      6 C6         -0.6750   -0.4220    1.2460 ca        1 RMN     -0.126000
      7 C7         -0.7820   -0.1780   -1.2700 c3        1 RMN      0.042400
      8 C10        -0.6320    1.1190   -2.1230 c         1 RMN      0.904600
      9 O8         -2.1490   -0.5000   -1.0720 oh        1 RMN     -0.639800
     10 O11        -1.6710    1.8280   -2.2450 o         1 RMN     -0.827300
     11 O12         0.4840    1.3580   -2.6540 o         1 RMN     -0.827300
     12 H2          1.7440    0.6480   -0.9050 ha        1 RMN      0.157500
     13 H3          3.0330    0.7360    1.2520 ha        1 RMN      0.107500
     14 H4          1.9250    0.0990    3.3940 ha        1 RMN      0.103000
     15 H5         -0.4610   -0.6290    3.3880 ha        1 RMN      0.107500
     16 H6         -1.7280   -0.7410    1.2350 ha        1 RMN      0.157500
     17 H7         -0.3480   -1.0400   -1.8510 h1        1 RMN      0.054700
     18 HO8        -2.6530    0.3180   -1.2220 ho        1 RMN      0.427000
@<TRIPOS>BOND
     1    1    2 ar  
     2    1    6 ar  
     3    1    7 1   
     4    2    3 ar  
     5    2   12 1   
     6    3    4 ar  
     7    3   13 1   
     8    4    5 ar  
     9    4   14 1   
    10    5    6 ar  
    11    5   15 1   
    12    6   16 1   
    13    7    8 1   
    14    7    9 1   
    15    7   17 1   
    16    8   10 1   
    17    8   11 1   
    18    9   18 1   
@<TRIPOS>SUBSTRUCTURE
     1 RMN         1 TEMP              0 ****  ****    0 ROOT
