@<TRIPOS>MOLECULE
RMN
   18    18     1     0     0
SMALL
bcc


@<TRIPOS>ATOM
      1 C1         -0.0460   -0.0800    0.0340 ca        1 RMN     -0.052300
      2 C2          1.2770    0.3840    0.0810 ca        1 RMN     -0.126000
      3 C3          1.9520    0.4590    1.2960 ca        1 RMN     -0.150000
      4 C4          1.3180    0.0760    2.4790 ca        1 RMN     -0.164000
      5 C5          0.0000   -0.3770    2.4400 ca        1 RMN     -0.150000
      6 C6         -0.6780   -0.4550    1.2250 ca        1 RMN     -0.126000
      7 C7         -0.7370   -0.1930   -1.2910 c3        1 RMN      0.042400
      8 C10        -0.6120    1.1160   -2.1310 c         1 RMN      0.904600
      9 O8         -2.0960   -0.5630   -1.1280 oh        1 RMN     -0.639800
     10 O11        -1.6710    1.7900   -2.2710 o         1 RMN     -0.827300
     11 O12         0.5080    1.3970   -2.6330 o         1 RMN     -0.827300
     12 H2          1.7510    0.7150   -0.8620 ha        1 RMN      0.157500
     13 H3          2.9870    0.8280    1.3250 ha        1 RMN      0.107500
     14 H4          1.8530    0.1360    3.4360 ha        1 RMN      0.103000
     15 H5         -0.5060   -0.6720    3.3690 ha        1 RMN      0.107500
     16 H6         -1.7200   -0.8090    1.1870 ha        1 RMN      0.157500
     17 H7         -0.2600   -1.0350   -1.8680 h1        1 RMN      0.054700
     18 HO8        -2.6230    0.2380   -1.2830 ho        1 RMN      0.427000
@<TRIPOS>BOND
     1    1    2 ar  
     2    1    6 ar  
     3    1    7 1   
     4    2    3 ar  
     5    2   12 1   
     6    3    4 ar  
     7    3   13 1   
     8    4    5 ar  
     9    4   14 1   
    10    5    6 ar  
    11    5   15 1   
    12    6   16 1   
    13    7    8 1   
    14    7    9 1   
    15    7   17 1   
    16    8   10 1   
    17    8   11 1   
    18    9   18 1   
@<TRIPOS>SUBSTRUCTURE
     1 RMN         1 TEMP              0 ****  ****    0 ROOT
