@<TRIPOS>MOLECULE
RMP
   37    39     1     0     0
SMALL
bcc


@<TRIPOS>ATOM
      1 P           2.6610    4.8200   -3.3770 p5        1 RMP      1.365600
      2 CMP         2.0340    5.2570   -4.8800 c3        1 RMP     -0.378300
      3 OP1         1.6660    5.1150   -2.3120 o         1 RMP     -0.862500
      4 O5'         2.6320    3.1460   -3.5280 os        1 RMP     -0.585200
      5 C5'         1.7010    2.4360   -2.7930 c3        1 RMP      0.180400
      6 C4'         2.3950    1.6250   -1.6860 c3        1 RMP      0.067100
      7 O4'         2.4370    2.3780   -0.4600 os        1 RMP     -0.382600
      8 C1'         1.5600    1.8230    0.5180 c3        1 RMP      0.263800
      9 N9          0.4050    2.6800    0.7260 na        1 RMP     -0.292000
     10 C8          0.1160    3.9520    0.1640 cc        1 RMP      0.461700
     11 N7         -0.9980    4.5070    0.6700 nd        1 RMP     -0.585100
     12 C5         -1.4790    3.5920    1.6180 ca        1 RMP     -0.203200
     13 C6         -2.6080    3.6010    2.4950 ca        1 RMP      0.713200
     14 N6         -3.5360    4.6300    2.4160 nh        1 RMP     -0.938500
     15 N1         -2.7870    2.5550    3.3650 nb        1 RMP     -0.799000
     16 C2         -1.8830    1.5380    3.3110 ca        1 RMP      0.651900
     17 N3         -0.7920    1.3790    2.5310 nb        1 RMP     -0.730000
     18 C4         -0.5960    2.4300    1.6760 ca        1 RMP      0.423800
     19 C3'         1.6770    0.2940   -1.3870 c3        1 RMP      0.114100
     20 C2'         1.2120    0.3840    0.0680 c3        1 RMP     -0.112400
     21 O3'         2.5440   -0.8260   -1.4960 oh        1 RMP     -0.608800
     22 OP3         4.0860    5.1910   -3.2790 o         1 RMP     -0.862500
     23 HMP1        2.6220    6.0920   -5.3220 hc        1 RMP      0.061033
     24 HMP2        2.0680    4.4110   -5.6020 hc        1 RMP      0.061033
     25 HMP3        0.9760    5.5900   -4.7980 hc        1 RMP      0.061033
     26 H5'         0.9310    3.1190   -2.3370 h1        1 RMP      0.035200
     27 H5''        1.1940    1.7080   -3.4930 h1        1 RMP      0.035200
     28 H4'         3.4770    1.4680   -1.9540 h1        1 RMP      0.093700
     29 H1'         2.1500    1.8200    1.4850 h2        1 RMP      0.080700
     30 H8          0.7740    4.4130   -0.6190 h5        1 RMP      0.181800
     31 H61        -3.2240    5.4530    1.9550 hn        1 RMP      0.421300
     32 H62        -4.1490    4.7580    3.1860 hn        1 RMP      0.421300
     33 H2         -2.0770    0.7130    4.0280 h5        1 RMP      0.035100
     34 H3'         0.8060    0.1370   -2.0810 h1        1 RMP      0.049700
     35 H2'         0.1240    0.1530    0.1560 hc        1 RMP      0.078200
     36 H2''        1.7760   -0.3440    0.7020 hc        1 RMP      0.078200
     37 HO3'        3.0270   -0.7250   -2.3250 ho        1 RMP      0.407000
@<TRIPOS>BOND
     1    1    2 1   
     2    1    3 1   
     3    1    4 1   
     4    1   22 1   
     5    2   23 1   
     6    2   24 1   
     7    2   25 1   
     8    4    5 1   
     9    5    6 1   
    10    5   26 1   
    11    5   27 1   
    12    6    7 1   
    13    6   19 1   
    14    6   28 1   
    15    7    8 1   
    16    8    9 1   
    17    8   20 1   
    18    8   29 1   
    19    9   10 1   
    20    9   18 1   
    21   10   11 2   
    22   10   30 1   
    23   11   12 1   
    24   12   13 ar  
    25   12   18 ar  
    26   13   14 1   
    27   13   15 ar  
    28   14   31 1   
    29   14   32 1   
    30   15   16 ar  
    31   16   17 ar  
    32   16   33 1   
    33   17   18 ar  
    34   19   20 1   
    35   19   21 1   
    36   19   34 1   
    37   20   35 1   
    38   20   36 1   
    39   21   37 1   
@<TRIPOS>SUBSTRUCTURE
     1 RMP         1 TEMP              0 ****  ****    0 ROOT
