@<TRIPOS>MOLECULE
RN1
   30    31     1     0     0
SMALL
bcc


@<TRIPOS>ATOM
      1 C01        -0.3710   -0.7070    0.2750 ca        1 RN1     -0.141000
      2 C02         1.0340   -0.7850    0.1310 ca        1 RN1     -0.116000
      3 C03         1.8570   -0.5140    1.1970 ca        1 RN1     -0.129000
      4 C04         1.3130   -0.1530    2.4590 ca        1 RN1     -0.011000
      5 C05        -0.0960   -0.0780    2.6000 ca        1 RN1     -0.053000
      6 C06        -0.9260   -0.3610    1.4840 ca        1 RN1     -0.094000
      7 C07         2.1500    0.1340    3.5740 ca        1 RN1     -0.152000
      8 C08         1.6030    0.4810    4.7830 ca        1 RN1     -0.092000
      9 C09         0.2010    0.5610    4.9500 ca        1 RN1     -0.218000
     10 C10        -0.6290    0.2870    3.8820 ca        1 RN1      0.144100
     11 O11        -2.0100    0.3250    3.9300 os        1 RN1     -0.336900
     12 C12        -2.5760    0.7320    5.1810 c3        1 RN1      0.126400
     13 C13        -4.0910    0.7630    4.9530 c3        1 RN1      0.142100
     14 C14        -4.6650   -0.6560    4.9390 c3        1 RN1      0.091400
     15 O15        -4.6270    1.5200    6.0270 oh        1 RN1     -0.602800
     16 O16        -6.0610   -0.5160    4.7270 oh        1 RN1     -0.613800
     17 H1         -1.0120   -0.9260   -0.5920 ha        1 RN1      0.133000
     18 H2          1.4560   -1.0640   -0.8460 ha        1 RN1      0.132000
     19 H3          2.9510   -0.5710    1.0930 ha        1 RN1      0.134000
     20 H4         -2.0170   -0.2940    1.6120 ha        1 RN1      0.146000
     21 H5          3.2400    0.0700    3.4440 ha        1 RN1      0.134000
     22 H6          2.2470    0.7050    5.6460 ha        1 RN1      0.133000
     23 H7         -0.1970    0.8440    5.9340 ha        1 RN1      0.140000
     24 H8         -2.3030   -0.0040    5.9800 h1        1 RN1      0.057700
     25 H9         -2.2110    1.7550    5.4580 h1        1 RN1      0.057700
     26 H10        -4.3270    1.2720    3.9770 h1        1 RN1      0.065700
     27 H11        -4.4770   -1.1660    5.9210 h1        1 RN1      0.042200
     28 H12        -4.1940   -1.2450    4.1090 h1        1 RN1      0.042200
     29 H13        -5.5880    1.4520    5.9520 ho        1 RN1      0.426000
     30 H14        -6.4290   -1.4060    4.6970 ho        1 RN1      0.410000
@<TRIPOS>BOND
     1    1    2 ar  
     2    1    6 ar  
     3    1   17 1   
     4    2    3 ar  
     5    2   18 1   
     6    3    4 ar  
     7    3   19 1   
     8    4    5 ar  
     9    4    7 ar  
    10    5    6 ar  
    11    5   10 ar  
    12    6   20 1   
    13    7    8 ar  
    14    7   21 1   
    15    8    9 ar  
    16    8   22 1   
    17    9   10 ar  
    18    9   23 1   
    19   10   11 1   
    20   11   12 1   
    21   12   13 1   
    22   12   24 1   
    23   12   25 1   
    24   13   14 1   
    25   13   15 1   
    26   13   26 1   
    27   14   16 1   
    28   14   27 1   
    29   14   28 1   
    30   15   29 1   
    31   16   30 1   
@<TRIPOS>SUBSTRUCTURE
     1 RN1         1 TEMP              0 ****  ****    0 ROOT
