@<TRIPOS>MOLECULE
RN1
   30    31     1     0     0
SMALL
bcc


@<TRIPOS>ATOM
      1 C01        -0.3480   -0.7250    0.2860 ca        1 RN1     -0.141000
      2 C02         1.0580   -0.7910    0.1490 ca        1 RN1     -0.116000
      3 C03         1.8740   -0.5050    1.2160 ca        1 RN1     -0.129000
      4 C04         1.3200   -0.1390    2.4740 ca        1 RN1     -0.011000
      5 C05        -0.0900   -0.0750    2.6070 ca        1 RN1     -0.053000
      6 C06        -0.9120   -0.3740    1.4890 ca        1 RN1     -0.094000
      7 C07         2.1480    0.1640    3.5900 ca        1 RN1     -0.152000
      8 C08         1.5930    0.5160    4.7930 ca        1 RN1     -0.092000
      9 C09         0.1890    0.5850    4.9530 ca        1 RN1     -0.218000
     10 C10        -0.6330    0.2950    3.8830 ca        1 RN1      0.144100
     11 O11        -2.0140    0.3200    3.9240 os        1 RN1     -0.336900
     12 C12        -2.5900    0.7340    5.1690 c3        1 RN1      0.126400
     13 C13        -4.1040    0.7500    4.9330 c3        1 RN1      0.142100
     14 C14        -4.6660   -0.6740    4.9310 c3        1 RN1      0.091400
     15 O15        -4.6520    1.5130    5.9970 oh        1 RN1     -0.602800
     16 O16        -6.0630   -0.5470    4.7100 oh        1 RN1     -0.613800
     17 H1         -0.9830   -0.9560   -0.5830 ha        1 RN1      0.133000
     18 H2          1.4880   -1.0740   -0.8240 ha        1 RN1      0.132000
     19 H3          2.9690   -0.5530    1.1190 ha        1 RN1      0.134000
     20 H4         -2.0050   -0.3160    1.6110 ha        1 RN1      0.146000
     21 H5          3.2400    0.1100    3.4650 ha        1 RN1      0.134000
     22 H6          2.2310    0.7520    5.6580 ha        1 RN1      0.133000
     23 H7         -0.2160    0.8710    5.9330 ha        1 RN1      0.140000
     24 H8         -2.2350    1.7620    5.4390 h1        1 RN1      0.057700
     25 H9         -2.3150    0.0060    5.9750 h1        1 RN1      0.057700
     26 H10        -4.3390    1.2470    3.9500 h1        1 RN1      0.065700
     27 H11        -4.4790   -1.1720    5.9180 h1        1 RN1      0.042200
     28 H12        -4.1870   -1.2670    4.1080 h1        1 RN1      0.042200
     29 H13        -5.6120    1.4370    5.9180 ho        1 RN1      0.426000
     30 H14        -6.4230   -1.4410    4.6870 ho        1 RN1      0.410000
@<TRIPOS>BOND
     1    1    2 ar  
     2    1    6 ar  
     3    1   17 1   
     4    2    3 ar  
     5    2   18 1   
     6    3    4 ar  
     7    3   19 1   
     8    4    5 ar  
     9    4    7 ar  
    10    5    6 ar  
    11    5   10 ar  
    12    6   20 1   
    13    7    8 ar  
    14    7   21 1   
    15    8    9 ar  
    16    8   22 1   
    17    9   10 ar  
    18    9   23 1   
    19   10   11 1   
    20   11   12 1   
    21   12   13 1   
    22   12   24 1   
    23   12   25 1   
    24   13   14 1   
    25   13   15 1   
    26   13   26 1   
    27   14   16 1   
    28   14   27 1   
    29   14   28 1   
    30   15   29 1   
    31   16   30 1   
@<TRIPOS>SUBSTRUCTURE
     1 RN1         1 TEMP              0 ****  ****    0 ROOT
