@<TRIPOS>MOLECULE
RN8
   44    46     1     0     0
SMALL
bcc


@<TRIPOS>ATOM
      1 C4         -0.0340    0.5380    0.1460 ca        1 RN8     -0.122000
      2 C5          1.3620   -0.4280    2.3620 ca        1 RN8     -0.122000
      3 C6          1.3580    0.5350    0.1510 ca        1 RN8     -0.122000
      4 C10         3.7720    2.3570    0.1710 cg        1 RN8      0.286800
      5 C13        -4.3490   -0.8460    1.6820 cc        1 RN8     -0.153400
      6 C15        -2.9780   -1.0590    1.7860 cd        1 RN8     -0.046000
      7 C17        -2.2040    0.0340    1.2410 cd        1 RN8     -0.034000
      8 C20         4.3710   -0.8990    1.7770 cd        1 RN8     -0.082700
      9 C22         4.0580   -2.2110    2.4780 c         1 RN8      0.934200
     10 O28         3.6510   -2.1520    3.6700 o         1 RN8     -0.809800
     11 O26         4.2930   -3.2780    1.8500 o         1 RN8     -0.809800
     12 S30         5.9890   -0.5010    1.5670 ss        1 RN8      0.019200
     13 C14         5.6770    0.9660    0.8400 cd        1 RN8     -0.153400
     14 C2          7.2680    2.7560    1.4960 c3        1 RN8     -0.088100
     15 C18         3.5320    0.0790    1.2690 cc        1 RN8     -0.034000
     16 C16         4.3050    1.1750    0.7280 cc        1 RN8     -0.046000
     17 N24         3.3860    3.3570   -0.2870 n1        1 RN8     -0.424800
     18 C12         2.0770    0.0600    1.2580 ca        1 RN8     -0.018000
     19 C11        -0.7500    0.0510    1.2500 ca        1 RN8     -0.018000
     20 C3         -0.0300   -0.4240    2.3570 ca        1 RN8     -0.122000
     21 N23        -2.0580   -3.2540    2.7730 n1        1 RN8     -0.424800
     22 C19        -3.0430    1.0120    0.7320 cc        1 RN8     -0.082700
     23 S29        -4.6610    0.6150    0.9450 ss        1 RN8      0.019200
     24 H4         -0.5900    0.9500   -0.7180 ha        1 RN8      0.151000
     25 H5          1.9180   -0.8400    3.2250 ha        1 RN8      0.151000
     26 H6          1.8970    0.9090   -0.7320 ha        1 RN8      0.151000
     27 H7         -6.2600   -1.7500    1.4040 hc        1 RN8      0.037700
     28 H7A        -5.0030   -2.8220    2.1390 hc        1 RN8      0.037700
     29 H8          7.5770    1.2980   -0.0670 hc        1 RN8      0.037700
     30 H8A         6.3230    2.5470   -0.4330 hc        1 RN8      0.037700
     31 H2          7.7140    2.1300    2.3060 hc        1 RN8      0.028867
     32 H2A         8.0560    3.4420    1.1010 hc        1 RN8      0.028867
     33 H2B         6.4490    3.3720    1.9400 hc        1 RN8      0.028867
     34 H3         -0.5700   -0.8000    3.2390 ha        1 RN8      0.151000
     35 H1         -6.7110   -2.1620    3.8150 hc        1 RN8      0.028867
     36 H1A        -5.0930   -1.4730    4.2600 hc        1 RN8      0.028867
     37 H1B        -6.3590   -0.4060    3.5300 hc        1 RN8      0.028867
     38 C21        -2.7300    2.3210    0.0260 c         1 RN8      0.934200
     39 C7         -5.4040   -1.7700    2.1320 c3        1 RN8      0.005900
     40 C8          6.7300    1.8870    0.3820 c3        1 RN8      0.005900
     41 O27        -2.3250    2.2580   -1.1670 o         1 RN8     -0.809800
     42 O25        -2.9640    3.3900    0.6520 o         1 RN8     -0.809800
     43 C1         -5.9210   -1.4330    3.5130 c3        1 RN8     -0.088100
     44 C9         -2.4440   -2.2480    2.3290 ch        1 RN8      0.286800
@<TRIPOS>BOND
     1    1    3 ar  
     2    1   19 ar  
     3    1   24 1   
     4    2   18 ar  
     5    2   20 ar  
     6    2   25 1   
     7    3   18 ar  
     8    3   26 1   
     9    4   16 1   
    10    4   17 3   
    11    5    6 2   
    12    5   23 1   
    13    5   39 1   
    14    6    7 1   
    15    6   44 1   
    16    7   19 1   
    17    7   22 2   
    18    8    9 1   
    19    8   12 1   
    20    8   15 2   
    21    9   10 1   
    22    9   11 1   
    23   12   13 1   
    24   13   16 2   
    25   13   40 1   
    26   14   31 1   
    27   14   32 1   
    28   14   33 1   
    29   14   40 1   
    30   15   16 1   
    31   15   18 1   
    32   19   20 ar  
    33   20   34 1   
    34   21   44 3   
    35   22   23 1   
    36   22   38 1   
    37   27   39 1   
    38   28   39 1   
    39   29   40 1   
    40   30   40 1   
    41   35   43 1   
    42   36   43 1   
    43   37   43 1   
    44   38   41 1   
    45   38   42 1   
    46   39   43 1   
@<TRIPOS>SUBSTRUCTURE
     1 RN8         1 TEMP              0 ****  ****    0 ROOT
