@<TRIPOS>MOLECULE
RN8
   44    46     1     0     0
SMALL
bcc


@<TRIPOS>ATOM
      1 C4         -0.6310   -0.9270    0.9070 ca        1 RN8     -0.122000
      2 C5          0.6290    0.9480   -0.7340 ca        1 RN8     -0.122000
      3 C6          0.7580   -0.8330    0.8880 ca        1 RN8     -0.122000
      4 C10         3.2640   -2.3280    0.0940 cg        1 RN8      0.286800
      5 C13        -5.0670    0.6850    0.1240 cc        1 RN8     -0.153400
      6 C15        -3.7140    1.0090    0.1010 cd        1 RN8     -0.046000
      7 C17        -2.8630   -0.1600    0.1400 cd        1 RN8     -0.034000
      8 C20         3.6280    1.3320   -0.0420 cd        1 RN8     -0.082700
      9 C22         3.2190    2.7920   -0.1400 c         1 RN8      0.934200
     10 O28         2.7720    3.1990   -1.2460 o         1 RN8     -0.809800
     11 O26         3.4200    3.5210    0.8690 o         1 RN8     -0.809800
     12 S30         5.2710    0.9870   -0.0330 ss        1 RN8      0.019200
     13 C14         5.0660   -0.6660    0.0320 cd        1 RN8     -0.153400
     14 C2          6.7270   -1.9240   -1.3180 c3        1 RN8     -0.088100
     15 C18         2.8620    0.1790    0.0300 cc        1 RN8     -0.034000
     16 C16         3.7130   -0.9900    0.0640 cc        1 RN8     -0.046000
     17 N24         2.9510   -3.4500    0.1050 n1        1 RN8     -0.424800
     18 C12         1.4100    0.0980    0.0650 ca        1 RN8     -0.018000
     19 C11        -1.4120   -0.0780    0.1080 ca        1 RN8     -0.018000
     20 C3         -0.7600    0.8540   -0.7140 ca        1 RN8     -0.122000
     21 N23        -2.9510    3.4690    0.0910 n1        1 RN8     -0.424800
     22 C19        -3.6290   -1.3120    0.2130 cc        1 RN8     -0.082700
     23 S29        -5.2730   -0.9670    0.2010 ss        1 RN8      0.019200
     24 H4         -1.1310   -1.6910    1.5320 ha        1 RN8      0.151000
     25 H5          1.1290    1.7120   -1.3580 ha        1 RN8      0.151000
     26 H6          1.3490   -1.5000    1.5330 ha        1 RN8      0.151000
     27 H7         -7.0120    1.2710    0.7710 hc        1 RN8      0.037700
     28 H7A        -5.8430    2.6270    0.5260 hc        1 RN8      0.037700
     29 H8          7.0130   -1.2170    0.7020 hc        1 RN8      0.037700
     30 H8A         5.8420   -2.5840    0.5360 hc        1 RN8      0.037700
     31 H2          7.1090   -0.9940   -1.8040 hc        1 RN8      0.028867
     32 H2A         7.5650   -2.6590   -1.2480 hc        1 RN8      0.028867
     33 H2B         5.9280   -2.3550   -1.9670 hc        1 RN8      0.028867
     34 H3         -1.3510    1.5220   -1.3580 ha        1 RN8      0.151000
     35 H1         -7.5730    2.6040   -1.2530 hc        1 RN8      0.028867
     36 H1A        -5.9380    2.2610   -1.9610 hc        1 RN8      0.028867
     37 H1B        -7.1170    0.9100   -1.7180 hc        1 RN8      0.028867
     38 C21        -3.2200   -2.7720    0.3160 c         1 RN8      0.934200
     39 C7         -6.1860    1.6420    0.1050 c3        1 RN8      0.005900
     40 C8          6.1840   -1.6240    0.0600 c3        1 RN8      0.005900
     41 O27        -2.7750   -3.1760    1.4240 o         1 RN8     -0.809800
     42 O25        -3.4190   -3.5040   -0.6910 o         1 RN8     -0.809800
     43 C1         -6.7350    1.8660   -1.2860 c3        1 RN8     -0.088100
     44 C9         -3.2650    2.3470    0.0870 ch        1 RN8      0.286800
@<TRIPOS>BOND
     1    1    3 ar  
     2    1   19 ar  
     3    1   24 1   
     4    2   18 ar  
     5    2   20 ar  
     6    2   25 1   
     7    3   18 ar  
     8    3   26 1   
     9    4   16 1   
    10    4   17 3   
    11    5    6 2   
    12    5   23 1   
    13    5   39 1   
    14    6    7 1   
    15    6   44 1   
    16    7   19 1   
    17    7   22 2   
    18    8    9 1   
    19    8   12 1   
    20    8   15 2   
    21    9   10 1   
    22    9   11 1   
    23   12   13 1   
    24   13   16 2   
    25   13   40 1   
    26   14   31 1   
    27   14   32 1   
    28   14   33 1   
    29   14   40 1   
    30   15   16 1   
    31   15   18 1   
    32   19   20 ar  
    33   20   34 1   
    34   21   44 3   
    35   22   23 1   
    36   22   38 1   
    37   27   39 1   
    38   28   39 1   
    39   29   40 1   
    40   30   40 1   
    41   35   43 1   
    42   36   43 1   
    43   37   43 1   
    44   38   41 1   
    45   38   42 1   
    46   39   43 1   
@<TRIPOS>SUBSTRUCTURE
     1 RN8         1 TEMP              0 ****  ****    0 ROOT
