@<TRIPOS>MOLECULE
RN8
   44    46     1     0     0
SMALL
bcc


@<TRIPOS>ATOM
      1 C4         -0.0340    0.5410    0.1460 ca        1 RN8     -0.122000
      2 C5          1.3610   -0.4300    2.3610 ca        1 RN8     -0.122000
      3 C6          1.3580    0.5370    0.1510 ca        1 RN8     -0.122000
      4 C10         3.7730    2.3570    0.1740 cg        1 RN8      0.286800
      5 C13        -4.3500   -0.8430    1.6800 cc        1 RN8     -0.153400
      6 C15        -2.9790   -1.0570    1.7840 cd        1 RN8     -0.046000
      7 C17        -2.2040    0.0370    1.2410 cd        1 RN8     -0.034000
      8 C20         4.3700   -0.9030    1.7760 cd        1 RN8     -0.082700
      9 C22         4.0560   -2.2150    2.4750 c         1 RN8      0.934200
     10 O28         3.6490   -2.1570    3.6670 o         1 RN8     -0.809800
     11 O26         4.2900   -3.2810    1.8450 o         1 RN8     -0.809800
     12 S30         5.9880   -0.5050    1.5660 ss        1 RN8      0.019200
     13 C14         5.6770    0.9630    0.8420 cd        1 RN8     -0.153400
     14 C2          7.2710    2.7500    1.5000 c3        1 RN8     -0.088100
     15 C18         3.5320    0.0770    1.2690 cc        1 RN8     -0.034000
     16 C16         4.3060    1.1730    0.7300 cc        1 RN8     -0.046000
     17 N24         3.3890    3.3570   -0.2820 n1        1 RN8     -0.424800
     18 C12         2.0770    0.0600    1.2580 ca        1 RN8     -0.018000
     19 C11        -0.7500    0.0530    1.2500 ca        1 RN8     -0.018000
     20 C3         -0.0310   -0.4250    2.3560 ca        1 RN8     -0.122000
     21 N23        -2.0610   -3.2540    2.7670 n1        1 RN8     -0.424800
     22 C19        -3.0430    1.0160    0.7330 cc        1 RN8     -0.082700
     23 S29        -4.6610    0.6200    0.9450 ss        1 RN8      0.019200
     24 H4         -0.5890    0.9550   -0.7160 ha        1 RN8      0.151000
     25 H5          1.9170   -0.8440    3.2240 ha        1 RN8      0.151000
     26 H6          1.8970    0.9120   -0.7310 ha        1 RN8      0.151000
     27 H7         -6.2610   -1.7440    1.4000 hc        1 RN8      0.037700
     28 H7A        -5.0050   -2.8180    2.1330 hc        1 RN8      0.037700
     29 H8          7.5770    1.2940   -0.0650 hc        1 RN8      0.037700
     30 H8A         6.3240    2.5460   -0.4290 hc        1 RN8      0.037700
     31 H2          7.7170    2.1220    2.3080 hc        1 RN8      0.028867
     32 H2A         8.0600    3.4360    1.1070 hc        1 RN8      0.028867
     33 H2B         6.4530    3.3660    1.9460 hc        1 RN8      0.028867
     34 H3         -0.5710   -0.8020    3.2370 ha        1 RN8      0.151000
     35 H1         -6.7120   -2.1610    3.8110 hc        1 RN8      0.028867
     36 H1A        -5.0940   -1.4730    4.2570 hc        1 RN8      0.028867
     37 H1B        -6.3590   -0.4040    3.5290 hc        1 RN8      0.028867
     38 C21        -2.7290    2.3260    0.0300 c         1 RN8      0.934200
     39 C7         -5.4050   -1.7670    2.1290 c3        1 RN8      0.005900
     40 C8          6.7320    1.8840    0.3850 c3        1 RN8      0.005900
     41 O27        -2.3230    2.2650   -1.1630 o         1 RN8     -0.809800
     42 O25        -2.9610    3.3940    0.6570 o         1 RN8     -0.809800
     43 C1         -5.9220   -1.4310    3.5100 c3        1 RN8     -0.088100
     44 C9         -2.4460   -2.2470    2.3250 ch        1 RN8      0.286800
@<TRIPOS>BOND
     1    1    3 ar  
     2    1   19 ar  
     3    1   24 1   
     4    2   18 ar  
     5    2   20 ar  
     6    2   25 1   
     7    3   18 ar  
     8    3   26 1   
     9    4   16 1   
    10    4   17 3   
    11    5    6 2   
    12    5   23 1   
    13    5   39 1   
    14    6    7 1   
    15    6   44 1   
    16    7   19 1   
    17    7   22 2   
    18    8    9 1   
    19    8   12 1   
    20    8   15 2   
    21    9   10 1   
    22    9   11 1   
    23   12   13 1   
    24   13   16 2   
    25   13   40 1   
    26   14   31 1   
    27   14   32 1   
    28   14   33 1   
    29   14   40 1   
    30   15   16 1   
    31   15   18 1   
    32   19   20 ar  
    33   20   34 1   
    34   21   44 3   
    35   22   23 1   
    36   22   38 1   
    37   27   39 1   
    38   28   39 1   
    39   29   40 1   
    40   30   40 1   
    41   35   43 1   
    42   36   43 1   
    43   37   43 1   
    44   38   41 1   
    45   38   42 1   
    46   39   43 1   
@<TRIPOS>SUBSTRUCTURE
     1 RN8         1 TEMP              0 ****  ****    0 ROOT
