@<TRIPOS>MOLECULE
RNA
   38    40     1     0     0
SMALL
bcc


@<TRIPOS>ATOM
      1 C          -6.3160   -2.7690    9.1060 cc        1 RNA     -0.275300
      2 C1         -5.1830   -2.1380    9.7260 cc        1 RNA     -0.195300
      3 C2         -4.1960   -2.0300    8.7530 cd        1 RNA      0.245500
      4 O          -4.6670   -2.5690    7.5430 os        1 RNA     -0.354800
      5 C3         -5.9670   -3.0140    7.7870 cd        1 RNA      0.288000
      6 C4         -6.6660   -3.6230    6.6530 c3        1 RNA     -0.140400
      7 C5         -1.9520   -1.4110    7.8510 cc        1 RNA     -0.166600
      8 S          -2.0000   -1.9150    6.2260 ss        1 RNA     -0.129800
      9 C6         -0.3330   -1.3440    5.9670 cc        1 RNA      0.707100
     10 N           0.2440   -1.4920    4.7290 nh        1 RNA     -0.783100
     11 S1          1.8210   -1.1310    4.2950 sy        1 RNA      1.519200
     12 C7          1.9390    0.5050    4.5520 ca        1 RNA     -0.425500
     13 C8          1.5660    1.4150    3.5500 ca        1 RNA      0.011500
     14 C9          1.6910    2.7840    3.7420 ca        1 RNA     -0.166000
     15 C10         2.1970    3.2840    4.9520 ca        1 RNA      0.005700
     16 C11         2.5770    2.3850    5.9550 ca        1 RNA     -0.166000
     17 C12         2.4490    1.0140    5.7560 ca        1 RNA      0.011500
     18 C13         2.3410    4.7430    5.1560 c3        1 RNA     -0.070800
     19 O14         2.7230   -1.8330    5.1010 o         1 RNA     -0.636300
     20 O1          1.8650   -1.4070    2.9120 o         1 RNA     -0.636300
     21 C15        -0.6020   -0.7900    8.1480 c         1 RNA      0.698700
     22 N1          0.2640   -0.7940    7.0140 nd        1 RNA     -0.698100
     23 O2         -0.2920   -0.3280    9.2490 o         1 RNA     -0.502100
     24 C16        -2.8770   -1.4880    8.8220 cf        1 RNA     -0.083800
     25 H131        1.5630    5.3060    4.5830 hc        1 RNA      0.055367
     26 H132        2.2480    5.0080    6.2380 hc        1 RNA      0.055367
     27 H133        3.3490    5.0750    4.7980 hc        1 RNA      0.055367
     28 H11         2.9740    2.7630    6.9100 ha        1 RNA      0.145000
     29 H12         2.7560    0.3120    6.5540 ha        1 RNA      0.161500
     30 H8          1.1840    1.0290    2.5890 ha        1 RNA      0.161500
     31 H9          1.3950    3.4820    2.9450 ha        1 RNA      0.145000
     32 HN         -0.3670   -1.8790    4.0410 hn        1 RNA      0.465800
     33 H16        -2.6130   -1.0870    9.8250 ha        1 RNA      0.171000
     34 H1         -5.1190   -1.8120   10.7620 ha        1 RNA      0.168000
     35 H          -7.2610   -3.0030    9.5900 ha        1 RNA      0.167000
     36 H41        -7.6920   -3.9340    6.9660 hc        1 RNA      0.064033
     37 H42        -6.7460   -2.8940    5.8080 hc        1 RNA      0.064033
     38 H43        -6.1060   -4.5220    6.2880 hc        1 RNA      0.064033
@<TRIPOS>BOND
     1    1    2 1   
     2    1    5 2   
     3    1   35 1   
     4    2    3 2   
     5    2   34 1   
     6    3    4 1   
     7    3   24 1   
     8    4    5 1   
     9    5    6 1   
    10    6   36 1   
    11    6   37 1   
    12    6   38 1   
    13    7    8 1   
    14    7   21 1   
    15    7   24 2   
    16    8    9 1   
    17    9   10 1   
    18    9   22 2   
    19   10   11 1   
    20   10   32 1   
    21   11   12 1   
    22   11   19 2   
    23   11   20 2   
    24   12   13 ar  
    25   12   17 ar  
    26   13   14 ar  
    27   13   30 1   
    28   14   15 ar  
    29   14   31 1   
    30   15   16 ar  
    31   15   18 1   
    32   16   17 ar  
    33   16   28 1   
    34   17   29 1   
    35   18   25 1   
    36   18   26 1   
    37   18   27 1   
    38   21   22 1   
    39   21   23 2   
    40   24   33 1   
@<TRIPOS>SUBSTRUCTURE
     1 RNA         1 TEMP              0 ****  ****    0 ROOT
