@<TRIPOS>MOLECULE
RNA
   39    41     1     0     0
SMALL
bcc


@<TRIPOS>ATOM
      1 C           0.5640    0.4950   -0.0170 cc        1 RNA     -0.286300
      2 C1          1.9270    0.1900    0.2850 cc        1 RNA     -0.099300
      3 C2          1.9570   -0.3090    1.5930 cd        1 RNA      0.161500
      4 O           0.6430   -0.3230    2.1140 os        1 RNA     -0.368800
      5 C3         -0.1850    0.1720    1.1140 cd        1 RNA      0.361000
      6 C4         -1.6130    0.2580    1.4250 c3        1 RNA     -0.161400
      7 C5          2.9960   -1.2190    3.6630 cc        1 RNA     -0.273600
      8 S           1.6730   -1.4030    4.7070 ss        1 RNA      0.130200
      9 C6          2.6540   -1.9840    6.0050 cc        1 RNA      0.352800
     10 N           2.1020   -2.3070    7.1840 nh        1 RNA     -0.432100
     11 S1          5.3470   -2.5280    6.7560 sy        1 RNA      1.531900
     12 C7          5.9530   -3.8530    6.0370 ca        1 RNA     -0.490500
     13 C8          5.5320   -5.1430    6.4190 ca        1 RNA      0.018500
     14 C9          6.1080   -6.2790    5.8750 ca        1 RNA     -0.163500
     15 C10         7.1350   -6.1670    4.9220 ca        1 RNA      0.046700
     16 C11         7.5620   -4.8910    4.5290 ca        1 RNA     -0.163500
     17 C12         6.9790   -3.7560    5.0760 ca        1 RNA      0.018500
     18 C13         7.7670   -7.3790    4.3580 c3        1 RNA     -0.085800
     19 O14         6.2130   -1.4450    6.7630 o         1 RNA     -0.616300
     20 O1          4.6930   -2.8470    7.9590 o         1 RNA     -0.616300
     21 C15         4.2400   -1.6370    4.3360 c         1 RNA      0.726700
     22 N1          4.0080   -2.0770    5.6940 n         1 RNA     -0.450700
     23 O2          5.3760   -1.6400    3.8580 o         1 RNA     -0.533500
     24 C16         3.0350   -0.7550    2.3870 cf        1 RNA      0.039200
     25 H131        8.1630   -7.1870    3.3300 hc        1 RNA      0.070700
     26 H132        7.0400   -8.2270    4.3100 hc        1 RNA      0.070700
     27 H133        8.6240   -7.6910    5.0100 hc        1 RNA      0.070700
     28 H11         8.3680   -4.7880    3.7840 ha        1 RNA      0.161500
     29 H12         7.3220   -2.7530    4.7560 ha        1 RNA      0.163000
     30 H8          4.7450   -5.2460    7.1870 ha        1 RNA      0.163000
     31 H9          5.7690   -7.2770    6.1950 ha        1 RNA      0.161500
     32 HN          1.1190   -2.1890    7.3060 hn        1 RNA      0.341200
     33 H16         4.0290   -0.7090    1.8840 ha        1 RNA      0.187000
     34 H1          2.7800    0.3240   -0.3810 ha        1 RNA      0.185000
     35 H           0.1880    0.9020   -0.9550 ha        1 RNA      0.191000
     36 H41        -2.2040   -0.2760    0.6380 hc        1 RNA      0.082367
     37 H42        -1.9310    1.3330    1.4400 hc        1 RNA      0.082367
     38 H43        -1.8400   -0.1980    2.4210 hc        1 RNA      0.082367
     39 HN3         2.6410   -2.6230    7.9740 hn        1 RNA      0.341200
@<TRIPOS>BOND
     1    1    2 1   
     2    1    5 2   
     3    1   35 1   
     4    2    3 2   
     5    2   34 1   
     6    3    4 1   
     7    3   24 1   
     8    4    5 1   
     9    5    6 1   
    10    6   36 1   
    11    6   37 1   
    12    6   38 1   
    13    7    8 1   
    14    7   21 1   
    15    7   24 2   
    16    8    9 1   
    17    9   10 2   
    18    9   22 1   
    19   10   32 1   
    20   10   39 1   
    21   11   12 1   
    22   11   19 2   
    23   11   20 2   
    24   11   22 1   
    25   12   13 ar  
    26   12   17 ar  
    27   13   14 ar  
    28   13   30 1   
    29   14   15 ar  
    30   14   31 1   
    31   15   16 ar  
    32   15   18 1   
    33   16   17 ar  
    34   16   28 1   
    35   17   29 1   
    36   18   25 1   
    37   18   26 1   
    38   18   27 1   
    39   21   22 1   
    40   21   23 2   
    41   24   33 1   
@<TRIPOS>SUBSTRUCTURE
     1 RNA         1 TEMP              0 ****  ****    0 ROOT
