@<TRIPOS>MOLECULE
RNA
   39    41     1     0     0
SMALL
bcc


@<TRIPOS>ATOM
      1 C           0.5700    0.4970   -0.0190 cc        1 RNA     -0.287300
      2 C1          1.9310    0.1860    0.2800 cc        1 RNA     -0.099300
      3 C2          1.9620   -0.3080    1.5910 cd        1 RNA      0.161500
      4 O           0.6500   -0.3140    2.1150 os        1 RNA     -0.368800
      5 C3         -0.1780    0.1820    1.1150 cd        1 RNA      0.361000
      6 C4         -1.6050    0.2760    1.4290 c3        1 RNA     -0.161400
      7 C5          3.0020   -1.2160    3.6600 cc        1 RNA     -0.273600
      8 S           1.6810   -1.3910    4.7080 ss        1 RNA      0.130200
      9 C6          2.6620   -1.9720    6.0060 cc        1 RNA      0.352800
     10 N           2.1120   -2.2880    7.1880 nv        1 RNA     -0.432100
     11 S1          5.3550   -2.5270    6.7520 sy        1 RNA      1.531900
     12 C7          5.9520   -3.8570    6.0350 ca        1 RNA     -0.490500
     13 C8          5.5260   -5.1440    6.4230 ca        1 RNA      0.018500
     14 C9          6.0950   -6.2840    5.8800 ca        1 RNA     -0.163500
     15 C10         7.1200   -6.1800    4.9250 ca        1 RNA      0.046700
     16 C11         7.5520   -4.9070    4.5270 ca        1 RNA     -0.163500
     17 C12         6.9760   -3.7680    5.0720 ca        1 RNA      0.018500
     18 C13         7.7440   -7.3970    4.3630 c3        1 RNA     -0.085800
     19 O14         6.2260   -1.4480    6.7540 o         1 RNA     -0.616300
     20 O1          4.7020   -2.8390    7.9580 o         1 RNA     -0.616300
     21 C15         4.2460   -1.6390    4.3320 c         1 RNA      0.726700
     22 N1          4.0150   -2.0730    5.6920 n         1 RNA     -0.450700
     23 O2          5.3800   -1.6490    3.8520 o         1 RNA     -0.533500
     24 C16         3.0400   -0.7570    2.3830 cf        1 RNA      0.039200
     25 H131        8.1400   -7.2100    3.3330 hc        1 RNA      0.070700
     26 H132        7.0130   -8.2420    4.3180 hc        1 RNA      0.070700
     27 H133        8.6010   -7.7120    5.0140 hc        1 RNA      0.070700
     28 H11         8.3570   -4.8100    3.7800 ha        1 RNA      0.161500
     29 H12         7.3240   -2.7680    4.7480 ha        1 RNA      0.163000
     30 H8          4.7390   -5.2410    7.1930 ha        1 RNA      0.163000
     31 H9          5.7510   -7.2800    6.2040 ha        1 RNA      0.161500
     32 HN          1.1290   -2.1650    7.3110 hn        1 RNA      0.341200
     33 H16         4.0330   -0.7180    1.8770 ha        1 RNA      0.187000
     34 H1          2.7840    0.3130   -0.3880 ha        1 RNA      0.185000
     35 H           0.1940    0.9030   -0.9570 ha        1 RNA      0.191000
     36 H41        -2.1990   -0.2770    0.6570 hc        1 RNA      0.082367
     37 H42        -1.9230    1.3510    1.4190 hc        1 RNA      0.082367
     38 H43        -1.8290   -0.1560    2.4360 hc        1 RNA      0.082367
     39 HN3         2.6510   -2.6050    7.9770 hn        1 RNA      0.341200
@<TRIPOS>BOND
     1    1    2 1   
     2    1    5 2   
     3    1   35 1   
     4    2    3 2   
     5    2   34 1   
     6    3    4 1   
     7    3   24 1   
     8    4    5 1   
     9    5    6 1   
    10    6   36 1   
    11    6   37 1   
    12    6   38 1   
    13    7    8 1   
    14    7   21 1   
    15    7   24 2   
    16    8    9 1   
    17    9   10 2   
    18    9   22 1   
    19   10   32 1   
    20   10   39 1   
    21   11   12 1   
    22   11   19 2   
    23   11   20 2   
    24   11   22 1   
    25   12   13 ar  
    26   12   17 ar  
    27   13   14 ar  
    28   13   30 1   
    29   14   15 ar  
    30   14   31 1   
    31   15   16 ar  
    32   15   18 1   
    33   16   17 ar  
    34   16   28 1   
    35   17   29 1   
    36   18   25 1   
    37   18   26 1   
    38   18   27 1   
    39   21   22 1   
    40   21   23 2   
    41   24   33 1   
@<TRIPOS>SUBSTRUCTURE
     1 RNA         1 TEMP              0 ****  ****    0 ROOT
