@<TRIPOS>MOLECULE
RNA
   38    32     1     0     0
SMALL
bcc


@<TRIPOS>ATOM
      1 C          -2.4340    2.5920   -5.2330 c1        1 RNA     -0.170500
      2 C1         -1.0980    2.3070   -5.1910 c1        1 RNA     -0.170500
      3 C2         -0.5920    2.8090   -4.0080 c1        1 RNA     -0.030500
      4 O          -1.6220    3.4020   -3.3250 os        1 RNA     -0.096000
      5 C3         -2.7610    3.2710   -4.0770 c1        1 RNA     -0.030500
      6 C4         -4.1240    3.8280   -3.7290 c2        1 RNA     -0.163000
      7 C5          1.2480    2.1010   -2.5050 c1        1 RNA     -0.385000
      8 S           0.2770    1.1660   -1.4710 ss        1 RNA      0.327000
      9 C6          1.3180    0.6110   -0.4040 c2        1 RNA      0.030000
     10 N           1.0750   -0.6250    0.2470 n3        1 RNA     -0.768000
     11 S1          2.1810   -1.2290    1.2990 s4        1 RNA      2.085800
     12 C7          1.3670   -2.0840    2.6210 c1        1 RNA     -0.864000
     13 C8          1.4800   -3.4600    2.7290 c2        1 RNA     -0.008000
     14 C9          0.8920   -4.1230    3.7960 c1        1 RNA     -0.163000
     15 C10         0.1910   -3.4080    4.7540 c1        1 RNA      0.008000
     16 C11         0.0780   -2.0310    4.6450 c1        1 RNA     -0.163000
     17 C12         0.6660   -1.3690    3.5790 c1        1 RNA     -0.008000
     18 C13        -0.4920   -4.1350    5.8900 c3        1 RNA     -0.197000
     19 O14         3.1250   -2.0820    0.6310 o         1 RNA     -0.512400
     20 O1          3.0440   -0.1960    1.8000 o         1 RNA     -0.512400
     21 C15         2.7770    1.9590   -1.8780 c1        1 RNA      0.301000
     22 N1          2.6110    1.0300   -0.6270 n2        1 RNA     -0.247000
     23 O2          3.8000    2.4630   -2.2960 o         1 RNA     -0.253000
     24 C16         0.8620    2.8010   -3.5900 c1        1 RNA      0.022000
     25 H131        0.1550   -4.3030    6.6060 hc        1 RNA      0.095333
     26 H132       -1.2260   -3.5860    6.2350 hc        1 RNA      0.095333
     27 H133       -0.8480   -4.9890    5.5640 hc        1 RNA      0.095333
     28 H11        -0.4160   -1.5270    5.3200 ha        1 RNA      0.145000
     29 H12         0.5860   -0.3990    3.5030 ha        1 RNA      0.158000
     30 H8          1.9740   -3.9640    2.0550 ha        1 RNA      0.158000
     31 H9          0.9720   -5.0920    3.8720 ha        1 RNA      0.145000
     32 HN          0.3080   -1.0870    0.0770 hn        1 RNA      0.258000
     33 H16         1.5190    3.3140   -4.0990 ha        1 RNA      0.172000
     34 H1         -0.5910    1.8330   -5.8760 DU        1 RNA      0.167500
     35 H          -3.0480    2.3570   -5.9530 DU        1 RNA      0.167500
     36 H41        -4.4030    4.4640   -4.4200 ha        1 RNA      0.102333
     37 H42        -4.7730    3.0950   -3.6780 ha        1 RNA      0.102333
     38 H43        -4.0790    4.2840   -2.8630 ha        1 RNA      0.102333
@<TRIPOS>BOND
     1    1    2 1   
     2    1    5 1   
     3    2    3 1   
     4    3    4 1   
     5    4    5 1   
     6    6   36 1   
     7    6   37 1   
     8    6   38 1   
     9    7    8 1   
    10    7   24 1   
    11    8    9 1   
    12    9   10 1   
    13    9   22 1   
    14   10   11 1   
    15   10   32 1   
    16   11   19 1   
    17   11   20 1   
    18   12   13 1   
    19   12   17 1   
    20   13   14 1   
    21   13   30 1   
    22   14   31 1   
    23   15   16 1   
    24   15   18 1   
    25   16   28 1   
    26   17   29 1   
    27   18   25 1   
    28   18   26 1   
    29   18   27 1   
    30   21   22 1   
    31   21   23 1   
    32   24   33 1   
@<TRIPOS>SUBSTRUCTURE
     1 RNA         1 TEMP              0 ****  ****    0 ROOT
