@<TRIPOS>MOLECULE
RNB
   45    45     1     0     0
SMALL
bcc


@<TRIPOS>ATOM
      1 CAA         0.6260   -0.6580    0.4010 c3        1 RNB     -0.057400
      2 CAO         1.8640    0.1370    0.2210 c2        1 RNB     -0.125400
      3 CAB         2.7210    0.2860    1.4210 c3        1 RNB     -0.057400
      4 CAJ         2.1910    0.6930   -0.9570 c2        1 RNB     -0.176200
      5 CAL         1.3630    0.5620   -2.1780 c3        1 RNB     -0.043200
      6 CAN         1.8970    1.4060   -3.3210 c3        1 RNB     -0.041200
      7 CAP         1.0750    1.2420   -4.5560 c2        1 RNB     -0.109400
      8 CAC         1.3020   -0.0040   -5.3270 c3        1 RNB     -0.065900
      9 CAK         0.2050    2.1920   -4.9330 c2        1 RNB     -0.172200
     10 CAM        -0.6260    2.1550   -6.1630 c3        1 RNB      0.016100
     11 CAV        -2.0790    2.0570   -5.8440 ca        1 RNB     -0.150300
     12 CAS        -2.7690    0.8260   -5.9370 ca        1 RNB      0.249100
     13 OAG        -1.9920   -0.2210   -6.3390 oh        1 RNB     -0.497100
     14 CAU        -4.1460    0.7260   -5.6350 ca        1 RNB     -0.318600
     15 CAI        -4.8620   -0.5490   -5.7120 c         1 RNB      0.591500
     16 OAE        -4.3570   -1.6120   -6.0990 o         1 RNB     -0.570100
     17 CAQ        -4.8530    1.8870   -5.2410 ca        1 RNB      0.055700
     18 CAD        -6.3030    1.7950   -4.9310 c3        1 RNB     -0.078800
     19 CAT        -4.1820    3.1070   -5.1510 ca        1 RNB     -0.121600
     20 Cl         -4.9970    4.5330   -4.6790 cl        1 RNB     -0.092400
     21 CAR        -2.8010    3.1900   -5.4480 ca        1 RNB      0.202100
     22 OAF        -2.0910    4.3600   -5.3770 oh        1 RNB     -0.480100
     23 H1          0.5610   -1.4630   -0.3740 hc        1 RNB      0.040033
     24 H2         -0.2740   -0.0010    0.2890 hc        1 RNB      0.040033
     25 H3          0.5920   -1.1350    1.4110 hc        1 RNB      0.040033
     26 H4          2.1390    0.7570    2.2520 hc        1 RNB      0.040033
     27 H5          3.0730   -0.7180    1.7680 hc        1 RNB      0.040033
     28 H6          3.6170    0.9210    1.2140 hc        1 RNB      0.040033
     29 H7          3.1180    1.2820   -1.0600 ha        1 RNB      0.122000
     30 H8          1.3290   -0.5180   -2.4920 hc        1 RNB      0.050700
     31 H9          0.3040    0.8660   -1.9520 hc        1 RNB      0.050700
     32 H10         2.9570    1.1070   -3.5440 hc        1 RNB      0.045700
     33 H11         1.9160    2.4830   -3.0050 hc        1 RNB      0.045700
     34 H12         1.8550   -0.7600   -4.7170 hc        1 RNB      0.045367
     35 H13         0.3280   -0.4560   -5.6480 hc        1 RNB      0.045367
     36 H14         1.9050    0.2140   -6.2440 hc        1 RNB      0.045367
     37 H15         0.0610    3.0990   -4.3200 ha        1 RNB      0.126000
     38 H16        -0.3280    1.3000   -6.8290 hc        1 RNB      0.066700
     39 H17        -0.4480    3.1090   -6.7380 hc        1 RNB      0.066700
     40 H18        -2.5130   -1.0390   -6.4060 ho        1 RNB      0.464000
     41 H19        -5.9290   -0.5350   -5.3920 h4        1 RNB      0.010200
     42 H20        -6.7450    2.7900   -4.6780 hc        1 RNB      0.061033
     43 H21        -6.4660    1.1170   -4.0560 hc        1 RNB      0.061033
     44 H22        -6.8610    1.3910   -5.8130 hc        1 RNB      0.061033
     45 H23        -2.6970    5.0770   -5.1220 ho        1 RNB      0.435000
@<TRIPOS>BOND
     1    1    2 1   
     2    1   23 1   
     3    1   24 1   
     4    1   25 1   
     5    2    3 1   
     6    2    4 2   
     7    3   26 1   
     8    3   27 1   
     9    3   28 1   
    10    4    5 1   
    11    4   29 1   
    12    5    6 1   
    13    5   30 1   
    14    5   31 1   
    15    6    7 1   
    16    6   32 1   
    17    6   33 1   
    18    7    8 1   
    19    7    9 2   
    20    8   34 1   
    21    8   35 1   
    22    8   36 1   
    23    9   10 1   
    24    9   37 1   
    25   10   11 1   
    26   10   38 1   
    27   10   39 1   
    28   11   12 ar  
    29   11   21 ar  
    30   12   13 1   
    31   12   14 ar  
    32   13   40 1   
    33   14   15 1   
    34   14   17 ar  
    35   15   16 2   
    36   15   41 1   
    37   17   18 1   
    38   17   19 ar  
    39   18   42 1   
    40   18   43 1   
    41   18   44 1   
    42   19   20 1   
    43   19   21 ar  
    44   21   22 1   
    45   22   45 1   
@<TRIPOS>SUBSTRUCTURE
     1 RNB         1 TEMP              0 ****  ****    0 ROOT
