@<TRIPOS>MOLECULE
RNB
   45    45     1     0     0
SMALL
bcc


@<TRIPOS>ATOM
      1 CAA        -4.7460    2.4780    1.1440 c3        1 RNB     -0.057400
      2 CAO        -5.4280    1.1960    1.4450 c2        1 RNB     -0.125400
      3 CAB        -6.6740    1.2950    2.2420 c3        1 RNB     -0.057400
      4 CAJ        -4.9470    0.0150    1.0260 c2        1 RNB     -0.176200
      5 CAL        -3.7090   -0.1230    0.2250 c3        1 RNB     -0.043200
      6 CAN        -3.3320   -1.5770    0.0050 c3        1 RNB     -0.041200
      7 CAP        -2.1010   -1.7050   -0.8300 c2        1 RNB     -0.109400
      8 CAC        -2.2800   -1.4950   -2.2880 c3        1 RNB     -0.065900
      9 CAK        -0.9210   -2.0130   -0.2710 c2        1 RNB     -0.172200
     10 CAM         0.3520   -2.2120   -1.0090 c3        1 RNB      0.016100
     11 CAV         1.3560   -1.1620   -0.6700 ca        1 RNB     -0.150300
     12 CAS         1.5980   -0.0720   -1.5380 ca        1 RNB      0.249100
     13 OAG         0.8470   -0.0860   -2.6760 oh        1 RNB     -0.497100
     14 CAU         2.5470    0.9270   -1.2220 ca        1 RNB     -0.318600
     15 CAI         2.7890    2.0680   -2.1070 c         1 RNB      0.591500
     16 OAE         2.2500    2.2240   -3.2100 o         1 RNB     -0.570100
     17 CAQ         3.2800    0.8270   -0.0150 ca        1 RNB      0.055700
     18 CAD         4.2870    1.8650    0.3220 c3        1 RNB     -0.078800
     19 CAT         3.0500   -0.2470    0.8460 ca        1 RNB     -0.121600
     20 CL          3.9120   -0.4070    2.3120 cl        1 RNB     -0.092400
     21 CAR         2.0910   -1.2350    0.5200 ca        1 RNB      0.202100
     22 OAF         1.8250   -2.3110    1.3250 oh        1 RNB     -0.480100
     23 H1         -5.3560    3.3520    1.4780 hc        1 RNB      0.039867
     24 H2         -3.7550    2.5190    1.6630 hc        1 RNB      0.039867
     25 H3         -4.5620    2.5730    0.0440 hc        1 RNB      0.039867
     26 H4         -6.4660    1.8000    3.2190 hc        1 RNB      0.039867
     27 H5         -7.4340    1.9030    1.6910 hc        1 RNB      0.039867
     28 H6         -7.1120    0.2890    2.4520 hc        1 RNB      0.039867
     29 H7         -5.4750   -0.9220    1.2690 ha        1 RNB      0.122000
     30 H8         -3.8490    0.3850   -0.7690 hc        1 RNB      0.050200
     31 H9         -2.8630    0.4090    0.7420 hc        1 RNB      0.050200
     32 H10        -3.1800   -2.0720    1.0010 hc        1 RNB      0.045700
     33 H11        -4.1790   -2.1090   -0.5060 hc        1 RNB      0.045700
     34 H12        -3.2590   -1.0010   -2.5060 hc        1 RNB      0.045367
     35 H13        -1.4610   -0.8520   -2.7000 hc        1 RNB      0.045367
     36 H14        -2.2570   -2.4780   -2.8230 hc        1 RNB      0.045367
     37 H15        -0.8340   -2.1480    0.8210 ha        1 RNB      0.126000
     38 H16         0.7730   -3.2170   -0.7220 hc        1 RNB      0.066700
     39 H17         0.1800   -2.2230   -2.1200 hc        1 RNB      0.066700
     40 H18         1.0620    0.6710   -3.2470 ho        1 RNB      0.464000
     41 H19         3.5090    2.8350   -1.7370 h4        1 RNB      0.010200
     42 H20         3.7880    2.8610    0.4370 hc        1 RNB      0.061033
     43 H21         4.8230    1.6410    1.2770 hc        1 RNB      0.061033
     44 H22         5.0550    1.9360   -0.4890 hc        1 RNB      0.061033
     45 H23         2.4090   -2.2710    2.1020 ho        1 RNB      0.435000
@<TRIPOS>BOND
     1    1    2 1   
     2    1   23 1   
     3    1   24 1   
     4    1   25 1   
     5    2    3 1   
     6    2    4 2   
     7    3   26 1   
     8    3   27 1   
     9    3   28 1   
    10    4    5 1   
    11    4   29 1   
    12    5    6 1   
    13    5   30 1   
    14    5   31 1   
    15    6    7 1   
    16    6   32 1   
    17    6   33 1   
    18    7    8 1   
    19    7    9 2   
    20    8   34 1   
    21    8   35 1   
    22    8   36 1   
    23    9   10 1   
    24    9   37 1   
    25   10   11 1   
    26   10   38 1   
    27   10   39 1   
    28   11   12 ar  
    29   11   21 ar  
    30   12   13 1   
    31   12   14 ar  
    32   13   40 1   
    33   14   15 1   
    34   14   17 ar  
    35   15   16 2   
    36   15   41 1   
    37   17   18 1   
    38   17   19 ar  
    39   18   42 1   
    40   18   43 1   
    41   18   44 1   
    42   19   20 1   
    43   19   21 ar  
    44   21   22 1   
    45   22   45 1   
@<TRIPOS>SUBSTRUCTURE
     1 RNB         1 TEMP              0 ****  ****    0 ROOT
