@<TRIPOS>MOLECULE
RNB
   45    45     1     0     0
SMALL
bcc


@<TRIPOS>ATOM
      1 CAA         0.6290   -0.6760    0.3970 c3        1 RNB     -0.057400
      2 CAO         1.8640    0.1250    0.2200 c2        1 RNB     -0.125400
      3 CAB         2.7200    0.2730    1.4210 c3        1 RNB     -0.057400
      4 CAJ         2.1880    0.6880   -0.9550 c2        1 RNB     -0.176200
      5 CAL         1.3610    0.5590   -2.1760 c3        1 RNB     -0.043200
      6 CAN         1.8960    1.4040   -3.3190 c3        1 RNB     -0.041200
      7 CAP         1.0750    1.2420   -4.5540 c2        1 RNB     -0.109400
      8 CAC         1.3000   -0.0050   -5.3250 c3        1 RNB     -0.065900
      9 CAK         0.2070    2.1930   -4.9310 c2        1 RNB     -0.172200
     10 CAM        -0.6240    2.1580   -6.1620 c3        1 RNB      0.016100
     11 CAV        -2.0770    2.0620   -5.8430 ca        1 RNB     -0.150300
     12 CAS        -2.7690    0.8320   -5.9360 ca        1 RNB      0.249100
     13 OAG        -1.9940   -0.2170   -6.3380 oh        1 RNB     -0.497100
     14 CAU        -4.1470    0.7350   -5.6360 ca        1 RNB     -0.318600
     15 CAI        -4.8640   -0.5390   -5.7120 c         1 RNB      0.591500
     16 OAE        -4.3620   -1.6030   -6.0980 o         1 RNB     -0.570100
     17 CAQ        -4.8520    1.8970   -5.2430 ca        1 RNB      0.055700
     18 CAD        -6.3020    1.8080   -4.9340 c3        1 RNB     -0.078800
     19 CAT        -4.1790    3.1160   -5.1520 ca        1 RNB     -0.121600
     20 CL         -4.9920    4.5430   -4.6820 cl        1 RNB     -0.092400
     21 CAR        -2.7980    3.1970   -5.4490 ca        1 RNB      0.202100
     22 OAF        -2.0860    4.3650   -5.3780 oh        1 RNB     -0.480100
     23 H1          0.5720   -1.4830   -0.3780 hc        1 RNB      0.039867
     24 H2         -0.2740   -0.0250    0.2810 hc        1 RNB      0.039867
     25 H3          0.5930   -1.1520    1.4070 hc        1 RNB      0.039867
     26 H4          2.1350    0.7380    2.2540 hc        1 RNB      0.039867
     27 H5          3.0750   -0.7320    1.7640 hc        1 RNB      0.039867
     28 H6          3.6130    0.9110    1.2160 hc        1 RNB      0.039867
     29 H7          3.1120    1.2810   -1.0540 ha        1 RNB      0.122000
     30 H8          1.3250   -0.5210   -2.4910 hc        1 RNB      0.050200
     31 H9          0.3020    0.8640   -1.9500 hc        1 RNB      0.050200
     32 H10         2.9560    1.1030   -3.5410 hc        1 RNB      0.045700
     33 H11         1.9160    2.4810   -3.0020 hc        1 RNB      0.045700
     34 H12         1.8530   -0.7610   -4.7160 hc        1 RNB      0.045367
     35 H13         0.3260   -0.4560   -5.6460 hc        1 RNB      0.045367
     36 H14         1.9030    0.2130   -6.2420 hc        1 RNB      0.045367
     37 H15         0.0640    3.1000   -4.3180 ha        1 RNB      0.126000
     38 H16        -0.3270    1.3020   -6.8280 hc        1 RNB      0.066700
     39 H17        -0.4440    3.1110   -6.7360 hc        1 RNB      0.066700
     40 H18        -2.5170   -1.0330   -6.4040 ho        1 RNB      0.464000
     41 H19        -5.9310   -0.5240   -5.3910 h4        1 RNB      0.010200
     42 H20        -6.7440    2.8040   -4.6830 hc        1 RNB      0.061033
     43 H21        -6.4680    1.1320   -4.0580 hc        1 RNB      0.061033
     44 H22        -6.8610    1.4030   -5.8160 hc        1 RNB      0.061033
     45 H23        -2.6910    5.0830   -5.1230 ho        1 RNB      0.435000
@<TRIPOS>BOND
     1    1    2 1   
     2    1   23 1   
     3    1   24 1   
     4    1   25 1   
     5    2    3 1   
     6    2    4 2   
     7    3   26 1   
     8    3   27 1   
     9    3   28 1   
    10    4    5 1   
    11    4   29 1   
    12    5    6 1   
    13    5   30 1   
    14    5   31 1   
    15    6    7 1   
    16    6   32 1   
    17    6   33 1   
    18    7    8 1   
    19    7    9 2   
    20    8   34 1   
    21    8   35 1   
    22    8   36 1   
    23    9   10 1   
    24    9   37 1   
    25   10   11 1   
    26   10   38 1   
    27   10   39 1   
    28   11   12 ar  
    29   11   21 ar  
    30   12   13 1   
    31   12   14 ar  
    32   13   40 1   
    33   14   15 1   
    34   14   17 ar  
    35   15   16 2   
    36   15   41 1   
    37   17   18 1   
    38   17   19 ar  
    39   18   42 1   
    40   18   43 1   
    41   18   44 1   
    42   19   20 1   
    43   19   21 ar  
    44   21   22 1   
    45   22   45 1   
@<TRIPOS>SUBSTRUCTURE
     1 RNB         1 TEMP              0 ****  ****    0 ROOT
