@<TRIPOS>MOLECULE
RND
   62    66     1     0     0
SMALL
bcc


@<TRIPOS>ATOM
      1 C01        -1.0150   -1.7260    1.5840 ca        1 RND     -0.103000
      2 C02        -0.0820   -2.2980    2.4340 ca        1 RND     -0.141000
      3 C03         0.1240   -1.8040    3.7360 ca        1 RND     -0.103000
      4 C04        -0.5920   -0.7240    4.2250 ca        1 RND     -0.129000
      5 C05        -1.5390   -0.1320    3.3730 ca        1 RND     -0.052200
      6 C06        -1.7630   -0.6360    2.0370 ca        1 RND     -0.087800
      7 N07        -2.4030    0.9510    3.5810 na        1 RND     -0.175400
      8 C08        -2.7830    0.2080    1.4510 cc        1 RND     -0.202400
      9 C09        -3.1240    1.1670    2.4110 cd        1 RND     -0.082100
     10 C10        -3.2990    0.1660    0.0700 c3        1 RND      0.271000
     11 N11        -3.7490   -1.1460   -0.3880 n3        1 RND     -0.750600
     12 C12        -4.3310   -1.1210   -1.7130 c3        1 RND      0.170800
     13 C13        -4.5550   -2.5250   -2.2750 c3        1 RND     -0.119400
     14 C14        -5.3530   -3.4080   -1.3150 c3        1 RND      0.143500
     15 C15        -4.7380   -3.3590    0.0810 c3        1 RND     -0.119400
     16 C16        -4.5100   -1.9240    0.5620 c3        1 RND      0.170800
     17 N17        -6.8140   -2.9390   -1.2830 n4        1 RND     -0.670800
     18 C18        -7.7320   -3.9320   -0.6710 c         1 RND      0.510100
     19 C19        -8.8340   -3.3880    0.2450 c3        1 RND      0.035500
     20 O20        -7.5850   -5.1200   -0.9320 o         1 RND     -0.391100
     21 C21        -8.2230   -2.5330    1.3950 c3        1 RND      0.011800
     22 N22        -9.6670   -4.5080    0.7900 n4        1 RND     -0.830600
     23 C23        -9.1180   -2.4710    2.5440 cc        1 RND     -0.324400
     24 N24       -10.5700   -1.6830    4.1200 na        1 RND     -0.141400
     25 C25        -9.9230   -1.3850    2.9410 cd        1 RND     -0.008100
     26 C26        -9.2470   -3.4890    3.5700 ca        1 RND     -0.117800
     27 C27       -10.1760   -2.9640    4.5420 ca        1 RND     -0.053200
     28 C28       -10.5360   -3.7040    5.6810 ca        1 RND     -0.091000
     29 C29        -9.9550   -4.9510    5.8450 ca        1 RND     -0.097000
     30 C30        -9.0250   -5.4600    4.9170 ca        1 RND     -0.089000
     31 C31        -8.6660   -4.7420    3.7860 ca        1 RND     -0.176000
     32 H1         -1.1580   -2.1040    0.5620 ha        1 RND      0.133000
     33 H2          0.5260   -3.1480    2.0870 ha        1 RND      0.141000
     34 H3          0.8830   -2.2840    4.3750 ha        1 RND      0.149000
     35 H4         -0.4190   -0.3360    5.2380 ha        1 RND      0.148000
     36 H5         -2.3520    1.5740    4.3460 hn        1 RND      0.312700
     37 H6         -3.8320    1.9960    2.3370 h4        1 RND      0.168000
     38 H7         -4.1320    0.9270   -0.0340 h1        1 RND      0.050700
     39 H8         -2.4660    0.4650   -0.6360 h1        1 RND      0.050700
     40 H10        -3.6170   -0.5760   -2.3970 h1        1 RND      0.046950
     41 H11        -5.3140   -0.5570   -1.7390 h1        1 RND      0.046950
     42 H12        -5.0410   -2.4540   -3.2820 hc        1 RND      0.097700
     43 H13        -3.5610   -3.0350   -2.4220 hc        1 RND      0.097700
     44 H14        -5.3820   -4.4730   -1.6990 hx        1 RND      0.124700
     45 H15        -3.7470   -3.8910    0.0170 hc        1 RND      0.097700
     46 H16        -5.3660   -3.9120    0.8250 hc        1 RND      0.097700
     47 H17        -5.5190   -1.4590    0.7960 h1        1 RND      0.046950
     48 H18        -3.9210   -1.9580    1.5270 h1        1 RND      0.046950
     49 H19        -7.1080   -2.7700   -2.2570 hn        1 RND      0.476300
     50 H20        -9.5270   -2.7360   -0.3740 hx        1 RND      0.143700
     51 H21        -7.2380   -2.9830    1.7020 hc        1 RND      0.087700
     52 H22        -8.0370   -1.5030    0.9840 hc        1 RND      0.087700
     53 H23        -9.0900   -5.1240    1.3860 hn        1 RND      0.489133
     54 H24       -10.0910   -5.0570    0.0360 hn        1 RND      0.489133
     55 H26       -11.1580   -1.0720    4.6360 hn        1 RND      0.337700
     56 H27       -10.0630   -0.4150    2.4490 h4        1 RND      0.190000
     57 H28       -11.2450   -3.3020    6.4220 ha        1 RND      0.171000
     58 H29       -10.2100   -5.5570    6.7320 ha        1 RND      0.174000
     59 H30        -8.5650   -6.4440    5.1120 ha        1 RND      0.162000
     60 H31        -7.8800   -5.1220    3.1180 ha        1 RND      0.114000
     61 H172       -6.8470   -2.0480   -0.7670 hn        1 RND      0.476300
     62 H223      -10.3990   -4.0950    1.3990 hn        1 RND      0.489133
@<TRIPOS>BOND
     1    1    2 ar  
     2    1    6 ar  
     3    1   32 1   
     4    2    3 ar  
     5    2   33 1   
     6    3    4 ar  
     7    3   34 1   
     8    4    5 ar  
     9    4   35 1   
    10    5    6 ar  
    11    5    7 1   
    12    6    8 1   
    13    7    9 1   
    14    7   36 1   
    15    8    9 2   
    16    8   10 1   
    17    9   37 1   
    18   10   11 1   
    19   10   38 1   
    20   10   39 1   
    21   11   12 1   
    22   11   16 1   
    23   12   13 1   
    24   12   40 1   
    25   12   41 1   
    26   13   14 1   
    27   13   42 1   
    28   13   43 1   
    29   14   15 1   
    30   14   17 1   
    31   14   44 1   
    32   15   16 1   
    33   15   45 1   
    34   15   46 1   
    35   16   47 1   
    36   16   48 1   
    37   17   18 1   
    38   17   49 1   
    39   17   61 1   
    40   18   19 1   
    41   18   20 2   
    42   19   21 1   
    43   19   22 1   
    44   19   50 1   
    45   21   23 1   
    46   21   51 1   
    47   21   52 1   
    48   22   53 1   
    49   22   54 1   
    50   22   62 1   
    51   23   25 2   
    52   23   26 1   
    53   24   25 1   
    54   24   27 1   
    55   24   55 1   
    56   25   56 1   
    57   26   27 ar  
    58   26   31 ar  
    59   27   28 ar  
    60   28   29 ar  
    61   28   57 1   
    62   29   30 ar  
    63   29   58 1   
    64   30   31 ar  
    65   30   59 1   
    66   31   60 1   
@<TRIPOS>SUBSTRUCTURE
     1 RND         1 TEMP              0 ****  ****    0 ROOT
