@<TRIPOS>MOLECULE
RND
   62    66     1     0     0
SMALL
bcc


@<TRIPOS>ATOM
      1 C01        -1.0150   -1.7180    1.5970 ca        1 RND     -0.103000
      2 C02        -0.0820   -2.2910    2.4470 ca        1 RND     -0.141000
      3 C03         0.1210   -1.8010    3.7510 ca        1 RND     -0.103000
      4 C04        -0.5990   -0.7240    4.2420 ca        1 RND     -0.129000
      5 C05        -1.5450   -0.1310    3.3900 ca        1 RND     -0.052200
      6 C06        -1.7650   -0.6310    2.0520 ca        1 RND     -0.087800
      7 N07        -2.4120    0.9500    3.6000 na        1 RND     -0.175400
      8 C08        -2.7860    0.2130    1.4670 cc        1 RND     -0.202400
      9 C09        -3.1310    1.1690    2.4300 cd        1 RND     -0.082100
     10 C10        -3.2990    0.1750    0.0850 c3        1 RND      0.271000
     11 N11        -3.7460   -1.1360   -0.3780 n3        1 RND     -0.750600
     12 C12        -4.3240   -1.1070   -1.7040 c3        1 RND      0.170800
     13 C13        -4.5450   -2.5100   -2.2710 c3        1 RND     -0.119400
     14 C14        -5.3440   -3.3980   -1.3170 c3        1 RND      0.143500
     15 C15        -4.7320   -3.3520    0.0810 c3        1 RND     -0.119400
     16 C16        -4.5080   -1.9180    0.5670 c3        1 RND      0.170800
     17 N17        -6.8060   -2.9320   -1.2870 ny        1 RND     -0.670800
     18 C18        -7.7230   -3.9290   -0.6800 c         1 RND      0.510100
     19 C19        -8.8290   -3.3900    0.2350 c3        1 RND      0.035500
     20 O20        -7.5730   -5.1150   -0.9440 o         1 RND     -0.391100
     21 C21        -8.2230   -2.5360    1.3890 c3        1 RND      0.011800
     22 N22        -9.6610   -4.5120    0.7730 nz        1 RND     -0.830600
     23 C23        -9.1220   -2.4800    2.5350 cc        1 RND     -0.324400
     24 N24       -10.5800   -1.6990    4.1090 na        1 RND     -0.141400
     25 C25        -9.9300   -1.3960    2.9330 cd        1 RND     -0.008100
     26 C26        -9.2520   -3.5000    3.5580 ca        1 RND     -0.117800
     27 C27       -10.1850   -2.9800    4.5280 ca        1 RND     -0.053200
     28 C28       -10.5470   -3.7240    5.6640 ca        1 RND     -0.091000
     29 C29        -9.9650   -4.9710    5.8270 ca        1 RND     -0.097000
     30 C30        -9.0310   -5.4760    4.8990 ca        1 RND     -0.089000
     31 C31        -8.6690   -4.7540    3.7720 ca        1 RND     -0.176000
     32 H1         -1.1550   -2.0930    0.5740 ha        1 RND      0.133000
     33 H2          0.5280   -3.1390    2.0990 ha        1 RND      0.141000
     34 H3          0.8790   -2.2820    4.3900 ha        1 RND      0.149000
     35 H4         -0.4280   -0.3390    5.2570 ha        1 RND      0.148000
     36 H5         -2.3630    1.5700    4.3670 hn        1 RND      0.312700
     37 H6         -3.8400    1.9970    2.3570 h4        1 RND      0.168000
     38 H7         -2.4650    0.4780   -0.6190 h1        1 RND      0.050700
     39 H8         -4.1330    0.9350   -0.0190 h1        1 RND      0.050700
     40 H10        -3.6100   -0.5590   -2.3860 h1        1 RND      0.046950
     41 H11        -5.3080   -0.5460   -1.7310 h1        1 RND      0.046950
     42 H12        -3.5490   -3.0190   -2.4180 hc        1 RND      0.097700
     43 H13        -5.0290   -2.4380   -3.2800 hc        1 RND      0.097700
     44 H14        -5.3700   -4.4620   -1.7030 hx        1 RND      0.124700
     45 H15        -5.3610   -3.9090    0.8220 hc        1 RND      0.097700
     46 H16        -3.7400   -3.8830    0.0180 hc        1 RND      0.097700
     47 H17        -3.9210   -1.9550    1.5340 h1        1 RND      0.046950
     48 H18        -5.5180   -1.4560    0.8010 h1        1 RND      0.046950
     49 H19        -7.0980   -2.7600   -2.2610 hn        1 RND      0.476300
     50 H20        -9.5210   -2.7370   -0.3850 hx        1 RND      0.143700
     51 H21        -8.0370   -1.5050    0.9810 hc        1 RND      0.087700
     52 H22        -7.2380   -2.9860    1.6970 hc        1 RND      0.087700
     53 H23       -10.3960   -4.1030    1.3820 hn        1 RND      0.489133
     54 H24        -9.0850   -5.1300    1.3690 hn        1 RND      0.489133
     55 H26       -11.1700   -1.0900    4.6240 hn        1 RND      0.337700
     56 H27       -10.0700   -0.4250    2.4430 h4        1 RND      0.190000
     57 H28       -11.2590   -3.3250    6.4040 ha        1 RND      0.171000
     58 H29       -10.2220   -5.5790    6.7110 ha        1 RND      0.174000
     59 H30        -8.5700   -6.4590    5.0930 ha        1 RND      0.162000
     60 H31        -7.8810   -5.1310    3.1060 ha        1 RND      0.114000
     61 H172       -6.8420   -2.0430   -0.7680 hn        1 RND      0.476300
     62 H223      -10.0830   -5.0600    0.0170 hn        1 RND      0.489133
@<TRIPOS>BOND
     1    1    2 ar  
     2    1    6 ar  
     3    1   32 1   
     4    2    3 ar  
     5    2   33 1   
     6    3    4 ar  
     7    3   34 1   
     8    4    5 ar  
     9    4   35 1   
    10    5    6 ar  
    11    5    7 1   
    12    6    8 1   
    13    7    9 1   
    14    7   36 1   
    15    8    9 2   
    16    8   10 1   
    17    9   37 1   
    18   10   11 1   
    19   10   38 1   
    20   10   39 1   
    21   11   12 1   
    22   11   16 1   
    23   12   13 1   
    24   12   40 1   
    25   12   41 1   
    26   13   14 1   
    27   13   42 1   
    28   13   43 1   
    29   14   15 1   
    30   14   17 1   
    31   14   44 1   
    32   15   16 1   
    33   15   45 1   
    34   15   46 1   
    35   16   47 1   
    36   16   48 1   
    37   17   18 1   
    38   17   49 1   
    39   17   61 1   
    40   18   19 1   
    41   18   20 2   
    42   19   21 1   
    43   19   22 1   
    44   19   50 1   
    45   21   23 1   
    46   21   51 1   
    47   21   52 1   
    48   22   53 1   
    49   22   54 1   
    50   22   62 1   
    51   23   25 2   
    52   23   26 1   
    53   24   25 1   
    54   24   27 1   
    55   24   55 1   
    56   25   56 1   
    57   26   27 ar  
    58   26   31 ar  
    59   27   28 ar  
    60   28   29 ar  
    61   28   57 1   
    62   29   30 ar  
    63   29   58 1   
    64   30   31 ar  
    65   30   59 1   
    66   31   60 1   
@<TRIPOS>SUBSTRUCTURE
     1 RND         1 TEMP              0 ****  ****    0 ROOT
