@<TRIPOS>MOLECULE
RND
   62    66     1     0     0
SMALL
bcc


@<TRIPOS>ATOM
      1 C01        -1.0180   -1.7050    1.6130 ca        1 RND     -0.103000
      2 C02        -0.0890   -2.2640    2.4760 ca        1 RND     -0.141000
      3 C03         0.1060   -1.7560    3.7740 ca        1 RND     -0.103000
      4 C04        -0.6190   -0.6740    4.2460 ca        1 RND     -0.129000
      5 C05        -1.5610   -0.0940    3.3810 ca        1 RND     -0.052200
      6 C06        -1.7730   -0.6130    2.0490 ca        1 RND     -0.087800
      7 N07        -2.4310    0.9870    3.5720 na        1 RND     -0.175400
      8 C08        -2.7930    0.2200    1.4470 cc        1 RND     -0.202400
      9 C09        -3.1450    1.1880    2.3950 cd        1 RND     -0.082100
     10 C10        -3.2990    0.1620    0.0630 c3        1 RND      0.271000
     11 N11        -3.7400   -1.1560   -0.3850 n3        1 RND     -0.750600
     12 C12        -4.3120   -1.1470   -1.7140 c3        1 RND      0.170800
     13 C13        -4.5270   -2.5570   -2.2630 c3        1 RND     -0.119400
     14 C14        -5.3280   -3.4340   -1.3010 c3        1 RND      0.143500
     15 C15        -4.7230   -3.3680    0.0990 c3        1 RND     -0.119400
     16 C16        -4.5040   -1.9280    0.5670 c3        1 RND      0.170800
     17 N17        -6.7910   -2.9700   -1.2840 n4        1 RND     -0.670800
     18 C18        -7.7090   -3.9620   -0.6680 c         1 RND      0.510100
     19 C19        -8.8200   -3.4140    0.2340 c3        1 RND      0.035500
     20 O20        -7.5550   -5.1510   -0.9180 o         1 RND     -0.391100
     21 C21        -8.2210   -2.5450    1.3800 c3        1 RND      0.011800
     22 N22        -9.6530   -4.5310    0.7830 n4        1 RND     -0.830600
     23 C23        -9.1250   -2.4770    2.5220 cc        1 RND     -0.324400
     24 N24       -10.5910   -1.6800    4.0810 na        1 RND     -0.141400
     25 C25        -9.9360   -1.3900    2.9040 cd        1 RND     -0.008100
     26 C26        -9.2570   -3.4850    3.5570 ca        1 RND     -0.117800
     27 C27       -10.1940   -2.9560    4.5170 ca        1 RND     -0.053200
     28 C28       -10.5600   -3.6860    5.6600 ca        1 RND     -0.091000
     29 C29        -9.9750   -4.9300    5.8400 ca        1 RND     -0.097000
     30 C30        -9.0370   -5.4440    4.9230 ca        1 RND     -0.089000
     31 C31        -8.6720   -4.7350    3.7880 ca        1 RND     -0.176000
     32 H1         -1.1520   -2.0940    0.5940 ha        1 RND      0.133000
     33 H2          0.5250   -3.1160    2.1420 ha        1 RND      0.141000
     34 H3          0.8620   -2.2270    4.4240 ha        1 RND      0.149000
     35 H4         -0.4540   -0.2750    5.2570 ha        1 RND      0.148000
     36 H5         -2.3880    1.6180    4.3310 hn        1 RND      0.312700
     37 H6         -3.8550    2.0140    2.3070 h4        1 RND      0.168000
     38 H7         -4.1330    0.9190   -0.0560 h1        1 RND      0.050700
     39 H8         -2.4620    0.4570   -0.6400 h1        1 RND      0.050700
     40 H10        -5.2970   -0.5880   -1.7530 h1        1 RND      0.046950
     41 H11        -3.5960   -0.6060   -2.3990 h1        1 RND      0.046950
     42 H12        -5.0060   -2.4990   -3.2750 hc        1 RND      0.097700
     43 H13        -3.5290   -3.0650   -2.3980 hc        1 RND      0.097700
     44 H14        -5.3500   -4.5030   -1.6730 hx        1 RND      0.124700
     45 H15        -3.7290   -3.8970    0.0470 hc        1 RND      0.097700
     46 H16        -5.3540   -3.9170    0.8450 hc        1 RND      0.097700
     47 H17        -5.5160   -1.4650    0.7900 h1        1 RND      0.046950
     48 H18        -3.9220   -1.9500    1.5370 h1        1 RND      0.046950
     49 H19        -6.8320   -2.0750   -0.7760 hn        1 RND      0.476300
     50 H20        -9.5110   -2.7690   -0.3960 hx        1 RND      0.143700
     51 H21        -8.0360   -1.5180    0.9610 hc        1 RND      0.087700
     52 H22        -7.2370   -2.9890    1.6980 hc        1 RND      0.087700
     53 H23        -9.0780   -5.1400    1.3880 hn        1 RND      0.489133
     54 H24       -10.0700   -5.0890    0.0310 hn        1 RND      0.489133
     55 H26       -11.1840   -1.0670    4.5870 hn        1 RND      0.337700
     56 H27       -10.0770   -0.4250    2.4020 h4        1 RND      0.190000
     57 H28       -11.2750   -3.2800    6.3930 ha        1 RND      0.171000
     58 H29       -10.2340   -5.5280    6.7310 ha        1 RND      0.174000
     59 H30        -8.5750   -6.4240    5.1300 ha        1 RND      0.162000
     60 H31        -7.8800   -5.1180    3.1300 ha        1 RND      0.114000
     61 H172       -7.0790   -2.8120   -2.2620 hn        1 RND      0.476300
     62 H223      -10.3910   -4.1150    1.3830 hn        1 RND      0.489133
@<TRIPOS>BOND
     1    1    2 ar  
     2    1    6 ar  
     3    1   32 1   
     4    2    3 ar  
     5    2   33 1   
     6    3    4 ar  
     7    3   34 1   
     8    4    5 ar  
     9    4   35 1   
    10    5    6 ar  
    11    5    7 1   
    12    6    8 1   
    13    7    9 1   
    14    7   36 1   
    15    8    9 2   
    16    8   10 1   
    17    9   37 1   
    18   10   11 1   
    19   10   38 1   
    20   10   39 1   
    21   11   12 1   
    22   11   16 1   
    23   12   13 1   
    24   12   40 1   
    25   12   41 1   
    26   13   14 1   
    27   13   42 1   
    28   13   43 1   
    29   14   15 1   
    30   14   17 1   
    31   14   44 1   
    32   15   16 1   
    33   15   45 1   
    34   15   46 1   
    35   16   47 1   
    36   16   48 1   
    37   17   18 1   
    38   17   49 1   
    39   17   61 1   
    40   18   19 1   
    41   18   20 2   
    42   19   21 1   
    43   19   22 1   
    44   19   50 1   
    45   21   23 1   
    46   21   51 1   
    47   21   52 1   
    48   22   53 1   
    49   22   54 1   
    50   22   62 1   
    51   23   25 2   
    52   23   26 1   
    53   24   25 1   
    54   24   27 1   
    55   24   55 1   
    56   25   56 1   
    57   26   27 ar  
    58   26   31 ar  
    59   27   28 ar  
    60   28   29 ar  
    61   28   57 1   
    62   29   30 ar  
    63   29   58 1   
    64   30   31 ar  
    65   30   59 1   
    66   31   60 1   
@<TRIPOS>SUBSTRUCTURE
     1 RND         1 TEMP              0 ****  ****    0 ROOT
