@<TRIPOS>MOLECULE
RNG
   32    33     1     0     0
SMALL
bcc


@<TRIPOS>ATOM
      1 O           6.2810    1.4350   -0.9220 o         1 RNG     -0.520100
      2 C           5.7370    0.5730   -1.6110 c         1 RNG      0.568900
      3 CA          4.4190   -0.0420   -1.2500 c3        1 RNG     -0.233400
      4 CH          4.4150   -1.5470   -1.5480 c3        1 RNG      0.087700
      5 CG          5.4130   -2.2770   -0.6370 c3        1 RNG     -0.084400
      6 CF          4.8510   -2.5320    0.7430 c3        1 RNG     -0.107400
      7 CE          3.4730   -3.1790    0.6470 c3        1 RNG      0.070000
      8 N1          2.5420   -2.4770   -0.2510 n         1 RNG     -0.296400
      9 C1          1.5970   -1.5970    0.3620 c         1 RNG      0.658500
     10 O1          1.3500   -1.7020    1.5740 o         1 RNG     -0.604500
     11 CD          0.8140   -0.6460   -0.5180 c3        1 RNG     -0.158400
     12 CC         -0.0190   -1.3530   -1.5640 c3        1 RNG     -0.068400
     13 CB          0.7430   -2.3290   -2.4370 c3        1 RNG     -0.145400
     14 C2          2.2010   -1.9570   -2.5800 c         1 RNG      0.706500
     15 O2          2.6730   -1.5360   -3.6510 o         1 RNG     -0.623500
     16 N2          3.0720   -2.1570   -1.4800 n         1 RNG     -0.341400
     17 H           6.1890    0.2120   -2.5630 h4        1 RNG      0.003200
     18 HA1         3.6340    0.4700   -1.8730 hc        1 RNG      0.079200
     19 HA2         4.1840    0.1480   -0.1700 hc        1 RNG      0.079200
     20 HH          4.7470   -1.6920   -2.6220 h1        1 RNG      0.095700
     21 HG1         6.3460   -1.6590   -0.5660 hc        1 RNG      0.056700
     22 HG2         5.6860   -3.2560   -1.1140 hc        1 RNG      0.056700
     23 HF1         5.5300   -3.2180    1.3130 hc        1 RNG      0.059200
     24 HF2         4.7850   -1.5710    1.3160 hc        1 RNG      0.059200
     25 HE1         3.5780   -4.2280    0.2480 h1        1 RNG      0.080200
     26 HE2         2.9980   -3.2290    1.6670 h1        1 RNG      0.080200
     27 HD1         0.1350   -0.0510    0.1520 hc        1 RNG      0.077200
     28 HD2         1.5240    0.0760   -1.0040 hc        1 RNG      0.077200
     29 HC1        -0.8560   -1.9060   -1.0590 hc        1 RNG      0.060200
     30 HC2        -0.4890   -0.5660   -2.2150 hc        1 RNG      0.060200
     31 HB1         0.2970   -2.3420   -3.4680 hc        1 RNG      0.083200
     32 HB2         0.6620   -3.3700   -2.0230 hc        1 RNG      0.083200
@<TRIPOS>BOND
     1    1    2 2   
     2    2    3 1   
     3    2   17 1   
     4    3    4 1   
     5    3   18 1   
     6    3   19 1   
     7    4    5 1   
     8    4   16 1   
     9    4   20 1   
    10    5    6 1   
    11    5   21 1   
    12    5   22 1   
    13    6    7 1   
    14    6   23 1   
    15    6   24 1   
    16    7    8 1   
    17    7   25 1   
    18    7   26 1   
    19    8    9 1   
    20    8   16 1   
    21    9   10 2   
    22    9   11 1   
    23   11   12 1   
    24   11   27 1   
    25   11   28 1   
    26   12   13 1   
    27   12   29 1   
    28   12   30 1   
    29   13   14 1   
    30   13   31 1   
    31   13   32 1   
    32   14   15 2   
    33   14   16 1   
@<TRIPOS>SUBSTRUCTURE
     1 RNG         1 TEMP              0 ****  ****    0 ROOT
