@<TRIPOS>MOLECULE
RNG
   32    33     1     0     0
SMALL
bcc


@<TRIPOS>ATOM
      1 O           0.4160   -0.5420   -0.2040 o         1 RNG     -0.520100
      2 C           1.5440   -0.0640   -0.0870 c         1 RNG      0.568900
      3 CA          2.2420    0.0490    1.2340 c3        1 RNG     -0.233400
      4 CH          3.0020    1.3790    1.3420 c3        1 RNG      0.087700
      5 CG          2.0190    2.5590    1.3530 c3        1 RNG     -0.084400
      6 CF          1.4040    2.7810    2.7160 c3        1 RNG     -0.107400
      7 CE          2.4880    2.8340    3.7880 c3        1 RNG      0.070000
      8 N1          3.4340    1.7070    3.7410 n         1 RNG     -0.296400
      9 C1          3.2030    0.6340    4.6570 c         1 RNG      0.658500
     10 O1          2.4800    0.8140    5.6510 o         1 RNG     -0.604500
     11 CD          3.9620   -0.6610    4.4650 c3        1 RNG     -0.158400
     12 CC          5.4630   -0.4860    4.5290 c3        1 RNG     -0.068400
     13 CB          6.0250    0.5670    3.5960 c3        1 RNG     -0.145400
     14 C2          5.1710    0.7600    2.3640 c         1 RNG      0.706500
     15 O2          5.5480    0.3980    1.2360 o         1 RNG     -0.623500
     16 N2          3.9320    1.4350    2.4870 n         1 RNG     -0.341400
     17 H           2.1220    0.2960   -0.9670 h4        1 RNG      0.003200
     18 HA1         1.5070   -0.0540    2.0740 hc        1 RNG      0.079200
     19 HA2         2.9690   -0.8080    1.2980 hc        1 RNG      0.079200
     20 HH          3.6620    1.4790    0.4260 h1        1 RNG      0.095700
     21 HG1         2.5660    3.4860    1.0360 hc        1 RNG      0.056700
     22 HG2         1.2170    2.3590    0.5950 hc        1 RNG      0.056700
     23 HF1         0.6740    1.9620    2.9480 hc        1 RNG      0.059200
     24 HF2         0.8400    3.7490    2.7290 hc        1 RNG      0.059200
     25 HE1         3.0980    3.7730    3.6590 h1        1 RNG      0.080200
     26 HE2         2.0190    2.8480    4.8110 h1        1 RNG      0.080200
     27 HD1         3.6380   -1.3640    5.2800 hc        1 RNG      0.077200
     28 HD2         3.6620   -1.1230    3.4850 hc        1 RNG      0.077200
     29 HC1         5.9330   -1.4790    4.2910 hc        1 RNG      0.060200
     30 HC2         5.7600   -0.2260    5.5810 hc        1 RNG      0.060200
     31 HB1         7.0480    0.2570    3.2510 hc        1 RNG      0.083200
     32 HB2         6.1350    1.5470    4.1320 hc        1 RNG      0.083200
@<TRIPOS>BOND
     1    1    2 2   
     2    2    3 1   
     3    2   17 1   
     4    3    4 1   
     5    3   18 1   
     6    3   19 1   
     7    4    5 1   
     8    4   16 1   
     9    4   20 1   
    10    5    6 1   
    11    5   21 1   
    12    5   22 1   
    13    6    7 1   
    14    6   23 1   
    15    6   24 1   
    16    7    8 1   
    17    7   25 1   
    18    7   26 1   
    19    8    9 1   
    20    8   16 1   
    21    9   10 2   
    22    9   11 1   
    23   11   12 1   
    24   11   27 1   
    25   11   28 1   
    26   12   13 1   
    27   12   29 1   
    28   12   30 1   
    29   13   14 1   
    30   13   31 1   
    31   13   32 1   
    32   14   15 2   
    33   14   16 1   
@<TRIPOS>SUBSTRUCTURE
     1 RNG         1 TEMP              0 ****  ****    0 ROOT
