@<TRIPOS>MOLECULE
RNG
   32    33     1     0     0
SMALL
bcc


@<TRIPOS>ATOM
      1 O           0.4140   -0.5430   -0.2000 o         1 RNG     -0.520100
      2 C           1.5400   -0.0590   -0.0840 c         1 RNG      0.568900
      3 CA          2.2430    0.0510    1.2350 c3        1 RNG     -0.233400
      4 CH          2.9960    1.3830    1.3460 c3        1 RNG      0.087700
      5 CG          2.0070    2.5590    1.3670 c3        1 RNG     -0.084400
      6 CF          1.3960    2.7710    2.7340 c3        1 RNG     -0.107400
      7 CE          2.4850    2.8240    3.8020 c3        1 RNG      0.070000
      8 N1          3.4350    1.7020    3.7460 n         1 RNG     -0.296400
      9 C1          3.2130    0.6230    4.6570 c         1 RNG      0.658500
     10 O1          2.4930    0.7940    5.6550 o         1 RNG     -0.604500
     11 CD          3.9780   -0.6670    4.4550 c3        1 RNG     -0.158400
     12 CC          5.4790   -0.4850    4.5150 c3        1 RNG     -0.068400
     13 CB          6.0320    0.5750    3.5850 c3        1 RNG     -0.145400
     14 C2          5.1720    0.7700    2.3570 c         1 RNG      0.706500
     15 O2          5.5470    0.4160    1.2260 o         1 RNG     -0.623500
     16 N2          3.9300    1.4390    2.4890 n         1 RNG     -0.341400
     17 H           2.1120    0.3090   -0.9650 h4        1 RNG      0.003200
     18 HA1         2.9740   -0.8030    1.2920 hc        1 RNG      0.079200
     19 HA2         1.5110   -0.0600    2.0770 hc        1 RNG      0.079200
     20 HH          3.6520    1.4920    0.4280 h1        1 RNG      0.095700
     21 HG1         1.2030    2.3590    0.6120 hc        1 RNG      0.056700
     22 HG2         2.5480    3.4900    1.0530 hc        1 RNG      0.056700
     23 HF1         0.6710    1.9470    2.9650 hc        1 RNG      0.059200
     24 HF2         0.8270    3.7360    2.7540 hc        1 RNG      0.059200
     25 HE1         2.0190    2.8310    4.8270 h1        1 RNG      0.080200
     26 HE2         3.0890    3.7660    3.6750 h1        1 RNG      0.080200
     27 HD1         3.6770   -1.1250    3.4740 hc        1 RNG      0.077200
     28 HD2         3.6610   -1.3760    5.2680 hc        1 RNG      0.077200
     29 HC1         5.7780   -0.2290    5.5670 hc        1 RNG      0.060200
     30 HC2         5.9520   -1.4750    4.2700 hc        1 RNG      0.060200
     31 HB1         7.0550    0.2720    3.2340 hc        1 RNG      0.083200
     32 HB2         6.1380    1.5540    4.1260 hc        1 RNG      0.083200
@<TRIPOS>BOND
     1    1    2 2   
     2    2    3 1   
     3    2   17 1   
     4    3    4 1   
     5    3   18 1   
     6    3   19 1   
     7    4    5 1   
     8    4   16 1   
     9    4   20 1   
    10    5    6 1   
    11    5   21 1   
    12    5   22 1   
    13    6    7 1   
    14    6   23 1   
    15    6   24 1   
    16    7    8 1   
    17    7   25 1   
    18    7   26 1   
    19    8    9 1   
    20    8   16 1   
    21    9   10 2   
    22    9   11 1   
    23   11   12 1   
    24   11   27 1   
    25   11   28 1   
    26   12   13 1   
    27   12   29 1   
    28   12   30 1   
    29   13   14 1   
    30   13   31 1   
    31   13   32 1   
    32   14   15 2   
    33   14   16 1   
@<TRIPOS>SUBSTRUCTURE
     1 RNG         1 TEMP              0 ****  ****    0 ROOT
