@<TRIPOS>MOLECULE
RNG
   32    33     1     0     0
SMALL
bcc


@<TRIPOS>ATOM
      1 O           0.4030   -0.5300   -0.1980 o         1 RNG     -0.520100
      2 C           1.5330   -0.0550   -0.0830 c         1 RNG      0.568900
      3 CA          2.2360    0.0550    1.2360 c3        1 RNG     -0.233400
      4 CH          2.9980    1.3820    1.3430 c3        1 RNG      0.087700
      5 CG          2.0180    2.5640    1.3600 c3        1 RNG     -0.084400
      6 CF          1.4080    2.7850    2.7250 c3        1 RNG     -0.107400
      7 CE          2.4960    2.8330    3.7940 c3        1 RNG      0.070000
      8 N1          3.4390    1.7040    3.7420 n         1 RNG     -0.296400
      9 C1          3.2080    0.6300    4.6570 c         1 RNG      0.658500
     10 O1          2.4890    0.8100    5.6530 o         1 RNG     -0.604500
     11 CD          3.9640   -0.6660    4.4590 c3        1 RNG     -0.158400
     12 CC          5.4650   -0.4940    4.5200 c3        1 RNG     -0.068400
     13 CB          6.0270    0.5590    3.5870 c3        1 RNG     -0.145400
     14 C2          5.1690    0.7560    2.3580 c         1 RNG      0.706500
     15 O2          5.5420    0.3960    1.2280 o         1 RNG     -0.623500
     16 N2          3.9320    1.4340    2.4860 n         1 RNG     -0.341400
     17 H           2.1090    0.3060   -0.9650 h4        1 RNG      0.003200
     18 HA1         2.9600   -0.8040    1.2960 hc        1 RNG      0.079200
     19 HA2         1.5020   -0.0490    2.0780 hc        1 RNG      0.079200
     20 HH          3.6560    1.4820    0.4250 h1        1 RNG      0.095700
     21 HG1         2.5660    3.4900    1.0430 hc        1 RNG      0.056700
     22 HG2         1.2130    2.3680    0.6040 hc        1 RNG      0.056700
     23 HF1         0.6770    1.9670    2.9580 hc        1 RNG      0.059200
     24 HF2         0.8460    3.7540    2.7420 hc        1 RNG      0.059200
     25 HE1         2.0300    2.8470    4.8190 h1        1 RNG      0.080200
     26 HE2         3.1070    3.7710    3.6650 h1        1 RNG      0.080200
     27 HD1         3.6600   -1.1250    3.4800 hc        1 RNG      0.077200
     28 HD2         3.6410   -1.3700    5.2740 hc        1 RNG      0.077200
     29 HC1         5.7660   -0.2360    5.5710 hc        1 RNG      0.060200
     30 HC2         5.9320   -1.4880    4.2780 hc        1 RNG      0.060200
     31 HB1         6.1400    1.5380    4.1240 hc        1 RNG      0.083200
     32 HB2         7.0480    0.2470    3.2370 hc        1 RNG      0.083200
@<TRIPOS>BOND
     1    1    2 2   
     2    2    3 1   
     3    2   17 1   
     4    3    4 1   
     5    3   18 1   
     6    3   19 1   
     7    4    5 1   
     8    4   16 1   
     9    4   20 1   
    10    5    6 1   
    11    5   21 1   
    12    5   22 1   
    13    6    7 1   
    14    6   23 1   
    15    6   24 1   
    16    7    8 1   
    17    7   25 1   
    18    7   26 1   
    19    8    9 1   
    20    8   16 1   
    21    9   10 2   
    22    9   11 1   
    23   11   12 1   
    24   11   27 1   
    25   11   28 1   
    26   12   13 1   
    27   12   29 1   
    28   12   30 1   
    29   13   14 1   
    30   13   31 1   
    31   13   32 1   
    32   14   15 2   
    33   14   16 1   
@<TRIPOS>SUBSTRUCTURE
     1 RNG         1 TEMP              0 ****  ****    0 ROOT
