@<TRIPOS>MOLECULE
RNG
   32    32     1     0     0
SMALL
bcc


@<TRIPOS>ATOM
      1 O          -2.4340   -1.2270   -3.1500 o         1 RNG     -0.280000
      2 C          -2.7920   -0.6350   -2.1620 c1        1 RNG      0.182000
      3 CA         -1.8940   -0.5460   -0.9890 c2        1 RNG     -0.242000
      4 CH         -1.0590    0.6560   -1.1050 c3        1 RNG      0.020000
      5 CG         -1.6540    1.7160   -0.3070 c3        1 RNG     -0.182000
      6 CF         -1.0090    1.8880    0.8640 c3        1 RNG     -0.163000
      7 CE         -0.5160    0.8810    1.6280 c3        1 RNG     -0.037000
      8 N1          0.0890   -0.1810    0.7740 n         1 RNG     -0.229000
      9 C1          0.3140   -1.5800    0.9250 c2        1 RNG      0.298000
     10 O1         -0.4170   -2.3290    1.5590 o         1 RNG     -0.338000
     11 CD          1.6730   -1.9680    0.3990 c3        1 RNG     -0.175000
     12 CC          2.6720   -1.0020    1.0520 c3        1 RNG     -0.144000
     13 CB          2.6570    0.3290    0.3070 c3        1 RNG     -0.173000
     14 C2          1.8300    0.1010   -0.9310 c2        1 RNG      0.312000
     15 O2          2.2880   -0.1660   -2.0260 o         1 RNG     -0.348000
     16 N2          0.4510    0.2920   -0.6640 n         1 RNG     -0.235000
     17 H          -3.6130   -0.1540   -2.1680 ha        1 RNG      0.095000
     18 HA1        -1.3210   -1.3430   -0.9540 ha        1 RNG      0.120000
     19 HA2        -2.4270   -0.4940   -0.1750 ha        1 RNG      0.120000
     20 HH         -1.0490    0.9420   -2.0450 h1        1 RNG      0.139000
     21 HG1        -2.6100    1.4850   -0.1220 hc        1 RNG      0.096500
     22 HG2        -1.6220    2.5340   -0.8030 hc        1 RNG      0.096500
     23 HF1        -0.1820    2.4060    0.5990 hc        1 RNG      0.097500
     24 HF2        -1.6880    2.2890    1.4340 hc        1 RNG      0.097500
     25 HE1         0.2280    1.2720    2.1410 h1        1 RNG      0.103500
     26 HE2        -1.2840    0.4720    2.0590 h1        1 RNG      0.103500
     27 HD1         1.8240   -2.0480   -0.5420 hc        1 RNG      0.117500
     28 HD2         1.8320   -2.9240    0.6970 hc        1 RNG      0.117500
     29 HC1         3.5950   -1.4030    0.8950 hc        1 RNG      0.095500
     30 HC2         2.3310   -0.8190    1.9370 hc        1 RNG      0.095500
     31 HB1         3.5430    0.5850   -0.0090 hc        1 RNG      0.119500
     32 HB2         2.2440    0.9720    0.8830 hc        1 RNG      0.119500
@<TRIPOS>BOND
     1    1    2 1   
     2    2   17 1   
     3    3    4 1   
     4    3   18 1   
     5    3   19 1   
     6    4    5 1   
     7    4   16 1   
     8    4   20 1   
     9    5    6 1   
    10    5   21 1   
    11    5   22 1   
    12    6    7 1   
    13    6   23 1   
    14    6   24 1   
    15    7    8 1   
    16    7   25 1   
    17    7   26 1   
    18    8    9 1   
    19    8   16 1   
    20    9   10 1   
    21    9   11 1   
    22   11   12 1   
    23   11   27 1   
    24   11   28 1   
    25   12   13 1   
    26   12   29 1   
    27   12   30 1   
    28   13   14 1   
    29   13   31 1   
    30   13   32 1   
    31   14   15 1   
    32   14   16 1   
@<TRIPOS>SUBSTRUCTURE
     1 RNG         1 TEMP              0 ****  ****    0 ROOT
