@<TRIPOS>MOLECULE
RNH
   56    55     1     0     0
SMALL
bcc


@<TRIPOS>ATOM
      1 CAA        -0.1260    0.1050    0.8250 c3        1 RNH     -0.080400
      2 CAB        13.3680    0.4760    6.7300 c3        1 RNH     -0.113600
      3 CAC        12.5210    2.2640    8.2280 c3        1 RNH     -0.113600
      4 OAD         7.3960   -1.9420    2.3100 o         1 RNH     -0.372100
      5 OAE        10.9690   -1.0670    5.4420 o         1 RNH     -0.401100
      6 OAG         9.8350    1.5460    7.5210 oh        1 RNH     -0.642800
      7 CAJ         1.2710    0.2490    0.2570 c3        1 RNH     -0.080400
      8 CAK         2.3120   -0.1520    1.2820 c3        1 RNH     -0.078400
      9 CAL         3.7090   -0.0030    0.7030 c3        1 RNH     -0.112400
     10 CAM         4.7280   -0.4140    1.7580 c3        1 RNH      0.109800
     11 CAN         8.7200   -0.3500    4.1370 c3        1 RNH      0.100800
     12 CAO         7.7080    0.3100    3.1950 c3        1 RNH     -0.178400
     13 CAP        12.1250    2.4430    5.7870 c3        1 RNH      0.119400
     14 NAQ         6.1420   -0.2960    1.2570 n4        1 RNH     -0.675800
     15 NAR         9.3720    0.6010    5.0660 n4        1 RNH     -0.677800
     16 OAS        11.8750    1.7550    4.5710 oh        1 RNH     -0.677800
     17 CAT         7.1340   -0.7500    2.2900 c         1 RNH      0.537100
     18 CAU        10.5010   -0.0360    5.8850 c         1 RNH      0.579100
     19 CAV        10.9100    0.6950    7.1620 c3        1 RNH      0.106100
     20 CAW        12.2370    1.4640    6.9620 c3        1 RNH     -0.109000
     21 CAY        -1.1710    0.5050   -0.1960 c3        1 RNH     -0.079400
     22 CAZ        -2.5640    0.3640    0.3630 c3        1 RNH     -0.097100
     23 HAA        -0.2300    0.7450    1.7400 hc        1 RNH      0.046200
     24 HAAA       -0.2980   -0.9580    1.1400 hc        1 RNH      0.046200
     25 HAB        13.1650   -0.1640    5.8380 hc        1 RNH      0.067033
     26 HABA       13.5030   -0.1830    7.6220 hc        1 RNH      0.067033
     27 HABB       14.3250    1.0300    6.5600 hc        1 RNH      0.067033
     28 HAC        12.4560    1.6080    9.1300 hc        1 RNH      0.067033
     29 HACA       11.8040    3.1130    8.3360 hc        1 RNH      0.067033
     30 HACB       13.5560    2.6870    8.1810 hc        1 RNH      0.067033
     31 HOAG       10.0250    1.9060    8.4020 ho        1 RNH      0.478000
     32 HAJ         1.4400    1.3130   -0.0590 hc        1 RNH      0.051700
     33 HAJA        1.3720   -0.3920   -0.6580 hc        1 RNH      0.051700
     34 HAK         2.2080    0.4900    2.1950 hc        1 RNH      0.057700
     35 HAKA        2.1400   -1.2170    1.5930 hc        1 RNH      0.057700
     36 HAL         3.8020   -0.6510   -0.2090 hc        1 RNH      0.075700
     37 HALA        3.8700    1.0620    0.3900 hc        1 RNH      0.075700
     38 HAM         4.5640   -1.4910    2.0560 hx        1 RNH      0.109700
     39 HAMA        4.6310    0.2420    2.6690 hx        1 RNH      0.109700
     40 HAN         8.2080   -1.1500    4.7510 hx        1 RNH      0.137200
     41 HANA        9.5290   -0.8610    3.5290 hx        1 RNH      0.137200
     42 HAO         8.2060    1.1050    2.5720 hc        1 RNH      0.117700
     43 HAOA        6.8720    0.7920    3.7750 hc        1 RNH      0.117700
     44 HAP        13.0580    3.0610    5.7150 h1        1 RNH      0.081200
     45 HAPA       11.2370    3.1190    5.9290 h1        1 RNH      0.081200
     46 HNAQ        6.2340   -0.8930    0.4180 hn        1 RNH      0.472800
     47 HNAR        8.6880    0.9950    5.7270 hn        1 RNH      0.481800
     48 HOAS       12.7240    1.4820    4.1990 ho        1 RNH      0.450000
     49 HAV        11.0550   -0.1090    7.9470 h1        1 RNH      0.124700
     50 HAY        -0.9980    1.5680   -0.5120 hc        1 RNH      0.044700
     51 HAYA       -1.0660   -0.1350   -1.1110 hc        1 RNH      0.044700
     52 HAZ        -3.3180    0.6640   -0.4040 hc        1 RNH      0.043367
     53 HAZA       -2.7660   -0.6930    0.6610 hc        1 RNH      0.043367
     54 HAZB       -2.6980    1.0140    1.2620 hc        1 RNH      0.043367
     55 HAQ2        6.3250    0.6750    0.9810 hn        1 RNH      0.472800
     56 HAR2        9.8040    1.3830    4.5440 hn        1 RNH      0.481800
@<TRIPOS>BOND
     1    1    7 1   
     2    1   21 1   
     3    1   23 1   
     4    1   24 1   
     5    2   20 1   
     6    2   25 1   
     7    2   26 1   
     8    2   27 1   
     9    3   20 1   
    10    3   28 1   
    11    3   29 1   
    12    3   30 1   
    13    4   17 2   
    14    5   18 2   
    15    6   19 1   
    16    6   31 1   
    17    7    8 1   
    18    7   32 1   
    19    7   33 1   
    20    8    9 1   
    21    8   34 1   
    22    8   35 1   
    23    9   10 1   
    24    9   36 1   
    25    9   37 1   
    26   10   14 1   
    27   10   38 1   
    28   10   39 1   
    29   11   12 1   
    30   11   15 1   
    31   11   40 1   
    32   11   41 1   
    33   12   17 1   
    34   12   42 1   
    35   12   43 1   
    36   13   16 1   
    37   13   20 1   
    38   13   44 1   
    39   13   45 1   
    40   14   17 1   
    41   14   46 1   
    42   14   55 1   
    43   15   18 1   
    44   15   47 1   
    45   15   56 1   
    46   16   48 1   
    47   18   19 1   
    48   19   20 1   
    49   19   49 1   
    50   21   22 1   
    51   21   50 1   
    52   21   51 1   
    53   22   52 1   
    54   22   53 1   
    55   22   54 1   
@<TRIPOS>SUBSTRUCTURE
     1 RNH         1 TEMP              0 ****  ****    0 ROOT
