@<TRIPOS>MOLECULE
RNH
   56    55     1     0     0
SMALL
bcc


@<TRIPOS>ATOM
      1 CAA         0.3460    0.6920    0.5900 c3        1 RNH     -0.080400
      2 CAB        12.1210    1.8410    4.9170 c3        1 RNH     -0.112100
      3 CAC        13.2160    2.2650    7.0990 c3        1 RNH     -0.112100
      4 OAD         6.7740   -2.6840    3.7770 o         1 RNH     -0.372100
      5 OAE         9.1590   -0.3030    7.3610 o         1 RNH     -0.396100
      6 OAG        11.4190    0.6760    8.3910 oh        1 RNH     -0.533800
      7 CAJ         1.6530    0.0380    0.1940 c3        1 RNH     -0.080400
      8 CAK         2.5720   -0.0950    1.3920 c3        1 RNH     -0.078400
      9 CAL         3.8800   -0.7520    0.9840 c3        1 RNH     -0.112400
     10 CAM         4.7770   -0.8690    2.2100 c3        1 RNH      0.109800
     11 CAN         8.5750   -0.8340    4.7670 c3        1 RNH      0.094800
     12 CAO         7.9480   -0.5810    3.3920 c3        1 RNH     -0.178400
     13 CAP        10.8860    3.0170    6.7710 c3        1 RNH      0.127400
     14 NAQ         6.0960   -1.5190    1.8860 n4        1 RNH     -0.675800
     15 NAR         9.6570    0.1160    5.1180 n4        1 RNH     -0.685800
     16 OAS         9.6370    2.7220    6.1480 oh        1 RNH     -0.698800
     17 CAT         6.9500   -1.6750    3.1120 c         1 RNH      0.537100
     18 CAU        10.0250    0.0930    6.6040 c         1 RNH      0.522100
     19 CAV        11.4440    0.5480    6.9930 c3        1 RNH      0.122100
     20 CAW        11.8890    1.9130    6.4180 c3        1 RNH     -0.056000
     21 CAY        -0.5770    0.8280   -0.6030 c3        1 RNH     -0.079400
     22 CAZ        -1.8810    1.4770   -0.2150 c3        1 RNH     -0.097100
     23 HAA        -0.1570    0.0810    1.3860 hc        1 RNH      0.046700
     24 HAAA        0.5460    1.7060    1.0260 hc        1 RNH      0.046700
     25 HAB        12.9190    2.5760    4.6290 hc        1 RNH      0.063200
     26 HABA       12.4770    0.8310    4.6030 hc        1 RNH      0.063200
     27 HABB       11.2070    2.1290    4.3430 hc        1 RNH      0.063200
     28 HAC        13.0890    2.3000    8.2090 hc        1 RNH      0.063200
     29 HACA       13.9900    1.5020    6.8460 hc        1 RNH      0.063200
     30 HACB       13.5680    3.2650    6.7480 hc        1 RNH      0.063200
     31 HOAG       11.4700   -0.2070    8.7900 ho        1 RNH      0.446000
     32 HAJ         1.4490   -0.9750   -0.2420 hc        1 RNH      0.052200
     33 HAJA        2.1540    0.6510   -0.6020 hc        1 RNH      0.052200
     34 HAK         2.0680   -0.7090    2.1840 hc        1 RNH      0.057700
     35 HAKA        2.7750    0.9200    1.8250 hc        1 RNH      0.057700
     36 HAL         3.6650   -1.7660    0.5530 hc        1 RNH      0.075700
     37 HALA        4.3750   -0.1350    0.1880 hc        1 RNH      0.075700
     38 HAM         4.9930    0.1520    2.6330 hx        1 RNH      0.110200
     39 HAMA        4.2740   -1.5020    2.9990 hx        1 RNH      0.110200
     40 HAN         8.9960   -1.8830    4.8100 hx        1 RNH      0.137700
     41 HANA        7.7700   -0.7620    5.5630 hx        1 RNH      0.137700
     42 HAO         7.4340    0.4210    3.3700 hc        1 RNH      0.116700
     43 HAOA        8.7300   -0.5920    2.5820 hc        1 RNH      0.116700
     44 HAP        10.7480    3.0580    7.8870 h1        1 RNH      0.080700
     45 HAPA       11.2670    4.0030    6.3930 h1        1 RNH      0.080700
     46 HNAQ        6.5830   -0.9630    1.1740 hn        1 RNH      0.472800
     47 HNAR       10.5010   -0.0790    4.5690 hn        1 RNH      0.473300
     48 HOAS        9.0290    3.4290    6.4000 ho        1 RNH      0.453000
     49 HAV        12.1490   -0.2640    6.6500 h1        1 RNH      0.092700
     50 HAY        -0.7770   -0.1870   -1.0390 hc        1 RNH      0.044700
     51 HAYA       -0.0740    1.4380   -1.3990 hc        1 RNH      0.044700
     52 HAZ        -2.5460    1.5670   -1.1080 hc        1 RNH      0.043367
     53 HAZA       -2.4110    0.8700    0.5590 hc        1 RNH      0.043367
     54 HAZB       -1.7070    2.4990    0.1990 hc        1 RNH      0.043367
     55 HAQ2        5.9020   -2.4540    1.4910 hn        1 RNH      0.472800
     56 HAR2        9.3640    1.0900    4.9150 hn        1 RNH      0.473300
@<TRIPOS>BOND
     1    1    7 1   
     2    1   21 1   
     3    1   23 1   
     4    1   24 1   
     5    2   20 1   
     6    2   25 1   
     7    2   26 1   
     8    2   27 1   
     9    3   20 1   
    10    3   28 1   
    11    3   29 1   
    12    3   30 1   
    13    4   17 2   
    14    5   18 2   
    15    6   19 1   
    16    6   31 1   
    17    7    8 1   
    18    7   32 1   
    19    7   33 1   
    20    8    9 1   
    21    8   34 1   
    22    8   35 1   
    23    9   10 1   
    24    9   36 1   
    25    9   37 1   
    26   10   14 1   
    27   10   38 1   
    28   10   39 1   
    29   11   12 1   
    30   11   15 1   
    31   11   40 1   
    32   11   41 1   
    33   12   17 1   
    34   12   42 1   
    35   12   43 1   
    36   13   16 1   
    37   13   20 1   
    38   13   44 1   
    39   13   45 1   
    40   14   17 1   
    41   14   46 1   
    42   14   55 1   
    43   15   18 1   
    44   15   47 1   
    45   15   56 1   
    46   16   48 1   
    47   18   19 1   
    48   19   20 1   
    49   19   49 1   
    50   21   22 1   
    51   21   50 1   
    52   21   51 1   
    53   22   52 1   
    54   22   53 1   
    55   22   54 1   
@<TRIPOS>SUBSTRUCTURE
     1 RNH         1 TEMP              0 ****  ****    0 ROOT
