@<TRIPOS>MOLECULE
RNH
   54    53     1     0     0
SMALL
bcc


@<TRIPOS>ATOM
      1 CAA         7.8010    0.3290   -0.3070 c3        1 RNH     -0.079400
      2 CAB        -4.4230    0.8570    1.6530 c3        1 RNH     -0.089600
      3 CAC        -6.5260    1.1720    0.3690 c3        1 RNH     -0.089600
      4 OAD         1.4190   -1.7540    2.3710 o         1 RNH     -0.606100
      5 OAE        -2.5210   -0.0620   -1.5500 o         1 RNH     -0.622100
      6 OAG        -5.2090   -0.1120   -1.9070 oh        1 RNH     -0.581800
      7 CAJ         6.3420    0.7240   -0.2260 c3        1 RNH     -0.078400
      8 CAK         5.4530   -0.4920   -0.0750 c3        1 RNH     -0.077400
      9 CAL         3.9950   -0.0940    0.0060 c3        1 RNH     -0.104400
     10 CAM         3.1220   -1.3420    0.1580 c3        1 RNH      0.084000
     11 CAN        -1.2970   -1.7320    0.3490 c3        1 RNH      0.089000
     12 CAO        -0.5030   -0.8060    1.2740 c3        1 RNH     -0.188400
     13 CAP        -4.4220    2.2460   -0.4270 c3        1 RNH      0.125400
     14 NAQ         1.7100   -1.0790    0.1950 n         1 RNH     -0.566900
     15 NAR        -2.7020   -1.4410    0.2820 n         1 RNH     -0.549900
     16 OAS        -4.5510    3.3480    0.4570 oh        1 RNH     -0.599800
     17 CAT         0.9500   -1.2420    1.3350 c         1 RNH      0.657100
     18 CAU        -3.2200   -0.5570   -0.6410 c         1 RNH      0.625100
     19 CAV        -4.7240   -0.2450   -0.5870 c3        1 RNH      0.082100
     20 CAW        -5.0160    1.0100    0.2630 c3        1 RNH     -0.076000
     21 CAY         8.6930    1.5430   -0.4580 c3        1 RNH     -0.080400
     22 CAZ        10.1460    1.1550   -0.5390 c3        1 RNH     -0.093100
     23 HAA         8.0900   -0.2360    0.6190 hc        1 RNH      0.040700
     24 HAAA        7.9570   -0.3620   -1.1770 hc        1 RNH      0.040700
     25 HAB        -4.7480   -0.1050    2.1150 hc        1 RNH      0.045367
     26 HABA       -3.3080    0.8910    1.6150 hc        1 RNH      0.045367
     27 HABB       -4.7710    1.7020    2.2970 hc        1 RNH      0.045367
     28 HAC        -6.7640    2.1560    0.8420 hc        1 RNH      0.045367
     29 HACA       -6.9860    1.1330   -0.6480 hc        1 RNH      0.045367
     30 HACB       -6.9610    0.3550    0.9920 hc        1 RNH      0.045367
     31 HOAG       -4.5960    0.4610   -2.3920 ho        1 RNH      0.423000
     32 HAJ         6.1870    1.4140    0.6450 hc        1 RNH      0.040200
     33 HAJA        6.0530    1.2890   -1.1510 hc        1 RNH      0.040200
     34 HAK         5.6090   -1.1820   -0.9450 hc        1 RNH      0.043200
     35 HAKA        5.7410   -1.0560    0.8520 hc        1 RNH      0.043200
     36 HAL         3.8390    0.5920    0.8790 hc        1 RNH      0.044700
     37 HALA        3.7070    0.4700   -0.9200 hc        1 RNH      0.044700
     38 HAM         3.3220   -2.0300   -0.7150 h1        1 RNH      0.062700
     39 HAMA        3.4160   -1.8830    1.1040 h1        1 RNH      0.062700
     40 HAN        -0.8750   -1.6660   -0.6960 h1        1 RNH      0.072700
     41 HANA       -1.1820   -2.7940    0.7140 h1        1 RNH      0.072700
     42 HAO        -0.5740    0.2550    0.9180 hc        1 RNH      0.074200
     43 HAOA       -0.9120   -0.8480    2.3180 hc        1 RNH      0.074200
     44 HAP        -4.9820    2.4520   -1.3790 h1        1 RNH      0.035700
     45 HAPA       -3.3380    2.0710   -0.6660 h1        1 RNH      0.035700
     46 HNAQ        1.3270   -0.5630   -0.5610 hn        1 RNH      0.310500
     47 HNAR       -3.2490   -1.6570    1.0830 hn        1 RNH      0.312500
     48 HOAS       -4.2230    4.1190   -0.0220 ho        1 RNH      0.404000
     49 HAV        -5.3070   -1.1150   -0.1660 h1        1 RNH      0.091700
     50 HAY         8.4010    2.1080   -1.3830 hc        1 RNH      0.038200
     51 HAYA        8.5350    2.2330    0.4130 hc        1 RNH      0.038200
     52 HAZ        10.4620    0.6130    0.3850 hc        1 RNH      0.033033
     53 HAZA       10.3280    0.4870   -1.4160 hc        1 RNH      0.033033
     54 HAZB       10.7850    2.0640   -0.6500 hc        1 RNH      0.033033
@<TRIPOS>BOND
     1    1    7 1   
     2    1   21 1   
     3    1   23 1   
     4    1   24 1   
     5    2   20 1   
     6    2   25 1   
     7    2   26 1   
     8    2   27 1   
     9    3   20 1   
    10    3   28 1   
    11    3   29 1   
    12    3   30 1   
    13    4   17 2   
    14    5   18 2   
    15    6   19 1   
    16    6   31 1   
    17    7    8 1   
    18    7   32 1   
    19    7   33 1   
    20    8    9 1   
    21    8   34 1   
    22    8   35 1   
    23    9   10 1   
    24    9   36 1   
    25    9   37 1   
    26   10   14 1   
    27   10   38 1   
    28   10   39 1   
    29   11   12 1   
    30   11   15 1   
    31   11   40 1   
    32   11   41 1   
    33   12   17 1   
    34   12   42 1   
    35   12   43 1   
    36   13   16 1   
    37   13   20 1   
    38   13   44 1   
    39   13   45 1   
    40   14   17 1   
    41   14   46 1   
    42   15   18 1   
    43   15   47 1   
    44   16   48 1   
    45   18   19 1   
    46   19   20 1   
    47   19   49 1   
    48   21   22 1   
    49   21   50 1   
    50   21   51 1   
    51   22   52 1   
    52   22   53 1   
    53   22   54 1   
@<TRIPOS>SUBSTRUCTURE
     1 RNH         1 TEMP              0 ****  ****    0 ROOT
