@<TRIPOS>MOLECULE
RNH
   56    55     1     0     0
SMALL
bcc


@<TRIPOS>ATOM
      1 CAA        -0.1420    0.1120    0.8590 c3        1 RNH     -0.080400
      2 CAB        13.3850    0.4540    6.7030 c3        1 RNH     -0.113600
      3 CAC        12.5670    2.2720    8.1790 c3        1 RNH     -0.113600
      4 OAD         7.3760   -1.9450    2.3290 o         1 RNH     -0.372100
      5 OAE        10.9610   -1.0770    5.4460 o         1 RNH     -0.401100
      6 OAG         9.8680    1.5790    7.4940 oh        1 RNH     -0.642800
      7 CAJ         1.2530    0.2520    0.2850 c3        1 RNH     -0.080400
      8 CAK         2.2980   -0.1470    1.3080 c3        1 RNH     -0.078400
      9 CAL         3.6920   -0.0030    0.7240 c3        1 RNH     -0.112400
     10 CAM         4.7140   -0.4120    1.7770 c3        1 RNH      0.109800
     11 CAN         8.7170   -0.3480    4.1380 c3        1 RNH      0.100800
     12 CAO         7.7070    0.3120    3.1930 c3        1 RNH     -0.178400
     13 CAP        12.1620    2.4230    5.7370 c3        1 RNH      0.119400
     14 NAQ         6.1270   -0.2990    1.2690 ny        1 RNH     -0.675800
     15 NAR         9.3830    0.6060    5.0540 ny        1 RNH     -0.677800
     16 OAS        11.8980    1.7210    4.5320 oh        1 RNH     -0.677800
     17 CAT         7.1220   -0.7510    2.3010 c         1 RNH      0.537100
     18 CAU        10.5070   -0.0340    5.8770 c         1 RNH      0.579100
     19 CAV        10.9310    0.7100    7.1410 c3        1 RNH      0.106100
     20 CAW        12.2670    1.4590    6.9260 c3        1 RNH     -0.109000
     21 CAY        -1.1900    0.5100   -0.1590 c3        1 RNH     -0.079400
     22 CAZ        -2.5810    0.3730    0.4050 c3        1 RNH     -0.097100
     23 HAA        -0.3140   -0.9500    1.1780 hc        1 RNH      0.046200
     24 HAAA       -0.2420    0.7560    1.7720 hc        1 RNH      0.046200
     25 HAB        13.5150   -0.1950    7.6040 hc        1 RNH      0.067033
     26 HABA       13.1700   -0.1970    5.8210 hc        1 RNH      0.067033
     27 HABB       14.3470    0.9930    6.5210 hc        1 RNH      0.067033
     28 HAC        12.4970    1.6300    9.0900 hc        1 RNH      0.067033
     29 HACA       13.6070    2.6810    8.1220 hc        1 RNH      0.067033
     30 HACB       11.8610    3.1320    8.2780 hc        1 RNH      0.067033
     31 HOAG       10.0680    1.9500    8.3680 ho        1 RNH      0.478000
     32 HAJ         1.4230    1.3140   -0.0350 hc        1 RNH      0.051700
     33 HAJA        1.3500   -0.3930   -0.6270 hc        1 RNH      0.051700
     34 HAK         2.1250   -1.2100    1.6240 hc        1 RNH      0.057700
     35 HAKA        2.1970    0.5000    2.2190 hc        1 RNH      0.057700
     36 HAL         3.8540    1.0610    0.4050 hc        1 RNH      0.075700
     37 HALA        3.7800   -0.6550   -0.1860 hc        1 RNH      0.075700
     38 HAM         4.5490   -1.4870    2.0800 hx        1 RNH      0.109700
     39 HAMA        4.6230    0.2500    2.6840 hx        1 RNH      0.109700
     40 HAN         8.2010   -1.1370    4.7630 hx        1 RNH      0.137200
     41 HANA        9.5180   -0.8730    3.5320 hx        1 RNH      0.137200
     42 HAO         8.2100    1.0970    2.5610 hc        1 RNH      0.117700
     43 HAOA        6.8770    0.8060    3.7720 hc        1 RNH      0.117700
     44 HAP        13.1030    3.0280    5.6530 h1        1 RNH      0.081200
     45 HAPA       11.2840    3.1120    5.8740 h1        1 RNH      0.081200
     46 HNAQ        6.2140   -0.9010    0.4330 hn        1 RNH      0.472800
     47 HNAR        9.8220    1.3770    4.5220 hn        1 RNH      0.481800
     48 HOAS       12.7420    1.4320    4.1610 ho        1 RNH      0.450000
     49 HAV        11.0700   -0.0850    7.9370 h1        1 RNH      0.124700
     50 HAY        -1.0890   -0.1330   -1.0730 hc        1 RNH      0.044700
     51 HAYA       -1.0170    1.5720   -0.4800 hc        1 RNH      0.044700
     52 HAZ        -2.7830   -0.6830    0.7070 hc        1 RNH      0.043367
     53 HAZA       -3.3380    0.6710   -0.3600 hc        1 RNH      0.043367
     54 HAZB       -2.7110    1.0260    1.3020 hc        1 RNH      0.043367
     55 HAQ2        6.3110    0.6700    0.9890 hn        1 RNH      0.472800
     56 HAR2        8.7060    1.0150    5.7130 hn        1 RNH      0.481800
@<TRIPOS>BOND
     1    1    7 1   
     2    1   21 1   
     3    1   23 1   
     4    1   24 1   
     5    2   20 1   
     6    2   25 1   
     7    2   26 1   
     8    2   27 1   
     9    3   20 1   
    10    3   28 1   
    11    3   29 1   
    12    3   30 1   
    13    4   17 2   
    14    5   18 2   
    15    6   19 1   
    16    6   31 1   
    17    7    8 1   
    18    7   32 1   
    19    7   33 1   
    20    8    9 1   
    21    8   34 1   
    22    8   35 1   
    23    9   10 1   
    24    9   36 1   
    25    9   37 1   
    26   10   14 1   
    27   10   38 1   
    28   10   39 1   
    29   11   12 1   
    30   11   15 1   
    31   11   40 1   
    32   11   41 1   
    33   12   17 1   
    34   12   42 1   
    35   12   43 1   
    36   13   16 1   
    37   13   20 1   
    38   13   44 1   
    39   13   45 1   
    40   14   17 1   
    41   14   46 1   
    42   14   55 1   
    43   15   18 1   
    44   15   47 1   
    45   15   56 1   
    46   16   48 1   
    47   18   19 1   
    48   19   20 1   
    49   19   49 1   
    50   21   22 1   
    51   21   50 1   
    52   21   51 1   
    53   22   52 1   
    54   22   53 1   
    55   22   54 1   
@<TRIPOS>SUBSTRUCTURE
     1 RNH         1 TEMP              0 ****  ****    0 ROOT
