@<TRIPOS>MOLECULE
RNN
   54    54     1     0     0
SMALL
bcc


@<TRIPOS>ATOM
      1 C1          0.0010   -0.2340    0.5600 ca        1 RNN     -0.106500
      2 C2          1.3790   -0.0320    0.5410 ca        1 RNN     -0.106500
      3 C3         -0.0090    0.0450    2.9610 ca        1 RNN     -0.106500
      4 C4          1.3690    0.2470    2.9420 ca        1 RNN     -0.106500
      5 C5         -0.7030   -0.1980    1.7690 ca        1 RNN     -0.095300
      6 C6          2.0730    0.2120    1.7320 ca        1 RNN     -0.095300
      7 C7         -6.5960   -3.4050    0.6880 c3        1 RNN     -0.102600
      8 C8         -6.3700   -5.5080    1.9910 c3        1 RNN     -0.102600
      9 C9          7.9690    3.4510    0.6960 c3        1 RNN     -0.102600
     10 C10         7.7450    5.5090    2.0680 c3        1 RNN     -0.102600
     11 C11        -2.1810   -0.3850    1.7840 c3        1 RNN     -0.051100
     12 C12         3.5510    0.3980    1.7180 c3        1 RNN     -0.051100
     13 C13        -2.5150   -1.8770    1.7930 c3        1 RNN      0.093800
     14 C14         3.8860    1.8890    1.7610 c3        1 RNN      0.093800
     15 C15        -5.9230   -4.0530    1.8810 c3        1 RNN     -0.324900
     16 C16         7.2960    4.0580    1.9100 c3        1 RNN     -0.324900
     17 N17        -3.9680   -2.1720    1.7980 ny        1 RNN     -0.703900
     18 N18         5.3400    2.1830    1.7610 ny        1 RNN     -0.703900
     19 O19        -3.6330   -4.4110    2.9880 o         1 RNN     -0.548050
     20 O20        -3.7150   -4.4060    0.5790 o         1 RNN     -0.548050
     21 O21         5.0060    4.3800    3.0280 o         1 RNN     -0.548050
     22 O22         5.0890    4.4600    0.6200 o         1 RNN     -0.548050
     23 S23        -4.2440   -4.0560    1.8030 s6        1 RNN      1.359900
     24 S24         5.6170    4.0660    1.8310 s6        1 RNN      1.359900
     25 H1         -0.5330   -0.4160   -0.3860 ha        1 RNN      0.148500
     26 H2          1.9200   -0.0700   -0.4180 ha        1 RNN      0.148500
     27 H3         -0.5500    0.0830    3.9200 ha        1 RNN      0.148500
     28 H4          1.9040    0.4290    3.8880 ha        1 RNN      0.148500
     29 H7         -7.6760   -3.7050    0.6490 hc        1 RNN      0.083367
     30 H7A        -6.1210   -3.7400   -0.2690 hc        1 RNN      0.083367
     31 H7B        -6.5660   -2.2910    0.7590 hc        1 RNN      0.083367
     32 H8         -5.8840   -6.0090    2.8660 hc        1 RNN      0.083367
     33 H8A        -6.1380   -6.0660    1.0490 hc        1 RNN      0.083367
     34 H8B        -7.4780   -5.5510    2.1470 hc        1 RNN      0.083367
     35 H9          9.0490    3.7490    0.6680 hc        1 RNN      0.083367
     36 H9A         7.9360    2.3350    0.7290 hc        1 RNN      0.083367
     37 H9B         7.4950    3.8180   -0.2490 hc        1 RNN      0.083367
     38 H10         7.5130    6.0980    1.1460 hc        1 RNN      0.083367
     39 H10A        7.2590    5.9800    2.9590 hc        1 RNN      0.083367
     40 H10B        8.8530    5.5450    2.2250 hc        1 RNN      0.083367
     41 H11        -2.6190    0.1130    2.6910 hc        1 RNN      0.074450
     42 H11A       -2.6290    0.1050    0.8770 hc        1 RNN      0.074450
     43 H12         4.0020   -0.1230    2.6050 hc        1 RNN      0.074450
     44 H12A        3.9860   -0.0670    0.7920 hc        1 RNN      0.074450
     45 H13        -2.0710   -2.3640    0.8740 hx        1 RNN      0.117950
     46 H13A       -2.0660   -2.3560    2.7140 hx        1 RNN      0.117950
     47 H14         3.4440    2.3430    2.6980 hx        1 RNN      0.117950
     48 H14A        3.4360    2.4010    0.8580 hx        1 RNN      0.117950
     49 H15        -6.3160   -3.5420    2.8120 h1        1 RNN      0.154700
     50 H16         7.6890    3.5170    2.8230 h1        1 RNN      0.154700
     51 HN17       -4.3880   -1.7300    2.6140 hn        1 RNN      0.449550
     52 HN18        5.7540    1.7870    0.9180 hn        1 RNN      0.449550
     53 H172       -4.3920   -1.7450    0.9740 hn        1 RNN      0.449550
     54 H182        5.7680    1.7120    2.5560 hn        1 RNN      0.449550
@<TRIPOS>BOND
     1    1    2 ar  
     2    1    5 ar  
     3    1   25 1   
     4    2    6 ar  
     5    2   26 1   
     6    3    4 ar  
     7    3    5 ar  
     8    3   27 1   
     9    4    6 ar  
    10    4   28 1   
    11    5   11 1   
    12    6   12 1   
    13    7   15 1   
    14    7   29 1   
    15    7   30 1   
    16    7   31 1   
    17    8   15 1   
    18    8   32 1   
    19    8   33 1   
    20    8   34 1   
    21    9   16 1   
    22    9   35 1   
    23    9   36 1   
    24    9   37 1   
    25   10   16 1   
    26   10   38 1   
    27   10   39 1   
    28   10   40 1   
    29   11   13 1   
    30   11   41 1   
    31   11   42 1   
    32   12   14 1   
    33   12   43 1   
    34   12   44 1   
    35   13   17 1   
    36   13   45 1   
    37   13   46 1   
    38   14   18 1   
    39   14   47 1   
    40   14   48 1   
    41   15   23 1   
    42   15   49 1   
    43   16   24 1   
    44   16   50 1   
    45   17   23 1   
    46   17   51 1   
    47   17   53 1   
    48   18   24 1   
    49   18   52 1   
    50   18   54 1   
    51   19   23 2   
    52   20   23 2   
    53   21   24 2   
    54   22   24 2   
@<TRIPOS>SUBSTRUCTURE
     1 RNN         1 TEMP              0 ****  ****    0 ROOT
