@<TRIPOS>MOLECULE
RNN
   54    54     1     0     0
SMALL
bcc


@<TRIPOS>ATOM
      1 C1         -0.0010    0.0350    0.5450 ca        1 RNN     -0.106500
      2 C2          1.3780    0.2370    0.5700 ca        1 RNN     -0.106500
      3 C3         -0.0060   -0.2180    2.9490 ca        1 RNN     -0.106500
      4 C4          1.3730   -0.0160    2.9740 ca        1 RNN     -0.106500
      5 C5         -0.7020   -0.1950    1.7350 ca        1 RNN     -0.095300
      6 C6          2.0740    0.2140    1.7850 ca        1 RNN     -0.095300
      7 C7         -6.5930   -3.4390    0.6910 c3        1 RNN     -0.102600
      8 C8         -6.3780   -5.4860    2.0800 c3        1 RNN     -0.102600
      9 C9          7.9770    3.3980    0.6890 c3        1 RNN     -0.102600
     10 C10         7.7440    5.5240    1.9540 c3        1 RNN     -0.102600
     11 C11        -2.1790   -0.3810    1.7130 c3        1 RNN     -0.051100
     12 C12         3.5520    0.4000    1.8060 c3        1 RNN     -0.051100
     13 C13        -2.5160   -1.8710    1.7660 c3        1 RNN      0.093800
     14 C14         3.8870    1.8910    1.7930 c3        1 RNN      0.093800
     15 C15        -5.9280   -4.0370    1.9130 c3        1 RNN     -0.324900
     16 C16         7.2960    4.0670    1.8670 c3        1 RNN     -0.324900
     17 N17        -3.9700   -2.1640    1.7610 n4        1 RNN     -0.703900
     18 N18         5.3410    2.1860    1.8030 n4        1 RNN     -0.703900
     19 O19        -3.6450   -4.3500    3.0470 o         1 RNN     -0.548300
     20 O20        -3.7130   -4.4500    0.6400 o         1 RNN     -0.548300
     21 O21         4.9990    4.4450    2.9520 o         1 RNN     -0.548300
     22 O22         5.0970    4.3990    0.5440 o         1 RNN     -0.548300
     23 S23        -4.2480   -4.0460    1.8450 s6        1 RNN      1.359900
     24 S24         5.6170    4.0690    1.7770 s6        1 RNN      1.359900
     25 H1         -0.5350    0.0630   -0.4170 ha        1 RNN      0.148500
     26 H2          1.9180    0.4090   -0.3740 ha        1 RNN      0.148500
     27 H3         -0.5460   -0.3900    3.8930 ha        1 RNN      0.148500
     28 H4          1.9080   -0.0440    3.9370 ha        1 RNN      0.148500
     29 H7         -7.6730   -3.7370    0.6580 hc        1 RNN      0.083367
     30 H7A        -6.1140   -3.8140   -0.2490 hc        1 RNN      0.083367
     31 H7B        -6.5600   -2.3230    0.7140 hc        1 RNN      0.083367
     32 H8         -5.8980   -5.9500    2.9780 hc        1 RNN      0.083367
     33 H8A        -6.1420   -6.0830    1.1650 hc        1 RNN      0.083367
     34 H8B        -7.4870   -5.5210    2.2310 hc        1 RNN      0.083367
     35 H9          9.0570    3.6970    0.6520 hc        1 RNN      0.083367
     36 H9A         7.9460    2.2860    0.7790 hc        1 RNN      0.083367
     37 H9B         7.5080    3.7160   -0.2760 hc        1 RNN      0.083367
     38 H10         7.5180    6.0650    1.0010 hc        1 RNN      0.083367
     39 H10A        7.2520    6.0390    2.8170 hc        1 RNN      0.083367
     40 H10B        8.8510    5.5690    2.1160 hc        1 RNN      0.083367
     41 H11        -2.6360    0.1490    2.5940 hc        1 RNN      0.074450
     42 H11A       -2.6080    0.0770    0.7810 hc        1 RNN      0.074450
     43 H12         3.9830   -0.0830    2.7240 hc        1 RNN      0.074450
     44 H12A        4.0060   -0.1050    0.9100 hc        1 RNN      0.074450
     45 H13        -2.0600   -2.3900    0.8710 hx        1 RNN      0.117950
     46 H13A       -2.0800   -2.3180    2.7100 hx        1 RNN      0.117950
     47 H14         3.4330    2.3860    2.7030 hx        1 RNN      0.117950
     48 H14A        3.4490    2.3640    0.8630 hx        1 RNN      0.117950
     49 H15        -6.3260   -3.4880    2.8200 h1        1 RNN      0.155200
     50 H16         7.6830    3.5720    2.8080 h1        1 RNN      0.155200
     51 HN17       -4.4020   -1.6870    2.5490 hn        1 RNN      0.449550
     52 HN18        5.7700    1.7450    0.9900 hn        1 RNN      0.449550
     53 H172       -4.3790   -1.7750    0.9120 hn        1 RNN      0.449550
     54 H182        5.7550    1.7580    2.6300 hn        1 RNN      0.449550
@<TRIPOS>BOND
     1    1    2 ar  
     2    1    5 ar  
     3    1   25 1   
     4    2    6 ar  
     5    2   26 1   
     6    3    4 ar  
     7    3    5 ar  
     8    3   27 1   
     9    4    6 ar  
    10    4   28 1   
    11    5   11 1   
    12    6   12 1   
    13    7   15 1   
    14    7   29 1   
    15    7   30 1   
    16    7   31 1   
    17    8   15 1   
    18    8   32 1   
    19    8   33 1   
    20    8   34 1   
    21    9   16 1   
    22    9   35 1   
    23    9   36 1   
    24    9   37 1   
    25   10   16 1   
    26   10   38 1   
    27   10   39 1   
    28   10   40 1   
    29   11   13 1   
    30   11   41 1   
    31   11   42 1   
    32   12   14 1   
    33   12   43 1   
    34   12   44 1   
    35   13   17 1   
    36   13   45 1   
    37   13   46 1   
    38   14   18 1   
    39   14   47 1   
    40   14   48 1   
    41   15   23 1   
    42   15   49 1   
    43   16   24 1   
    44   16   50 1   
    45   17   23 1   
    46   17   51 1   
    47   17   53 1   
    48   18   24 1   
    49   18   52 1   
    50   18   54 1   
    51   19   23 2   
    52   20   23 2   
    53   21   24 2   
    54   22   24 2   
@<TRIPOS>SUBSTRUCTURE
     1 RNN         1 TEMP              0 ****  ****    0 ROOT
