@<TRIPOS>MOLECULE
RNN
   52    52     1     0     0
SMALL
bcc


@<TRIPOS>ATOM
      1 C1          0.6410   -0.1580   -0.2700 ca        1 RNN     -0.123000
      2 C2         -0.6410   -0.1610    0.2720 ca        1 RNN     -0.123000
      3 C3          0.6440   -2.5730   -0.2800 ca        1 RNN     -0.123000
      4 C4         -0.6410   -2.5760    0.2600 ca        1 RNN     -0.123000
      5 C5          1.2950   -1.3650   -0.5490 ca        1 RNN     -0.085300
      6 C6         -1.2940   -1.3710    0.5410 ca        1 RNN     -0.085300
      7 C7          7.7360   -0.8910    0.9560 c3        1 RNN     -0.077100
      8 C8          7.6770    1.5830    1.0890 c3        1 RNN     -0.077100
      9 C9         -7.7360   -0.8920   -0.9590 c3        1 RNN     -0.077100
     10 C10        -7.6800    1.5840   -1.0710 c3        1 RNN     -0.077100
     11 C11         2.6610   -1.3560   -1.1390 c3        1 RNN     -0.054100
     12 C12        -2.6590   -1.3690    1.1300 c3        1 RNN     -0.054100
     13 C13         3.6900   -0.9240   -0.0860 c3        1 RNN      0.225800
     14 C14        -3.6890   -0.9280    0.0810 c3        1 RNN      0.225800
     15 C15         6.8490    0.3290    0.9130 c3        1 RNN     -0.270900
     16 C16        -6.8500    0.3290   -0.9060 c3        1 RNN     -0.270900
     17 N17         5.0370   -0.8660   -0.5720 n3        1 RNN     -0.924100
     18 N18        -5.0370   -0.8760    0.5680 n3        1 RNN     -0.924100
     19 O19         5.1540    1.6180   -0.4920 o         1 RNN     -0.649300
     20 O20         6.8680    0.3850   -1.6520 o         1 RNN     -0.649300
     21 O21        -5.1560    1.6080    0.5100 o         1 RNN     -0.649300
     22 O22        -6.8690    0.3630    1.6600 o         1 RNN     -0.649300
     23 S23         5.9560    0.4590   -0.5780 s6        1 RNN      1.441900
     24 S24        -5.9570    0.4470    0.5860 s6        1 RNN      1.441900
     25 H1          1.1460    0.7970   -0.4820 ha        1 RNN      0.137500
     26 H2         -1.1470    0.7920    0.4920 ha        1 RNN      0.137500
     27 H3          1.1460   -3.5280   -0.4970 ha        1 RNN      0.137500
     28 H4         -1.1420   -3.5330    0.4690 ha        1 RNN      0.137500
     29 H7          7.1280   -1.8260    1.0210 hc        1 RNN      0.051367
     30 H7A         8.3790   -0.9360    0.0410 hc        1 RNN      0.051367
     31 H7B         8.4060   -0.8550    1.8490 hc        1 RNN      0.051367
     32 H8          8.4400    1.6630    0.2740 hc        1 RNN      0.051367
     33 H8A         7.0210    2.4890    1.0660 hc        1 RNN      0.051367
     34 H8B         8.2130    1.5610    2.0680 hc        1 RNN      0.051367
     35 H9         -8.4060   -0.8480   -1.8520 hc        1 RNN      0.051367
     36 H9A        -7.1270   -1.8250   -1.0320 hc        1 RNN      0.051367
     37 H9B        -8.3780   -0.9450   -0.0440 hc        1 RNN      0.051367
     38 H10        -7.0240    2.4900   -1.0400 hc        1 RNN      0.051367
     39 H10A       -8.2160    1.5700   -2.0500 hc        1 RNN      0.051367
     40 H10B       -8.4420    1.6560   -0.2550 hc        1 RNN      0.051367
     41 H11         2.9220   -2.3750   -1.5290 hc        1 RNN      0.057200
     42 H11A        2.6860   -0.6460   -2.0090 hc        1 RNN      0.057200
     43 H12        -2.9200   -2.3920    1.5120 hc        1 RNN      0.057200
     44 H12A       -2.6850   -0.6670    2.0070 hc        1 RNN      0.057200
     45 H13         3.3980    0.0990    0.2990 h1        1 RNN      0.057200
     46 H13A        3.6360   -1.6480    0.7790 h1        1 RNN      0.057200
     47 H14        -3.3990    0.0980   -0.2940 h1        1 RNN      0.057200
     48 H14A       -3.6350   -1.6450   -0.7900 h1        1 RNN      0.057200
     49 H15         6.1380    0.2720    1.7840 h1        1 RNN      0.105700
     50 H16        -6.1390    0.2810   -1.7780 h1        1 RNN      0.105700
     51 HN17        5.3560   -1.7180   -0.9680 hn        1 RNN      0.449800
     52 HN18       -5.3540   -1.7330    0.9560 hn        1 RNN      0.449800
@<TRIPOS>BOND
     1    1    2 ar  
     2    1    5 ar  
     3    1   25 1   
     4    2    6 ar  
     5    2   26 1   
     6    3    4 ar  
     7    3    5 ar  
     8    3   27 1   
     9    4    6 ar  
    10    4   28 1   
    11    5   11 1   
    12    6   12 1   
    13    7   15 1   
    14    7   29 1   
    15    7   30 1   
    16    7   31 1   
    17    8   15 1   
    18    8   32 1   
    19    8   33 1   
    20    8   34 1   
    21    9   16 1   
    22    9   35 1   
    23    9   36 1   
    24    9   37 1   
    25   10   16 1   
    26   10   38 1   
    27   10   39 1   
    28   10   40 1   
    29   11   13 1   
    30   11   41 1   
    31   11   42 1   
    32   12   14 1   
    33   12   43 1   
    34   12   44 1   
    35   13   17 1   
    36   13   45 1   
    37   13   46 1   
    38   14   18 1   
    39   14   47 1   
    40   14   48 1   
    41   15   23 1   
    42   15   49 1   
    43   16   24 1   
    44   16   50 1   
    45   17   23 1   
    46   17   51 1   
    47   18   24 1   
    48   18   52 1   
    49   19   23 2   
    50   20   23 2   
    51   21   24 2   
    52   22   24 2   
@<TRIPOS>SUBSTRUCTURE
     1 RNN         1 TEMP              0 ****  ****    0 ROOT
