@<TRIPOS>MOLECULE
RNN
   54    54     1     0     0
SMALL
bcc


@<TRIPOS>ATOM
      1 C1         -0.0020   -0.2170    0.5530 ca        1 RNN     -0.106750
      2 C2          1.3770   -0.0180    0.5350 ca        1 RNN     -0.106750
      3 C3         -0.0070    0.0320    2.9580 ca        1 RNN     -0.106750
      4 C4          1.3730    0.2310    2.9390 ca        1 RNN     -0.106750
      5 C5         -0.7030   -0.1940    1.7650 ca        1 RNN     -0.095300
      6 C6          2.0740    0.2080    1.7280 ca        1 RNN     -0.095300
      7 C7         -6.6060   -3.3910    0.7020 c3        1 RNN     -0.102600
      8 C8         -6.3840   -5.4890    2.0130 c3        1 RNN     -0.102600
      9 C9          7.9760    3.4310    0.6850 c3        1 RNN     -0.102600
     10 C10         7.7600    5.4910    2.0570 c3        1 RNN     -0.102600
     11 C11        -2.1820   -0.3770    1.7800 c3        1 RNN     -0.051100
     12 C12         3.5520    0.3910    1.7130 c3        1 RNN     -0.051100
     13 C13        -2.5190   -1.8680    1.7950 c3        1 RNN      0.093800
     14 C14         3.8910    1.8810    1.7560 c3        1 RNN      0.093800
     15 C15        -5.9330   -4.0350    1.8970 c3        1 RNN     -0.324900
     16 C16         7.3060    4.0410    1.9000 c3        1 RNN     -0.324900
     17 N17        -3.9740   -2.1600    1.8020 n4        1 RNN     -0.703900
     18 N18         5.3450    2.1710    1.7550 n4        1 RNN     -0.703900
     19 O19        -3.6420   -4.3940    3.0020 o         1 RNN     -0.548050
     20 O20        -3.7280   -4.4000    0.5930 o         1 RNN     -0.548050
     21 O21         5.0200    4.3680    3.0220 o         1 RNN     -0.548050
     22 O22         5.0980    4.4480    0.6150 o         1 RNN     -0.548050
     23 S23        -4.2540   -4.0430    1.8160 s6        1 RNN      1.359900
     24 S24         5.6280    4.0530    1.8250 s6        1 RNN      1.359900
     25 H1         -0.5380   -0.3860   -0.3940 ha        1 RNN      0.148500
     26 H2          1.9160   -0.0450   -0.4260 ha        1 RNN      0.148500
     27 H3         -0.5460    0.0590    3.9180 ha        1 RNN      0.148500
     28 H4          1.9090    0.3990    3.8860 ha        1 RNN      0.148500
     29 H7         -6.5730   -2.2770    0.7660 hc        1 RNN      0.083367
     30 H7A        -7.6870   -3.6880    0.6650 hc        1 RNN      0.083367
     31 H7B        -6.1330   -3.7320   -0.2540 hc        1 RNN      0.083367
     32 H8         -7.4920   -5.5280    2.1710 hc        1 RNN      0.083367
     33 H8A        -5.8970   -5.9860    2.8900 hc        1 RNN      0.083367
     34 H8B        -6.1550   -6.0510    1.0740 hc        1 RNN      0.083367
     35 H9          7.5010    3.8000   -0.2590 hc        1 RNN      0.083367
     36 H9A         7.9410    2.3160    0.7180 hc        1 RNN      0.083367
     37 H9B         9.0570    3.7270    0.6540 hc        1 RNN      0.083367
     38 H10         7.2770    5.9640    2.9490 hc        1 RNN      0.083367
     39 H10A        7.5280    6.0800    1.1350 hc        1 RNN      0.083367
     40 H10B        8.8680    5.5240    2.2120 hc        1 RNN      0.083367
     41 H11        -2.6180    0.1250    2.6860 hc        1 RNN      0.074450
     42 H11A       -2.6290    0.1100    0.8710 hc        1 RNN      0.074450
     43 H12         3.9850   -0.0750    0.7860 hc        1 RNN      0.074450
     44 H12A        4.0030   -0.1330    2.6000 hc        1 RNN      0.074450
     45 H13        -2.0710   -2.3450    2.7170 hx        1 RNN      0.117950
     46 H13A       -2.0770   -2.3600    0.8770 hx        1 RNN      0.117950
     47 H14         3.4400    2.3940    0.8560 hx        1 RNN      0.117950
     48 H14A        3.4520    2.3350    2.6950 hx        1 RNN      0.117950
     49 H15        -6.3240   -3.5190    2.8250 h1        1 RNN      0.154700
     50 H16         7.7000    3.4990    2.8120 h1        1 RNN      0.154700
     51 HN17       -4.3910   -1.7130    2.6170 hn        1 RNN      0.449550
     52 HN18        5.7740    1.6990    2.5490 hn        1 RNN      0.449550
     53 H172       -4.3970   -1.7360    0.9770 hn        1 RNN      0.449550
     54 H182        5.7580    1.7740    0.9100 hn        1 RNN      0.449550
@<TRIPOS>BOND
     1    1    2 ar  
     2    1    5 ar  
     3    1   25 1   
     4    2    6 ar  
     5    2   26 1   
     6    3    4 ar  
     7    3    5 ar  
     8    3   27 1   
     9    4    6 ar  
    10    4   28 1   
    11    5   11 1   
    12    6   12 1   
    13    7   15 1   
    14    7   29 1   
    15    7   30 1   
    16    7   31 1   
    17    8   15 1   
    18    8   32 1   
    19    8   33 1   
    20    8   34 1   
    21    9   16 1   
    22    9   35 1   
    23    9   36 1   
    24    9   37 1   
    25   10   16 1   
    26   10   38 1   
    27   10   39 1   
    28   10   40 1   
    29   11   13 1   
    30   11   41 1   
    31   11   42 1   
    32   12   14 1   
    33   12   43 1   
    34   12   44 1   
    35   13   17 1   
    36   13   45 1   
    37   13   46 1   
    38   14   18 1   
    39   14   47 1   
    40   14   48 1   
    41   15   23 1   
    42   15   49 1   
    43   16   24 1   
    44   16   50 1   
    45   17   23 1   
    46   17   51 1   
    47   17   53 1   
    48   18   24 1   
    49   18   52 1   
    50   18   54 1   
    51   19   23 2   
    52   20   23 2   
    53   21   24 2   
    54   22   24 2   
@<TRIPOS>SUBSTRUCTURE
     1 RNN         1 TEMP              0 ****  ****    0 ROOT
