@<TRIPOS>MOLECULE
RNN
   52    49     1     0     0
SMALL
bcc


@<TRIPOS>ATOM
      1 C1         -0.2420   -0.3620   -1.6030 c1        1 RNN     -0.063000
      2 C2          1.1860   -0.2420   -1.5680 c1        1 RNN     -0.063000
      3 C3         -0.2630   -0.6350    0.7730 c1        1 RNN     -0.063000
      4 C4          1.1630   -0.5160    0.8110 c1        1 RNN     -0.063000
      5 C5         -0.9400   -0.5540   -0.4510 c1        1 RNN     -0.049100
      6 C6          1.8650   -0.3220   -0.3490 c1        1 RNN     -0.049100
      7 C7         -7.6650   -1.8920   -2.6610 c3        1 RNN     -0.077600
      8 C8         -7.6930   -4.1230   -1.6410 c3        1 RNN     -0.077600
      9 C9          7.8260    2.7920    2.7210 c3        1 RNN     -0.077600
     10 C10         6.1410    4.5760    2.9180 c3        1 RNN     -0.077600
     11 C11        -2.5260   -0.5510   -0.4790 c3        1 RNN     -0.090300
     12 C12         2.4810    1.1270   -0.2530 c3        1 RNN     -0.090300
     13 C13        -3.0100   -1.9210   -0.6720 c3        1 RNN      0.227800
     14 C14         3.9810    1.0280    0.1880 c3        1 RNN      0.227800
     15 C15        -7.0790   -2.7470   -1.5850 c3        1 RNN     -0.271900
     16 C16         6.5400    3.4080    2.1290 c3        1 RNN     -0.271900
     17 N17        -4.4370   -1.9270   -0.6910 n3        1 RNN     -0.924100
     18 N18         4.3560    2.2370    0.8670 n3        1 RNN     -0.924100
     19 O19        -4.8770   -2.5070   -3.2410 o         1 RNN     -0.647800
     20 O20        -4.8330   -4.2590   -1.7760 o         1 RNN     -0.647800
     21 O21         5.7510    0.8370    2.3990 o         1 RNN     -0.647800
     22 O22         4.3450    2.3450    3.4220 o         1 RNN     -0.647800
     23 S23        -5.2660   -2.8800   -1.8320 s6        1 RNN      1.441900
     24 S24         5.2160    2.1710    2.1820 s6        1 RNN      1.441900
     25 H1         -0.7320   -0.3060   -2.4830 ha        1 RNN      0.076500
     26 H2          1.7260   -0.0940   -2.4630 ha        1 RNN      0.076500
     27 H3         -0.7640   -0.7720    1.5970 ha        1 RNN      0.076500
     28 H4          1.6250   -0.5700    1.6460 ha        1 RNN      0.076500
     29 H7         -8.6100   -1.7450   -2.4800 hc        1 RNN      0.051367
     30 H7A        -7.1850   -1.0040   -2.6820 hc        1 RNN      0.051367
     31 H7B        -7.5630   -2.3400   -3.5270 hc        1 RNN      0.051367
     32 H8         -7.3710   -4.6020   -2.4680 hc        1 RNN      0.051367
     33 H8A        -7.4510   -4.5840   -0.9180 hc        1 RNN      0.051367
     34 H8B        -8.6360   -4.0480   -1.6670 hc        1 RNN      0.051367
     35 H9          7.6410    2.4450    3.5840 hc        1 RNN      0.051367
     36 H9A         8.1250    2.0960    2.1610 hc        1 RNN      0.051367
     37 H9B         8.4640    3.4240    2.7820 hc        1 RNN      0.051367
     38 H10         6.8650    5.2060    2.9480 hc        1 RNN      0.051367
     39 H10A        5.8970    4.2700    3.8980 hc        1 RNN      0.051367
     40 H10B        5.3410    5.0090    2.4930 hc        1 RNN      0.051367
     41 H11        -2.8490    0.0310   -1.2360 hc        1 RNN      0.053700
     42 H11A       -2.8600   -0.2080    0.3490 hc        1 RNN      0.053700
     43 H12         1.9670    1.6670    0.4250 hc        1 RNN      0.053700
     44 H12A        2.4240    1.5680   -1.1370 hc        1 RNN      0.053700
     45 H13        -2.6770   -2.2640   -1.5150 h1        1 RNN      0.059700
     46 H13A       -2.6620   -2.5330    0.1240 h1        1 RNN      0.059700
     47 H14         4.0870    0.3110    0.7530 h1        1 RNN      0.059700
     48 H14A        4.6020    0.8960   -0.6750 h1        1 RNN      0.059700
     49 H15        -7.2630   -2.3400   -0.7070 h1        1 RNN      0.102700
     50 H16         6.7030    3.6840    1.1900 h1        1 RNN      0.102700
     51 HN17       -4.8970   -1.3790   -0.1430 hn        1 RNN      0.449800
     52 HN18        4.0320    3.0990    0.5400 hn        1 RNN      0.449800
@<TRIPOS>BOND
     1    1    5 3   
     2    1   25 1   
     3    2    6 3   
     4    2   26 1   
     5    3    4 3   
     6    3   27 1   
     7    4   28 1   
     8    5   11 1   
     9    6   12 1   
    10    7   15 1   
    11    7   29 1   
    12    7   30 1   
    13    7   31 1   
    14    8   15 1   
    15    8   32 1   
    16    8   33 1   
    17    8   34 1   
    18    9   16 1   
    19    9   35 1   
    20    9   36 1   
    21    9   37 1   
    22   10   16 1   
    23   10   38 1   
    24   10   39 1   
    25   10   40 1   
    26   11   13 1   
    27   11   41 1   
    28   11   42 1   
    29   12   14 1   
    30   12   43 1   
    31   12   44 1   
    32   13   17 1   
    33   13   45 1   
    34   13   46 1   
    35   14   18 1   
    36   14   47 1   
    37   14   48 1   
    38   15   23 1   
    39   15   49 1   
    40   16   24 1   
    41   16   50 1   
    42   17   23 1   
    43   17   51 1   
    44   18   24 1   
    45   18   52 1   
    46   19   23 2   
    47   20   23 2   
    48   21   24 2   
    49   22   24 2   
@<TRIPOS>SUBSTRUCTURE
     1 RNN         1 TEMP              0 ****  ****    0 ROOT
