@<TRIPOS>MOLECULE
RNO
   19    20     1     0     0
SMALL
bcc


@<TRIPOS>ATOM
      1 C1         -0.0030    0.0110   -0.0180 ca        1 RNO     -0.173200
      2 C2          1.4000    0.0610   -0.0500 ca        1 RNO     -0.068000
      3 C3          2.1070    0.0310    1.1480 ca        1 RNO     -0.125000
      4 C4          1.4290   -0.0520    2.3710 ca        1 RNO     -0.042300
      5 C5          0.0300   -0.0970    2.3900 ca        1 RNO     -0.125000
      6 C6         -0.6950   -0.0660    1.2010 ca        1 RNO     -0.068000
      7 C7          2.2100   -0.0760    3.6210 cx        1 RNO      0.092400
      8 C8          2.2990   -1.3040    4.4620 cx        1 RNO      0.067400
      9 N1         -0.7660    0.0420   -1.2940 no        1 RNO      0.312200
     10 O1         -0.1630    0.1110   -2.3310 o         1 RNO     -0.207000
     11 O2         -1.9670   -0.0040   -1.2560 o         1 RNO     -0.207000
     12 O3          1.4730   -0.1990    4.8520 os        1 RNO     -0.395600
     13 H2          1.9340    0.1230   -1.0140 ha        1 RNO      0.173000
     14 H3          3.2070    0.0740    1.1300 ha        1 RNO      0.158000
     15 H5         -0.4970   -0.1530    3.3570 ha        1 RNO      0.158000
     16 H6         -1.7980   -0.1000    1.2170 ha        1 RNO      0.173000
     17 H7          3.0210    0.6810    3.6630 h1        1 RNO      0.105700
     18 H81         1.7430   -2.2190    4.1850 h1        1 RNO      0.085700
     19 H82         3.1790   -1.4740    5.1090 h1        1 RNO      0.085700
@<TRIPOS>BOND
     1    1    2 ar  
     2    1    6 ar  
     3    1    9 1   
     4    2    3 ar  
     5    2   13 1   
     6    3    4 ar  
     7    3   14 1   
     8    4    5 ar  
     9    4    7 1   
    10    5    6 ar  
    11    5   15 1   
    12    6   16 1   
    13    7    8 1   
    14    7   12 1   
    15    7   17 1   
    16    8   12 1   
    17    8   18 1   
    18    8   19 1   
    19    9   10 1   
    20    9   11 1   
@<TRIPOS>SUBSTRUCTURE
     1 RNO         1 TEMP              0 ****  ****    0 ROOT
