@<TRIPOS>MOLECULE
RNO
   19    20     1     0     0
SMALL
bcc


@<TRIPOS>ATOM
      1 C1         -0.0030    0.0080   -0.0190 ca        1 RNO     -0.173200
      2 C2          1.4010    0.0460   -0.0520 ca        1 RNO     -0.068000
      3 C3          2.1080    0.0190    1.1460 ca        1 RNO     -0.125000
      4 C4          1.4300   -0.0510    2.3700 ca        1 RNO     -0.042300
      5 C5          0.0300   -0.0860    2.3900 ca        1 RNO     -0.125000
      6 C6         -0.6940   -0.0560    1.2010 ca        1 RNO     -0.068000
      7 C7          2.2110   -0.0730    3.6200 cx        1 RNO      0.092400
      8 C8          2.2940   -1.2980    4.4670 cx        1 RNO      0.067400
      9 N1         -0.7660    0.0370   -1.2950 no        1 RNO      0.312200
     10 O1         -0.1620    0.0940   -2.3330 o         1 RNO     -0.207000
     11 O2         -1.9670    0.0010   -1.2550 o         1 RNO     -0.207000
     12 O3          1.4740   -0.1870    4.8520 os        1 RNO     -0.395600
     13 H2          1.9350    0.0990   -1.0160 ha        1 RNO      0.173000
     14 H3          3.2080    0.0540    1.1280 ha        1 RNO      0.158000
     15 H5         -0.4960   -0.1320    3.3580 ha        1 RNO      0.158000
     16 H6         -1.7970   -0.0810    1.2180 ha        1 RNO      0.173000
     17 H7          3.0260    0.6800    3.6580 h1        1 RNO      0.105700
     18 H81         1.7330   -2.2110    4.1950 h1        1 RNO      0.086200
     19 H82         3.1730   -1.4690    5.1150 h1        1 RNO      0.086200
@<TRIPOS>BOND
     1    1    2 ar  
     2    1    6 ar  
     3    1    9 1   
     4    2    3 ar  
     5    2   13 1   
     6    3    4 ar  
     7    3   14 1   
     8    4    5 ar  
     9    4    7 1   
    10    5    6 ar  
    11    5   15 1   
    12    6   16 1   
    13    7    8 1   
    14    7   12 1   
    15    7   17 1   
    16    8   12 1   
    17    8   18 1   
    18    8   19 1   
    19    9   10 1   
    20    9   11 1   
@<TRIPOS>SUBSTRUCTURE
     1 RNO         1 TEMP              0 ****  ****    0 ROOT
