@<TRIPOS>MOLECULE
RNO
   19    20     1     0     0
SMALL
bcc


@<TRIPOS>ATOM
      1 C1          1.3830   -0.0230    0.0430 ca        1 RNO     -0.173200
      2 C2          0.8150   -1.3030    0.1430 ca        1 RNO     -0.068000
      3 C3         -0.5680   -1.4260    0.2320 ca        1 RNO     -0.125000
      4 C4         -1.3850   -0.2870    0.2170 ca        1 RNO     -0.042300
      5 C5         -0.8060    0.9830    0.1200 ca        1 RNO     -0.125000
      6 C6          0.5760    1.1260    0.0330 ca        1 RNO     -0.068000
      7 C7         -2.8460   -0.4550    0.3180 cx        1 RNO      0.092400
      8 C8         -3.7450   -0.1750   -0.8390 cx        1 RNO      0.067400
      9 N1          2.8600    0.1170   -0.0520 no        1 RNO      0.312200
     10 O1          3.5410   -0.8740   -0.0400 o         1 RNO     -0.207000
     11 O2          3.3360    1.2170   -0.1410 o         1 RNO     -0.207000
     12 O3         -3.6480    0.7400    0.2610 os        1 RNO     -0.395600
     13 H2          1.4580   -2.2000    0.1520 ha        1 RNO      0.173000
     14 H3         -1.0200   -2.4260    0.3150 ha        1 RNO      0.158000
     15 H5         -1.4560    1.8750    0.1180 ha        1 RNO      0.158000
     16 H6          1.0320    2.1280   -0.0410 ha        1 RNO      0.173000
     17 H7         -3.1670   -1.1690    1.1060 h1        1 RNO      0.105700
     18 H81        -3.3360    0.2070   -1.7920 h1        1 RNO      0.085700
     19 H82        -4.7190   -0.6910   -0.9260 h1        1 RNO      0.085700
@<TRIPOS>BOND
     1    1    2 ar  
     2    1    6 ar  
     3    1    9 1   
     4    2    3 ar  
     5    2   13 1   
     6    3    4 ar  
     7    3   14 1   
     8    4    5 ar  
     9    4    7 1   
    10    5    6 ar  
    11    5   15 1   
    12    6   16 1   
    13    7    8 1   
    14    7   12 1   
    15    7   17 1   
    16    8   12 1   
    17    8   18 1   
    18    8   19 1   
    19    9   10 1   
    20    9   11 1   
@<TRIPOS>SUBSTRUCTURE
     1 RNO         1 TEMP              0 ****  ****    0 ROOT
