@<TRIPOS>MOLECULE
RNP
   38    39     1     0     0
SMALL
bcc


@<TRIPOS>ATOM
      1 C1          0.2540   -0.5060    0.0380 ca        1 RNP      0.150100
      2 C2          1.5350   -0.9750    0.2480 ca        1 RNP     -0.221000
      3 C3          2.1030   -0.8970    1.5410 ca        1 RNP     -0.090000
      4 C4          1.4000   -0.3620    2.5900 ca        1 RNP     -0.154000
      5 C5         -0.6700    0.6860    3.4680 ca        1 RNP     -0.130000
      6 C6         -1.9460    1.1530    3.2620 ca        1 RNP     -0.116000
      7 C7         -2.5350    1.0820    1.9780 ca        1 RNP     -0.143000
      8 C8         -1.8350    0.5470    0.9230 ca        1 RNP     -0.091000
      9 C9         -0.5150    0.0600    1.1110 ca        1 RNP     -0.053000
     10 C10         0.0780    0.1270    2.3960 ca        1 RNP     -0.010000
     11 O1         -0.3980   -0.5210   -1.1790 os        1 RNP     -0.329900
     12 C11         0.3130   -1.1440   -2.2580 c3        1 RNP      0.134400
     13 C12        -0.6510   -1.1060   -3.4500 c3        1 RNP      0.084800
     14 O2         -1.4170   -2.3020   -3.3880 oh        1 RNP     -0.591800
     15 C13         0.1260   -1.0940   -4.7520 c2        1 RNP      0.383200
     16 N1          0.6830   -0.0300   -5.2020 n2        1 RNP     -0.580900
     17 C14         1.4210   -0.0420   -6.4530 c3        1 RNP      0.108500
     18 C15         2.6610   -0.9370   -6.4400 c3        1 RNP     -0.106100
     19 C16         0.5740   -0.3910   -7.6770 c3        1 RNP     -0.106100
     20 H2          2.1320   -1.4090   -0.5650 ha        1 RNP      0.137000
     21 H3          3.1260   -1.2770    1.6880 ha        1 RNP      0.131000
     22 H4          1.8420   -0.3010    3.5950 ha        1 RNP      0.133000
     23 H5         -0.2040    0.7370    4.4630 ha        1 RNP      0.133000
     24 H6         -2.5240    1.5850    4.0920 ha        1 RNP      0.131000
     25 H7         -3.5580    1.4610    1.8360 ha        1 RNP      0.132000
     26 H8         -2.2790    0.4840   -0.0830 ha        1 RNP      0.147000
     27 H111        1.2400   -0.5550   -2.4790 h1        1 RNP      0.062700
     28 H112        0.5630   -2.2030   -1.9890 h1        1 RNP      0.062700
     29 H12        -1.3220   -0.2050   -3.3660 h1        1 RNP      0.080700
     30 HA         -2.1900   -2.1700   -3.9480 ho        1 RNP      0.406000
     31 H13         0.1470   -2.0890   -5.2500 h4        1 RNP     -0.017200
     32 H14         1.7700    1.0300   -6.5690 h1        1 RNP      0.073700
     33 H151        2.3730   -2.0100   -6.3250 hc        1 RNP      0.041533
     34 H152        3.2110   -0.8160   -7.4030 hc        1 RNP      0.041533
     35 H153        3.3440   -0.6570   -5.6040 hc        1 RNP      0.041533
     36 H161       -0.3030    0.2940   -7.7610 hc        1 RNP      0.041533
     37 H162        1.1960   -0.2840   -8.5970 hc        1 RNP      0.041533
     38 H163        0.2040   -1.4420   -7.6170 hc        1 RNP      0.041533
@<TRIPOS>BOND
     1    1    2 ar  
     2    1    9 ar  
     3    1   11 1   
     4    2    3 ar  
     5    2   20 1   
     6    3    4 ar  
     7    3   21 1   
     8    4   10 ar  
     9    4   22 1   
    10    5    6 ar  
    11    5   10 ar  
    12    5   23 1   
    13    6    7 ar  
    14    6   24 1   
    15    7    8 ar  
    16    7   25 1   
    17    8    9 ar  
    18    8   26 1   
    19    9   10 ar  
    20   11   12 1   
    21   12   13 1   
    22   12   27 1   
    23   12   28 1   
    24   13   14 1   
    25   13   15 1   
    26   13   29 1   
    27   14   30 1   
    28   15   16 2   
    29   15   31 1   
    30   16   17 1   
    31   17   18 1   
    32   17   19 1   
    33   17   32 1   
    34   18   33 1   
    35   18   34 1   
    36   18   35 1   
    37   19   36 1   
    38   19   37 1   
    39   19   38 1   
@<TRIPOS>SUBSTRUCTURE
     1 RNP         1 TEMP              0 ****  ****    0 ROOT
