@<TRIPOS>MOLECULE
RNP
   38    39     1     0     0
SMALL
bcc


@<TRIPOS>ATOM
      1 C1         -0.5320    0.0240   -1.4170 ca        1 RNP      0.145100
      2 C2         -1.9000    0.1770   -1.3050 ca        1 RNP     -0.222000
      3 C3         -2.6710    0.4210   -2.4650 ca        1 RNP     -0.092000
      4 C4         -2.0810    0.5090   -3.7000 ca        1 RNP     -0.153000
      5 C5         -0.0390    0.4370   -5.1080 ca        1 RNP     -0.130000
      6 C6          1.3200    0.2790   -5.2230 ca        1 RNP     -0.116000
      7 C7          2.1110    0.0280   -4.0770 ca        1 RNP     -0.142000
      8 C8          1.5250   -0.0580   -2.8360 ca        1 RNP     -0.091000
      9 C9          0.1220    0.1040   -2.6920 ca        1 RNP     -0.053000
     10 C10        -0.6740    0.3530   -3.8380 ca        1 RNP     -0.011000
     11 O1          0.3220   -0.2030   -0.3560 os        1 RNP     -0.326900
     12 C11        -0.3010   -0.3620    0.9230 c3        1 RNP      0.100400
     13 C12         0.8430   -0.6630    1.9030 c3        1 RNP      0.094800
     14 O2          1.1320   -2.0420    1.9640 oh        1 RNP     -0.578800
     15 C13         0.4990   -0.0720    3.2580 c2        1 RNP      0.388200
     16 N1         -0.3840   -0.6000    4.0200 n2        1 RNP     -0.596900
     17 C14        -0.7350   -0.0500    5.3120 c3        1 RNP      0.115500
     18 C15        -0.3400   -0.9930    6.4520 c3        1 RNP     -0.105100
     19 C16        -0.2210    1.3510    5.6390 c3        1 RNP     -0.105100
     20 H2         -2.4110    0.1150   -0.3360 ha        1 RNP      0.137000
     21 H3         -3.7600    0.5400   -2.3550 ha        1 RNP      0.132000
     22 H4         -2.6810    0.7000   -4.6010 ha        1 RNP      0.134000
     23 H5         -0.6620    0.6310   -5.9940 ha        1 RNP      0.133000
     24 H6          1.8100    0.3440   -6.2060 ha        1 RNP      0.131000
     25 H7          3.1970   -0.0990   -4.1920 ha        1 RNP      0.133000
     26 H8          2.1260   -0.2570   -1.9350 ha        1 RNP      0.149000
     27 H111       -1.0310   -1.2120    0.8910 h1        1 RNP      0.052700
     28 H112       -0.8270    0.5890    1.2010 h1        1 RNP      0.052700
     29 H12         1.8040   -0.2030    1.5280 h1        1 RNP      0.102700
     30 HA          0.3450   -2.5010    2.2870 ho        1 RNP      0.413000
     31 H13         1.0830    0.8440    3.4910 h4        1 RNP     -0.018200
     32 H14        -1.8690   -0.0010    5.2850 h1        1 RNP      0.069700
     33 H151       -0.7570   -0.5950    7.4080 hc        1 RNP      0.042367
     34 H152       -0.7490   -2.0180    6.2830 hc        1 RNP      0.042367
     35 H153        0.7690   -1.0600    6.5450 hc        1 RNP      0.042367
     36 H161        0.8890    1.3540    5.7500 hc        1 RNP      0.042367
     37 H162       -0.5040    2.0780    4.8410 hc        1 RNP      0.042367
     38 H163       -0.6720    1.6910    6.6020 hc        1 RNP      0.042367
@<TRIPOS>BOND
     1    1    2 ar  
     2    1    9 ar  
     3    1   11 1   
     4    2    3 ar  
     5    2   20 1   
     6    3    4 ar  
     7    3   21 1   
     8    4   10 ar  
     9    4   22 1   
    10    5    6 ar  
    11    5   10 ar  
    12    5   23 1   
    13    6    7 ar  
    14    6   24 1   
    15    7    8 ar  
    16    7   25 1   
    17    8    9 ar  
    18    8   26 1   
    19    9   10 ar  
    20   11   12 1   
    21   12   13 1   
    22   12   27 1   
    23   12   28 1   
    24   13   14 1   
    25   13   15 1   
    26   13   29 1   
    27   14   30 1   
    28   15   16 2   
    29   15   31 1   
    30   16   17 1   
    31   17   18 1   
    32   17   19 1   
    33   17   32 1   
    34   18   33 1   
    35   18   34 1   
    36   18   35 1   
    37   19   36 1   
    38   19   37 1   
    39   19   38 1   
@<TRIPOS>SUBSTRUCTURE
     1 RNP         1 TEMP              0 ****  ****    0 ROOT
