@<TRIPOS>MOLECULE
RNP
   38    39     1     0     0
SMALL
bcc


@<TRIPOS>ATOM
      1 C1          0.2400   -0.5470    0.0360 ca        1 RNP      0.150100
      2 C2          1.5120   -1.0440    0.2450 ca        1 RNP     -0.221000
      3 C3          2.0750   -0.9990    1.5420 ca        1 RNP     -0.090000
      4 C4          1.3770   -0.4660    2.5950 ca        1 RNP     -0.154000
      5 C5         -0.6770    0.6090    3.4800 ca        1 RNP     -0.130000
      6 C6         -1.9420    1.1040    3.2760 ca        1 RNP     -0.116000
      7 C7         -2.5260    1.0660    1.9880 ca        1 RNP     -0.143000
      8 C8         -1.8310    0.5340    0.9280 ca        1 RNP     -0.091000
      9 C9         -0.5220    0.0170    1.1140 ca        1 RNP     -0.053000
     10 C10         0.0660    0.0520    2.4030 ca        1 RNP     -0.010000
     11 O1         -0.4050   -0.5300   -1.1840 os        1 RNP     -0.329900
     12 C11         0.3000   -1.1460   -2.2700 c3        1 RNP      0.134400
     13 C12        -0.6560   -1.0700   -3.4660 c3        1 RNP      0.084800
     14 O2         -1.4400   -2.2540   -3.4330 oh        1 RNP     -0.591800
     15 C13         0.1290   -1.0440   -4.7640 c2        1 RNP      0.383200
     16 N1          0.7010    0.0210   -5.1920 n2        1 RNP     -0.580900
     17 C14         1.4460    0.0230   -6.4380 c3        1 RNP      0.108500
     18 C15         2.6770   -0.8840   -6.4320 c3        1 RNP     -0.106100
     19 C16         0.6040   -0.2980   -7.6730 c3        1 RNP     -0.106100
     20 H2          2.1040   -1.4770   -0.5720 ha        1 RNP      0.137000
     21 H3          3.0890   -1.4000    1.6870 ha        1 RNP      0.131000
     22 H4          1.8140   -0.4300    3.6030 ha        1 RNP      0.133000
     23 H5         -0.2150    0.6350    4.4780 ha        1 RNP      0.133000
     24 H6         -2.5160    1.5350    4.1100 ha        1 RNP      0.131000
     25 H7         -3.5400    1.4670    1.8470 ha        1 RNP      0.132000
     26 H8         -2.2710    0.4960   -0.0810 ha        1 RNP      0.147000
     27 H111        1.2390   -0.5710   -2.4760 h1        1 RNP      0.062700
     28 H112        0.5300   -2.2150   -2.0180 h1        1 RNP      0.062700
     29 H12        -1.3140   -0.1600   -3.3680 h1        1 RNP      0.080700
     30 HA         -2.2080   -2.1000   -3.9950 ho        1 RNP      0.406000
     31 H13         0.1410   -2.0300   -5.2790 h4        1 RNP     -0.017200
     32 H14         1.8060    1.0940   -6.5340 h1        1 RNP      0.073700
     33 H151        3.2350   -0.7530   -7.3900 hc        1 RNP      0.041533
     34 H152        2.3800   -1.9560   -6.3360 hc        1 RNP      0.041533
     35 H153        3.3580   -0.6240   -5.5870 hc        1 RNP      0.041533
     36 H161        0.2240   -1.3470   -7.6330 hc        1 RNP      0.041533
     37 H162        1.2330   -0.1820   -8.5880 hc        1 RNP      0.041533
     38 H163       -0.2670    0.3960   -7.7510 hc        1 RNP      0.041533
@<TRIPOS>BOND
     1    1    2 ar  
     2    1    9 ar  
     3    1   11 1   
     4    2    3 ar  
     5    2   20 1   
     6    3    4 ar  
     7    3   21 1   
     8    4   10 ar  
     9    4   22 1   
    10    5    6 ar  
    11    5   10 ar  
    12    5   23 1   
    13    6    7 ar  
    14    6   24 1   
    15    7    8 ar  
    16    7   25 1   
    17    8    9 ar  
    18    8   26 1   
    19    9   10 ar  
    20   11   12 1   
    21   12   13 1   
    22   12   27 1   
    23   12   28 1   
    24   13   14 1   
    25   13   15 1   
    26   13   29 1   
    27   14   30 1   
    28   15   16 2   
    29   15   31 1   
    30   16   17 1   
    31   17   18 1   
    32   17   19 1   
    33   17   32 1   
    34   18   33 1   
    35   18   34 1   
    36   18   35 1   
    37   19   36 1   
    38   19   37 1   
    39   19   38 1   
@<TRIPOS>SUBSTRUCTURE
     1 RNP         1 TEMP              0 ****  ****    0 ROOT
