@<TRIPOS>MOLECULE
RNP
   38    39     1     0     0
SMALL
bcc


@<TRIPOS>ATOM
      1 C1          0.2480   -0.5310    0.0370 ca        1 RNP      0.150100
      2 C2          1.5220   -1.0210    0.2430 ca        1 RNP     -0.221000
      3 C3          2.0880   -0.9700    1.5390 ca        1 RNP     -0.090000
      4 C4          1.3890   -0.4400    2.5930 ca        1 RNP     -0.154000
      5 C5         -0.6680    0.6240    3.4820 ca        1 RNP     -0.130000
      6 C6         -1.9370    1.1110    3.2800 ca        1 RNP     -0.116000
      7 C7         -2.5240    1.0670    1.9930 ca        1 RNP     -0.143000
      8 C8         -1.8280    0.5380    0.9320 ca        1 RNP     -0.091000
      9 C9         -0.5160    0.0290    1.1160 ca        1 RNP     -0.053000
     10 C10         0.0750    0.0700    2.4040 ca        1 RNP     -0.010000
     11 O1         -0.4000   -0.5190   -1.1820 os        1 RNP     -0.329900
     12 C11         0.3040   -1.1370   -2.2670 c3        1 RNP      0.134400
     13 C12        -0.6570   -1.0690   -3.4610 c3        1 RNP      0.084800
     14 O2         -1.4410   -2.2530   -3.4160 oh        1 RNP     -0.591800
     15 C13         0.1240   -1.0520   -4.7620 c2        1 RNP      0.384200
     16 N1          0.7010    0.0060   -5.1960 n2        1 RNP     -0.580900
     17 C14         1.4410   -0.0010   -6.4450 c3        1 RNP      0.108500
     18 C15         2.6630   -0.9210   -6.4440 c3        1 RNP     -0.106100
     19 C16         0.5900   -0.3140   -7.6760 c3        1 RNP     -0.106100
     20 H2          2.1150   -1.4510   -0.5740 ha        1 RNP      0.137000
     21 H3          3.1050   -1.3650    1.6820 ha        1 RNP      0.131000
     22 H4          1.8290   -0.4000    3.6000 ha        1 RNP      0.133000
     23 H5         -0.2050    0.6530    4.4790 ha        1 RNP      0.133000
     24 H6         -2.5110    1.5390    4.1150 ha        1 RNP      0.131000
     25 H7         -3.5410    1.4620    1.8550 ha        1 RNP      0.132000
     26 H8         -2.2710    0.4960   -0.0750 ha        1 RNP      0.147000
     27 H111        1.2400   -0.5590   -2.4790 h1        1 RNP      0.062700
     28 H112        0.5380   -2.2040   -2.0120 h1        1 RNP      0.062700
     29 H12        -1.3140   -0.1580   -3.3670 h1        1 RNP      0.080700
     30 HA         -2.2110   -2.1020   -3.9760 ho        1 RNP      0.406000
     31 H13         0.1270   -2.0410   -5.2740 h4        1 RNP     -0.017200
     32 H14         1.8120    1.0660   -6.5440 h1        1 RNP      0.073700
     33 H151        3.2170   -0.7970   -7.4040 hc        1 RNP      0.041533
     34 H152        2.3540   -1.9900   -6.3450 hc        1 RNP      0.041533
     35 H153        3.3500   -0.6670   -5.6020 hc        1 RNP      0.041533
     36 H161       -0.2730    0.3900   -7.7510 hc        1 RNP      0.041533
     37 H162        1.2160   -0.2060   -8.5930 hc        1 RNP      0.041533
     38 H163        0.1990   -1.3590   -7.6320 hc        1 RNP      0.041533
@<TRIPOS>BOND
     1    1    2 ar  
     2    1    9 ar  
     3    1   11 1   
     4    2    3 ar  
     5    2   20 1   
     6    3    4 ar  
     7    3   21 1   
     8    4   10 ar  
     9    4   22 1   
    10    5    6 ar  
    11    5   10 ar  
    12    5   23 1   
    13    6    7 ar  
    14    6   24 1   
    15    7    8 ar  
    16    7   25 1   
    17    8    9 ar  
    18    8   26 1   
    19    9   10 ar  
    20   11   12 1   
    21   12   13 1   
    22   12   27 1   
    23   12   28 1   
    24   13   14 1   
    25   13   15 1   
    26   13   29 1   
    27   14   30 1   
    28   15   16 2   
    29   15   31 1   
    30   16   17 1   
    31   17   18 1   
    32   17   19 1   
    33   17   32 1   
    34   18   33 1   
    35   18   34 1   
    36   18   35 1   
    37   19   36 1   
    38   19   37 1   
    39   19   38 1   
@<TRIPOS>SUBSTRUCTURE
     1 RNP         1 TEMP              0 ****  ****    0 ROOT
