@<TRIPOS>MOLECULE
RNP
   38    33     1     0     0
SMALL
bcc


@<TRIPOS>ATOM
      1 C1          0.4300   -0.2020    1.9190 c1        1 RNP      0.098000
      2 C2          1.4120    0.6150    2.4120 c1        1 RNP     -0.130667
      3 C3          1.8570    0.4580    3.7270 c1        1 RNP     -0.130667
      4 C4          1.2990   -0.5310    4.5390 c1        1 RNP     -0.148000
      5 C5         -0.2350   -2.3880    4.8370 c1        1 RNP     -0.130667
      6 C6         -1.1920   -3.2350    4.3260 c1        1 RNP     -0.130667
      7 C7         -1.6400   -3.0750    2.9950 c1        1 RNP     -0.130667
      8 C8         -1.1250   -2.0830    2.2180 c1        1 RNP     -0.130667
      9 C9         -0.1380   -1.2090    2.7440 c1        1 RNP     -0.052000
     10 C10         0.2970   -1.3640    4.0360 c1        1 RNP     -0.012000
     11 O1          0.0720    0.2030    0.6230 os        1 RNP     -0.229000
     12 C11         1.0710   -0.1040   -0.3870 c3        1 RNP     -0.058000
     13 C12         0.5100    0.1650   -1.7300 c3        1 RNP      0.013000
     14 O2          0.6510   -0.9800   -2.5360 oh        1 RNP     -0.319000
     15 C13         1.2630    1.3290   -2.3640 c2        1 RNP     -0.066000
     16 N1          0.6980    2.0330   -3.4120 n1        1 RNP     -0.152000
     17 C14        -0.5840    1.6750   -3.9050 c2        1 RNP     -0.061000
     18 C15        -1.6750    2.7010   -3.3530 c3        1 RNP     -0.203500
     19 C16        -0.5690    1.7220   -5.4460 c3        1 RNP     -0.203500
     20 H2          1.8280    1.3540    1.8060 ha        1 RNP      0.136167
     21 H3          2.5920    1.0690    4.0950 ha        1 RNP      0.136167
     22 H4          1.6470   -0.6550    5.5680 ha        1 RNP      0.136000
     23 H5          0.0870   -2.5040    5.7960 ha        1 RNP      0.136167
     24 H6         -1.5630   -3.9510    4.8850 ha        1 RNP      0.136167
     25 H7         -2.3390   -3.6940    2.6230 ha        1 RNP      0.136167
     26 H8         -1.4280   -1.9750    1.3170 ha        1 RNP      0.136167
     27 H111        1.3330   -1.0810   -0.3190 h1        1 RNP      0.096500
     28 H112        1.8570    0.4530   -0.2480 h1        1 RNP      0.096500
     29 H12        -0.4850    0.4040   -1.6430 h1        1 RNP      0.099000
     30 HA         -0.0150   -1.5240   -2.3870 ho        1 RNP      0.218000
     31 H13         2.2070    1.5940   -2.0040 h4        1 RNP      0.143000
     32 H14        -0.8140    0.7440   -3.5980 ha        1 RNP      0.098000
     33 H151       -2.2880    2.2390   -2.7800 hc        1 RNP      0.078833
     34 H152       -2.2040    3.1250   -4.1660 hc        1 RNP      0.078833
     35 H153       -1.2370    3.3960   -2.8580 hc        1 RNP      0.078833
     36 H161        0.0280    2.5660   -5.7790 hc        1 RNP      0.078833
     37 H162       -0.1820    0.8960   -5.7940 hc        1 RNP      0.078833
     38 H163       -1.4270    1.8120   -5.7560 hc        1 RNP      0.078833
@<TRIPOS>BOND
     1    1    9 1   
     2    1   11 1   
     3    2    3 1   
     4    2   20 1   
     5    3   21 1   
     6    4   10 1   
     7    4   22 1   
     8    5    6 1   
     9    5   23 1   
    10    6   24 1   
    11    7    8 1   
    12    7   25 1   
    13    8   26 1   
    14    9   10 1   
    15   11   12 1   
    16   12   13 1   
    17   12   27 1   
    18   12   28 1   
    19   13   14 1   
    20   13   15 1   
    21   13   29 1   
    22   14   30 1   
    23   15   16 1   
    24   15   31 1   
    25   17   18 1   
    26   17   19 1   
    27   17   32 1   
    28   18   33 1   
    29   18   34 1   
    30   18   35 1   
    31   19   36 1   
    32   19   37 1   
    33   19   38 1   
@<TRIPOS>SUBSTRUCTURE
     1 RNP         1 TEMP              0 ****  ****    0 ROOT
