@<TRIPOS>MOLECULE
RNR
   67    71     1     0     0
SMALL
bcc


@<TRIPOS>ATOM
      1 N1          0.3000   -0.8270   -0.3900 nb        1 RNR     -0.681000
      2 C2          1.6540   -0.7850   -0.4660 ca        1 RNR      0.456600
      3 C3          2.4290   -0.7850    0.7470 ca        1 RNR     -0.261300
      4 C4          3.8130   -0.7420    0.7170 ca        1 RNR      0.096100
      5 C5          4.4950   -0.6980   -0.5540 ca        1 RNR     -0.145500
      6 C6          3.7830   -0.7000   -1.7150 ca        1 RNR     -0.089000
      7 C7          2.3570   -0.7430   -1.7220 ca        1 RNR     -0.180300
      8 C8          1.6090   -0.7460   -2.9040 ca        1 RNR     -0.044000
      9 C9          0.2130   -0.7890   -2.8400 ca        1 RNR     -0.180300
     10 C10        -0.6090   -0.7950   -4.0060 ca        1 RNR     -0.089000
     11 C11        -1.9680   -0.8380   -3.9250 ca        1 RNR     -0.145500
     12 C12        -2.6190   -0.8780   -2.6380 ca        1 RNR      0.096100
     13 C13        -1.8500   -0.8730   -1.4840 ca        1 RNR     -0.261300
     14 C14        -0.4120   -0.8290   -1.5440 ca        1 RNR      0.456600
     15 N15        -4.0160   -0.9300   -2.5120 n         1 RNR     -0.475100
     16 C16        -4.9760   -0.8940   -3.5170 c         1 RNR      0.669100
     17 O17        -4.6960   -0.8180   -4.7260 o         1 RNR     -0.590100
     18 C18        -6.4170   -0.9640   -3.0330 c3        1 RNR     -0.157400
     19 C19        -7.3660   -0.8580   -4.2280 c3        1 RNR      0.172800
     20 N20        -8.7630   -0.8970   -3.8250 n3        1 RNR     -0.725600
     21 C21        -9.6800   -0.3990   -4.8460 c3        1 RNR      0.132800
     22 C22       -10.7450   -1.4900   -5.1680 c3        1 RNR      0.153600
     23 F23       -12.0290   -0.9990   -5.0170 f         1 RNR     -0.235300
     24 C24       -10.4460   -2.6480   -4.1990 c3        1 RNR     -0.128400
     25 C25        -9.2240   -2.2140   -3.3800 c3        1 RNR      0.156800
     26 N26         4.5120   -0.7280    1.9340 n         1 RNR     -0.475100
     27 C27         5.8840   -0.8180    2.1430 c         1 RNR      0.669100
     28 O28         6.7090   -0.9000    1.2160 o         1 RNR     -0.590100
     29 C29         6.3160   -0.7970    3.6010 c3        1 RNR     -0.157400
     30 C30         7.8340   -0.9750    3.6890 c3        1 RNR      0.172800
     31 N31         8.3060   -0.9840    5.0650 n3        1 RNR     -0.725600
     32 C32         9.6430   -1.5480    5.2200 c3        1 RNR      0.132800
     33 C33        10.5690   -0.5120    5.9260 c3        1 RNR      0.153600
     34 F34        11.1590   -1.0520    7.0530 f         1 RNR     -0.235300
     35 C35         9.6580    0.6840    6.2600 c3        1 RNR     -0.128400
     36 C36         8.2670    0.3230    5.7230 c3        1 RNR      0.156800
     37 H3          1.8760   -0.8190    1.7000 ha        1 RNR      0.148000
     38 H5          5.5970   -0.6640   -0.5820 ha        1 RNR      0.177500
     39 H6          4.3050   -0.6670   -2.6860 ha        1 RNR      0.138000
     40 H8          2.1180   -0.7140   -3.8800 ha        1 RNR      0.139000
     41 H10        -0.1130   -0.7630   -4.9890 ha        1 RNR      0.138000
     42 H11        -2.5760   -0.8410   -4.8440 ha        1 RNR      0.177500
     43 H13        -2.3140   -0.9030   -0.4850 ha        1 RNR      0.148000
     44 HN15       -4.3540   -0.9730   -1.5750 hn        1 RNR      0.318500
     45 H18        -6.6140   -0.1270   -2.3120 hc        1 RNR      0.074700
     46 H18A       -6.5780   -1.9330   -2.4910 hc        1 RNR      0.074700
     47 H19        -7.1710    0.1280   -4.7390 h1        1 RNR      0.053200
     48 H19A       -7.1020   -1.6730   -4.9640 h1        1 RNR      0.053200
     49 H21        -9.1550   -0.1000   -5.7920 h1        1 RNR      0.062700
     50 H21A      -10.1910    0.5090   -4.4220 h1        1 RNR      0.062700
     51 H22       -10.6320   -1.8310   -6.2350 h1        1 RNR      0.056700
     52 H24       -10.2310   -3.5830   -4.7680 hc        1 RNR      0.064200
     53 H24A      -11.3230   -2.8370   -3.5320 hc        1 RNR      0.064200
     54 H25        -9.5030   -2.1120   -2.2950 h1        1 RNR      0.047700
     55 H25A       -8.4140   -2.9920   -3.4540 h1        1 RNR      0.047700
     56 HN26        3.9380   -0.7040    2.7500 hn        1 RNR      0.318500
     57 H29         6.0100    0.1780    4.0620 hc        1 RNR      0.074700
     58 H29A        5.8020   -1.6230    4.1600 hc        1 RNR      0.074700
     59 H30         8.3210   -0.1680    3.0670 h1        1 RNR      0.053200
     60 H30A        8.0960   -1.9640    3.2160 h1        1 RNR      0.053200
     61 H32         9.5470   -2.4650    5.8640 h1        1 RNR      0.062700
     62 H32A       10.1030   -1.8510    4.2410 h1        1 RNR      0.062700
     63 H33        11.3920   -0.1960    5.2260 h1        1 RNR      0.056700
     64 H35         9.6250    0.8550    7.3640 hc        1 RNR      0.064200
     65 H35A       10.0430    1.6110    5.7740 hc        1 RNR      0.064200
     66 H36         7.5360    0.2380    6.5740 h1        1 RNR      0.047700
     67 H36A        7.8980    1.1320    5.0340 h1        1 RNR      0.047700
@<TRIPOS>BOND
     1    1    2 ar  
     2    1   14 ar  
     3    2    3 ar  
     4    2    7 ar  
     5    3    4 ar  
     6    3   37 1   
     7    4    5 ar  
     8    4   26 1   
     9    5    6 ar  
    10    5   38 1   
    11    6    7 ar  
    12    6   39 1   
    13    7    8 ar  
    14    8    9 ar  
    15    8   40 1   
    16    9   10 ar  
    17    9   14 ar  
    18   10   11 ar  
    19   10   41 1   
    20   11   12 ar  
    21   11   42 1   
    22   12   13 ar  
    23   12   15 1   
    24   13   14 ar  
    25   13   43 1   
    26   15   16 1   
    27   15   44 1   
    28   16   17 2   
    29   16   18 1   
    30   18   19 1   
    31   18   45 1   
    32   18   46 1   
    33   19   20 1   
    34   19   47 1   
    35   19   48 1   
    36   20   21 1   
    37   20   25 1   
    38   21   22 1   
    39   21   49 1   
    40   21   50 1   
    41   22   23 1   
    42   22   24 1   
    43   22   51 1   
    44   24   25 1   
    45   24   52 1   
    46   24   53 1   
    47   25   54 1   
    48   25   55 1   
    49   26   27 1   
    50   26   56 1   
    51   27   28 2   
    52   27   29 1   
    53   29   30 1   
    54   29   57 1   
    55   29   58 1   
    56   30   31 1   
    57   30   59 1   
    58   30   60 1   
    59   31   32 1   
    60   31   36 1   
    61   32   33 1   
    62   32   61 1   
    63   32   62 1   
    64   33   34 1   
    65   33   35 1   
    66   33   63 1   
    67   35   36 1   
    68   35   64 1   
    69   35   65 1   
    70   36   66 1   
    71   36   67 1   
@<TRIPOS>SUBSTRUCTURE
     1 RNR         1 TEMP              0 ****  ****    0 ROOT
