@<TRIPOS>MOLECULE
RNR
   67    71     1     0     0
SMALL
bcc


@<TRIPOS>ATOM
      1 N1         -0.0190   -0.0620   -0.0460 nb        1 RNR     -0.681000
      2 C2         -1.1800    0.5330    0.3280 ca        1 RNR      0.456600
      3 C3         -2.4320   -0.0860   -0.0180 ca        1 RNR     -0.261300
      4 C4         -3.6420    0.4860    0.3420 ca        1 RNR      0.095600
      5 C5         -3.6490    1.7260    1.0790 ca        1 RNR     -0.145000
      6 C6         -2.4770    2.3290    1.4190 ca        1 RNR     -0.089000
      7 C7         -1.2130    1.7700    1.0650 ca        1 RNR     -0.180300
      8 C8          0.0010    2.3740    1.4050 ca        1 RNR     -0.044000
      9 C9          1.2050    1.7730    1.0270 ca        1 RNR     -0.180300
     10 C10         2.4780    2.3350    1.3410 ca        1 RNR     -0.089000
     11 C11         3.6400    1.7350    0.9650 ca        1 RNR     -0.145000
     12 C12         3.6120    0.4960    0.2250 ca        1 RNR      0.095600
     13 C13         2.3930   -0.0780   -0.0980 ca        1 RNR     -0.261300
     14 C14         1.1510    0.5360    0.2900 ca        1 RNR      0.456600
     15 N15         4.7890   -0.1590   -0.1710 n         1 RNR     -0.475100
     16 C16         6.1030    0.2800   -0.0530 c         1 RNR      0.669100
     17 O17         6.4150    1.3650    0.4700 o         1 RNR     -0.590100
     18 C18         7.1520   -0.6720   -0.6060 c3        1 RNR     -0.157400
     19 C19         8.5400   -0.0430   -0.4710 c3        1 RNR      0.172800
     20 N20         9.5870   -0.9010   -1.0030 n3        1 RNR     -0.725600
     21 C21        10.8390   -0.1990   -1.2710 c3        1 RNR      0.132800
     22 C22        12.0020   -0.8910   -0.4990 c3        1 RNR      0.153600
     23 F23        13.0310   -1.2450   -1.3510 f         1 RNR     -0.235300
     24 C24        11.3630   -2.1160    0.1840 c3        1 RNR     -0.128400
     25 C25         9.8740   -2.0790   -0.1830 c3        1 RNR      0.156800
     26 N26        -4.8290   -0.1600   -0.0370 n         1 RNR     -0.475100
     27 C27        -6.1370    0.1690    0.3020 c         1 RNR      0.669100
     28 O28        -6.4320    1.1490    1.0080 o         1 RNR     -0.590100
     29 C29        -7.2020   -0.7580   -0.2660 c3        1 RNR     -0.157400
     30 C30        -8.5810   -0.3220    0.2330 c3        1 RNR      0.172800
     31 N31        -9.6410   -1.1860   -0.2610 n3        1 RNR     -0.725600
     32 C32       -10.8870   -1.0710    0.4920 c3        1 RNR      0.132800
     33 C33       -12.0520   -0.7090   -0.4770 c3        1 RNR      0.153600
     34 F34       -13.0910   -1.6150   -0.3750 f         1 RNR     -0.235300
     35 C35       -11.4220   -0.7020   -1.8830 c3        1 RNR     -0.128400
     36 C36        -9.9360   -1.0240   -1.6860 c3        1 RNR      0.156800
     37 H3         -2.3900   -1.0330   -0.5810 ha        1 RNR      0.148000
     38 H5         -4.6100    2.1840    1.3670 ha        1 RNR      0.177000
     39 H6         -2.4830    3.2760    1.9830 ha        1 RNR      0.138000
     40 H8          0.0080    3.3200    1.9690 ha        1 RNR      0.139000
     41 H10         2.4990    3.2820    1.9050 ha        1 RNR      0.138000
     42 H11         4.6080    2.1950    1.2230 ha        1 RNR      0.177000
     43 H13         2.3360   -1.0230   -0.6620 ha        1 RNR      0.148000
     44 HN15        4.6510   -1.0300   -0.6370 hn        1 RNR      0.318500
     45 H18         7.1060   -1.6400   -0.0390 hc        1 RNR      0.074700
     46 H18A        6.9350   -0.8910   -1.6840 hc        1 RNR      0.074700
     47 H19         8.5410    0.9230   -1.0530 h1        1 RNR      0.053200
     48 H19A        8.7050    0.2230    0.6150 h1        1 RNR      0.053200
     49 H21        11.0310   -0.2670   -2.3770 h1        1 RNR      0.062700
     50 H21A       10.7970    0.8860   -0.9860 h1        1 RNR      0.062700
     51 H22        12.4220   -0.1870    0.2720 h1        1 RNR      0.056700
     52 H24        11.8380   -3.0590   -0.1800 hc        1 RNR      0.064200
     53 H24A       11.5010   -2.0580    1.2900 hc        1 RNR      0.064200
     54 H25         9.2460   -2.1070    0.7500 h1        1 RNR      0.047700
     55 H25A        9.6070   -2.9800   -0.8020 h1        1 RNR      0.047700
     56 HN26       -4.7050   -0.9860   -0.5820 hn        1 RNR      0.318500
     57 H29        -7.1620   -0.7220   -1.3860 hc        1 RNR      0.074700
     58 H29A       -6.9950   -1.8130    0.0560 hc        1 RNR      0.074700
     59 H30        -8.5750   -0.3730    1.3590 h1        1 RNR      0.053200
     60 H30A       -8.7340    0.7610   -0.0510 h1        1 RNR      0.053200
     61 H32       -11.0880   -2.0730    0.9620 h1        1 RNR      0.062700
     62 H32A      -10.8310   -0.3030    1.3100 h1        1 RNR      0.062700
     63 H33       -12.4590    0.3090   -0.2230 h1        1 RNR      0.056700
     64 H35       -11.9110   -1.4660   -2.5350 hc        1 RNR      0.064200
     65 H35A      -11.5520    0.2990   -2.3590 hc        1 RNR      0.064200
     66 H36        -9.3020   -0.2250   -2.1590 h1        1 RNR      0.047700
     67 H36A       -9.6840   -2.0010   -2.1840 h1        1 RNR      0.047700
@<TRIPOS>BOND
     1    1    2 ar  
     2    1   14 ar  
     3    2    3 ar  
     4    2    7 ar  
     5    3    4 ar  
     6    3   37 1   
     7    4    5 ar  
     8    4   26 1   
     9    5    6 ar  
    10    5   38 1   
    11    6    7 ar  
    12    6   39 1   
    13    7    8 ar  
    14    8    9 ar  
    15    8   40 1   
    16    9   10 ar  
    17    9   14 ar  
    18   10   11 ar  
    19   10   41 1   
    20   11   12 ar  
    21   11   42 1   
    22   12   13 ar  
    23   12   15 1   
    24   13   14 ar  
    25   13   43 1   
    26   15   16 1   
    27   15   44 1   
    28   16   17 2   
    29   16   18 1   
    30   18   19 1   
    31   18   45 1   
    32   18   46 1   
    33   19   20 1   
    34   19   47 1   
    35   19   48 1   
    36   20   21 1   
    37   20   25 1   
    38   21   22 1   
    39   21   49 1   
    40   21   50 1   
    41   22   23 1   
    42   22   24 1   
    43   22   51 1   
    44   24   25 1   
    45   24   52 1   
    46   24   53 1   
    47   25   54 1   
    48   25   55 1   
    49   26   27 1   
    50   26   56 1   
    51   27   28 2   
    52   27   29 1   
    53   29   30 1   
    54   29   57 1   
    55   29   58 1   
    56   30   31 1   
    57   30   59 1   
    58   30   60 1   
    59   31   32 1   
    60   31   36 1   
    61   32   33 1   
    62   32   61 1   
    63   32   62 1   
    64   33   34 1   
    65   33   35 1   
    66   33   63 1   
    67   35   36 1   
    68   35   64 1   
    69   35   65 1   
    70   36   66 1   
    71   36   67 1   
@<TRIPOS>SUBSTRUCTURE
     1 RNR         1 TEMP              0 ****  ****    0 ROOT
