@<TRIPOS>MOLECULE
RNR
   67    71     1     0     0
SMALL
bcc


@<TRIPOS>ATOM
      1 N1          0.3030   -0.8560   -0.3870 nb        1 RNR     -0.681000
      2 C2          1.6540   -0.7710   -0.4660 ca        1 RNR      0.456600
      3 C3          2.4350   -0.8100    0.7430 ca        1 RNR     -0.261300
      4 C4          3.8170   -0.7250    0.7110 ca        1 RNR      0.095600
      5 C5          4.4910   -0.5950   -0.5580 ca        1 RNR     -0.145500
      6 C6          3.7740   -0.5580   -1.7150 ca        1 RNR     -0.089000
      7 C7          2.3500   -0.6420   -1.7200 ca        1 RNR     -0.180300
      8 C8          1.5970   -0.6050   -2.8970 ca        1 RNR     -0.044000
      9 C9          0.2030   -0.6930   -2.8320 ca        1 RNR     -0.180300
     10 C10        -0.6250   -0.6620   -3.9930 ca        1 RNR     -0.089000
     11 C11        -1.9810   -0.7490   -3.9090 ca        1 RNR     -0.145500
     12 C12        -2.6240   -0.8750   -2.6240 ca        1 RNR      0.095600
     13 C13        -1.8500   -0.9070   -1.4750 ca        1 RNR     -0.261300
     14 C14        -0.4150   -0.8190   -1.5370 ca        1 RNR      0.456600
     15 N15        -4.0190   -0.9770   -2.4970 ns        1 RNR     -0.475100
     16 C16        -4.9860   -0.8790   -3.4910 c         1 RNR      0.669100
     17 O17        -4.7140   -0.6950   -4.6910 o         1 RNR     -0.590100
     18 C18        -6.4210   -1.0220   -3.0090 c3        1 RNR     -0.157400
     19 C19        -7.3800   -0.8340   -4.1860 c3        1 RNR      0.172800
     20 N20        -8.7730   -0.9390   -3.7820 n3        1 RNR     -0.725600
     21 C21        -9.7080   -0.3740   -4.7510 c3        1 RNR      0.132800
     22 C22       -10.7510   -1.4550   -5.1630 c3        1 RNR      0.153600
     23 F23       -12.0440   -1.0080   -4.9640 f         1 RNR     -0.235300
     24 C24       -10.4210   -2.6870   -4.2980 c3        1 RNR     -0.128400
     25 C25        -9.2030   -2.2990   -3.4510 c3        1 RNR      0.156800
     26 N26         4.5210   -0.7550    1.9250 ns        1 RNR     -0.475100
     27 C27         5.8960   -0.8000    2.1250 c         1 RNR      0.669100
     28 O28         6.7200   -0.7960    1.1940 o         1 RNR     -0.590100
     29 C29         6.3340   -0.8460    3.5810 c3        1 RNR     -0.157400
     30 C30         7.8580   -0.9590    3.6560 c3        1 RNR      0.172800
     31 N31         8.3360   -1.0280    5.0280 n3        1 RNR     -0.725600
     32 C32         9.6990   -1.5390    5.1470 c3        1 RNR      0.132800
     33 C33        10.5790   -0.5060    5.9130 c3        1 RNR      0.153600
     34 F34        11.1970   -1.0850    7.0060 f         1 RNR     -0.235300
     35 C35         9.6160    0.6250    6.3200 c3        1 RNR     -0.128400
     36 C36         8.2410    0.2350    5.7630 c3        1 RNR      0.156800
     37 H3          1.8880   -0.9100    1.6950 ha        1 RNR      0.148000
     38 H5          5.5910   -0.5280   -0.5880 ha        1 RNR      0.177000
     39 H6          4.2900   -0.4590   -2.6840 ha        1 RNR      0.138000
     40 H8          2.0990   -0.5080   -3.8720 ha        1 RNR      0.139000
     41 H10        -0.1350   -0.5650   -4.9750 ha        1 RNR      0.138000
     42 H11        -2.5940   -0.7220   -4.8260 ha        1 RNR      0.177000
     43 H13        -2.3090   -1.0020   -0.4770 ha        1 RNR      0.148000
     44 HN15       -4.3500   -1.0970   -1.5640 hn        1 RNR      0.318500
     45 H18        -6.5570   -2.0390   -2.5540 hc        1 RNR      0.074700
     46 H18A       -6.6330   -0.2560   -2.2170 hc        1 RNR      0.074700
     47 H19        -7.1030   -1.5760   -4.9910 h1        1 RNR      0.053200
     48 H19A       -7.2100    0.1970   -4.6110 h1        1 RNR      0.053200
     49 H21        -9.1950    0.0180   -5.6700 h1        1 RNR      0.062700
     50 H21A      -10.2350    0.4830   -4.2480 h1        1 RNR      0.062700
     51 H22       -10.6380   -1.7000   -6.2550 h1        1 RNR      0.056700
     52 H24       -11.2890   -2.9530   -3.6470 hc        1 RNR      0.064200
     53 H24A      -10.1900   -3.5640   -4.9480 hc        1 RNR      0.064200
     54 H25        -8.3780   -3.0490   -3.5960 h1        1 RNR      0.047700
     55 H25A       -9.4770   -2.2980   -2.3600 h1        1 RNR      0.047700
     56 HN26        3.9510   -0.7980    2.7420 hn        1 RNR      0.318500
     57 H29         5.8600   -1.7250    4.0920 hc        1 RNR      0.074700
     58 H29A        5.9860    0.0860    4.1000 hc        1 RNR      0.074700
     59 H30         8.3060   -0.0960    3.0820 h1        1 RNR      0.053200
     60 H30A        8.1620   -1.9060    3.1250 h1        1 RNR      0.053200
     61 H32        10.1670   -1.7610    4.1510 h1        1 RNR      0.062700
     62 H32A        9.6480   -2.4960    5.7350 h1        1 RNR      0.062700
     63 H33        11.3840   -0.1110    5.2330 h1        1 RNR      0.056700
     64 H35         9.5790    0.7270    7.4320 hc        1 RNR      0.064200
     65 H35A        9.9570    1.5970    5.8900 hc        1 RNR      0.064200
     66 H36         7.5170    0.0670    6.6070 h1        1 RNR      0.047700
     67 H36A        7.8340    1.0650    5.1230 h1        1 RNR      0.047700
@<TRIPOS>BOND
     1    1    2 ar  
     2    1   14 ar  
     3    2    3 ar  
     4    2    7 ar  
     5    3    4 ar  
     6    3   37 1   
     7    4    5 ar  
     8    4   26 1   
     9    5    6 ar  
    10    5   38 1   
    11    6    7 ar  
    12    6   39 1   
    13    7    8 ar  
    14    8    9 ar  
    15    8   40 1   
    16    9   10 ar  
    17    9   14 ar  
    18   10   11 ar  
    19   10   41 1   
    20   11   12 ar  
    21   11   42 1   
    22   12   13 ar  
    23   12   15 1   
    24   13   14 ar  
    25   13   43 1   
    26   15   16 1   
    27   15   44 1   
    28   16   17 2   
    29   16   18 1   
    30   18   19 1   
    31   18   45 1   
    32   18   46 1   
    33   19   20 1   
    34   19   47 1   
    35   19   48 1   
    36   20   21 1   
    37   20   25 1   
    38   21   22 1   
    39   21   49 1   
    40   21   50 1   
    41   22   23 1   
    42   22   24 1   
    43   22   51 1   
    44   24   25 1   
    45   24   52 1   
    46   24   53 1   
    47   25   54 1   
    48   25   55 1   
    49   26   27 1   
    50   26   56 1   
    51   27   28 2   
    52   27   29 1   
    53   29   30 1   
    54   29   57 1   
    55   29   58 1   
    56   30   31 1   
    57   30   59 1   
    58   30   60 1   
    59   31   32 1   
    60   31   36 1   
    61   32   33 1   
    62   32   61 1   
    63   32   62 1   
    64   33   34 1   
    65   33   35 1   
    66   33   63 1   
    67   35   36 1   
    68   35   64 1   
    69   35   65 1   
    70   36   66 1   
    71   36   67 1   
@<TRIPOS>SUBSTRUCTURE
     1 RNR         1 TEMP              0 ****  ****    0 ROOT
