@<TRIPOS>MOLECULE
RNR
   67    64     1     0     0
SMALL
bcc


@<TRIPOS>ATOM
      1 N1         -0.2450   -1.3530   -0.4290 n1        1 RNR     -0.480800
      2 C2          1.1610   -1.3550   -0.4320 cg        1 RNR      0.388800
      3 C3          1.8640   -1.4540    0.7800 c1        1 RNR     -0.113500
      4 C4          3.2630   -1.4340    0.7800 c1        1 RNR      0.108200
      5 C5          3.9590   -1.3160   -0.4250 c1        1 RNR     -0.060000
      6 C6          3.2640   -1.2190   -1.6180 c1        1 RNR     -0.060000
      7 C7          1.8470   -1.2380   -1.6160 cg        1 RNR     -0.114000
      8 C8          1.1560   -1.1180   -2.8140 c1        1 RNR      0.013500
      9 C9         -0.2550   -1.1160   -2.8140 cg        1 RNR     -0.026000
     10 C10        -0.9590   -1.0030   -4.0220 c1        1 RNR     -0.085000
     11 C11        -2.3620   -1.0090   -4.0220 c1        1 RNR     -0.113500
     12 C12        -3.0550   -1.1260   -2.8320 c1        1 RNR      0.108200
     13 C13        -2.3610   -1.2380   -1.6290 c1        1 RNR     -0.085000
     14 C14        -0.9430   -1.2330   -1.6260 cg        1 RNR     -0.026000
     15 N15        -4.4640   -1.0490   -2.6870 n         1 RNR     -0.486700
     16 C16        -5.2530   -0.2340   -3.6220 c         1 RNR      0.668100
     17 O17        -4.6840    0.3880   -4.5400 o         1 RNR     -0.585600
     18 C18        -6.7870   -0.0880   -3.4180 c3        1 RNR     -0.160900
     19 C19        -7.1560    1.3750   -3.3880 c3        1 RNR      0.171800
     20 N20        -8.4760    1.5320   -2.7710 n3        1 RNR     -0.724600
     21 C21        -8.4050    2.3920   -1.8150 c3        1 RNR      0.127800
     22 C22        -9.7820    3.1480   -1.8390 c3        1 RNR      0.157600
     23 F23       -10.5210    2.7820   -0.8320 f         1 RNR     -0.234300
     24 C24       -10.4440    2.7460   -3.1460 c3        1 RNR     -0.125900
     25 C25        -9.4950    2.1440   -3.8400 c3        1 RNR      0.158800
     26 N26         3.7770   -1.4250    2.1450 n         1 RNR     -0.486700
     27 C27         5.0440   -0.7680    2.4390 c         1 RNR      0.668100
     28 O28         5.6860   -0.2160    1.5230 o         1 RNR     -0.585600
     29 C29         5.6360   -0.8130    3.8970 c3        1 RNR     -0.160900
     30 C30         6.9630   -0.0660    3.9240 c3        1 RNR      0.171800
     31 N31         7.6770   -0.4160    5.1110 n3        1 RNR     -0.724600
     32 C32         8.6190   -1.2570    4.8130 c3        1 RNR      0.127800
     33 C33         9.7890   -0.9260    5.7860 c3        1 RNR      0.157600
     34 F34         9.8940   -1.8540    6.6860 f         1 RNR     -0.234300
     35 C35         9.4220    0.4140    6.4320 c3        1 RNR     -0.125900
     36 C36         8.3990    0.8680    5.7150 c3        1 RNR      0.158800
     37 H3          1.3740   -1.5340    1.6250 ha        1 RNR      0.105500
     38 H5          4.8990   -1.3040   -0.4270 ha        1 RNR      0.100500
     39 H6          3.7490   -1.1360   -2.4600 ha        1 RNR      0.100500
     40 H8          1.6570   -0.8930   -3.6600 ha        1 RNR      0.081500
     41 H10        -0.4760   -0.9220   -4.8600 ha        1 RNR      0.085500
     42 H11        -2.8580   -0.9290   -4.8800 ha        1 RNR      0.105500
     43 H13        -2.8660   -1.3230   -0.7640 ha        1 RNR      0.085500
     44 HN15       -4.8910   -1.5900   -2.0810 hn        1 RNR      0.320500
     45 H18        -7.2680   -0.5410   -4.1730 hc        1 RNR      0.082200
     46 H18A       -7.0510   -0.5140   -2.5530 hc        1 RNR      0.082200
     47 H19        -7.1820    1.7240   -4.3070 h1        1 RNR      0.040450
     48 H19A       -6.4910    1.8700   -2.8690 h1        1 RNR      0.040450
     49 H21        -7.6680    3.0220   -1.9810 h1        1 RNR      0.060700
     50 H21A       -8.2730    1.9210   -0.9230 h1        1 RNR      0.060700
     51 H22        -9.6330    4.1220   -1.8180 h1        1 RNR      0.057200
     52 H24       -11.1850    2.1270   -2.9770 hc        1 RNR      0.065450
     53 H24A      -10.7560    3.5180   -3.6110 hc        1 RNR      0.065450
     54 H25        -9.0440    2.7770   -4.3970 h1        1 RNR      0.049950
     55 H25A       -9.8620    1.4620   -4.3610 h1        1 RNR      0.049950
     56 HN26        3.2750   -1.7360    2.8100 hn        1 RNR      0.320500
     57 H29         5.0180   -0.3970    4.5090 hc        1 RNR      0.082200
     58 H29A        5.7830   -1.7610    4.1680 hc        1 RNR      0.082200
     59 H30         7.5060   -0.3230    3.1200 h1        1 RNR      0.040450
     60 H30A        6.7920    0.9270    3.9120 h1        1 RNR      0.040450
     61 H32         8.3020   -2.1990    4.9560 h1        1 RNR      0.060700
     62 H32A        8.9110   -1.1270    3.8630 h1        1 RNR      0.060700
     63 H33        10.6350   -0.8400    5.2850 h1        1 RNR      0.057200
     64 H35        10.1690    1.0300    6.3750 hc        1 RNR      0.065450
     65 H35A        9.1630    0.2880    7.3420 hc        1 RNR      0.065450
     66 H36         7.7720    1.3700    6.2920 h1        1 RNR      0.049950
     67 H36A        8.7270    1.4450    4.9880 h1        1 RNR      0.049950
@<TRIPOS>BOND
     1    1    2 3   
     2    2    7 1   
     3    3    4 3   
     4    3   37 1   
     5    4   26 1   
     6    5    6 3   
     7    5   38 1   
     8    6   39 1   
     9    7    8 3   
    10    8   40 1   
    11    9   10 3   
    12    9   14 1   
    13   10   41 1   
    14   11   12 3   
    15   11   42 1   
    16   12   15 1   
    17   13   14 3   
    18   13   43 1   
    19   15   16 1   
    20   15   44 1   
    21   16   17 2   
    22   16   18 1   
    23   18   19 1   
    24   18   45 1   
    25   18   46 1   
    26   19   20 1   
    27   19   47 1   
    28   19   48 1   
    29   20   21 1   
    30   20   25 1   
    31   21   22 1   
    32   21   49 1   
    33   21   50 1   
    34   22   23 1   
    35   22   24 1   
    36   22   51 1   
    37   24   25 1   
    38   24   52 1   
    39   24   53 1   
    40   25   54 1   
    41   25   55 1   
    42   26   27 1   
    43   26   56 1   
    44   27   28 2   
    45   27   29 1   
    46   29   30 1   
    47   29   57 1   
    48   29   58 1   
    49   30   31 1   
    50   30   59 1   
    51   30   60 1   
    52   31   32 1   
    53   31   36 1   
    54   32   33 1   
    55   32   61 1   
    56   32   62 1   
    57   33   34 1   
    58   33   35 1   
    59   33   63 1   
    60   35   36 1   
    61   35   64 1   
    62   35   65 1   
    63   36   66 1   
    64   36   67 1   
@<TRIPOS>SUBSTRUCTURE
     1 RNR         1 TEMP              0 ****  ****    0 ROOT
