@<TRIPOS>MOLECULE
RNR
   69    73     1     0     0
SMALL
bcc


@<TRIPOS>ATOM
      1 N1          0.4060    0.0550    0.2670 nb        1 RNR     -0.625000
      2 C2          1.6790    0.0320   -0.2000 ca        1 RNR      0.423100
      3 C3          2.7340   -0.4360    0.6720 ca        1 RNR     -0.118800
      4 C4          4.0320   -0.4600    0.2190 ca        1 RNR     -0.012400
      5 C5          4.3730   -0.0380   -1.1120 ca        1 RNR     -0.134000
      6 C6          3.3930    0.4060   -1.9490 ca        1 RNR     -0.051500
      7 C7          2.0290    0.4610   -1.5290 ca        1 RNR     -0.134800
      8 C8          1.0060    0.9230   -2.3690 ca        1 RNR     -0.027000
      9 C9         -0.3130    0.9560   -1.8990 ca        1 RNR     -0.134800
     10 C10        -1.3970    1.4240   -2.7050 ca        1 RNR     -0.051500
     11 C11        -2.6730    1.4550   -2.2260 ca        1 RNR     -0.134000
     12 C12        -2.9360    1.0070   -0.8850 ca        1 RNR     -0.012400
     13 C13        -1.9320    0.5450   -0.0680 ca        1 RNR     -0.118800
     14 C14        -0.5710    0.5060   -0.5560 ca        1 RNR      0.423100
     15 N15        -4.3170    1.0660   -0.3950 n4        1 RNR     -0.558700
     16 C16        -5.0800   -0.2410   -0.6810 c         1 RNR      0.567100
     17 O17        -5.1090   -1.0150    0.2580 o         1 RNR     -0.399600
     18 C18        -5.6690   -0.3390   -2.0480 c3        1 RNR     -0.163900
     19 C19        -6.3100   -1.7340   -2.2450 c3        1 RNR      0.179800
     20 N20        -6.7240   -1.8910   -3.6140 n3        1 RNR     -0.783600
     21 C21        -6.3430   -3.1460   -4.2520 c3        1 RNR      0.128300
     22 C22        -7.4590   -3.5350   -5.2680 c3        1 RNR      0.169100
     23 F23        -7.0110   -3.4070   -6.5680 f         1 RNR     -0.230300
     24 C24        -8.6330   -2.5820   -4.9630 c3        1 RNR     -0.123400
     25 C25        -8.1290   -1.6000   -3.8990 c3        1 RNR      0.165800
     26 N26         5.1120   -0.9020    1.1060 n4        1 RNR     -0.558700
     27 C27         5.7730   -2.2150    0.6840 c         1 RNR      0.567100
     28 O28         6.0530   -2.3290   -0.4960 o         1 RNR     -0.399600
     29 C29         6.0440   -3.1840    1.7970 c3        1 RNR     -0.163900
     30 C30         7.2240   -2.7230    2.6680 c3        1 RNR      0.179800
     31 N31         6.9970   -1.4080    3.2290 n3        1 RNR     -0.783600
     32 C32         6.2700   -1.3950    4.4990 c3        1 RNR      0.128300
     33 C33         6.6630   -0.0830    5.2400 c3        1 RNR      0.169100
     34 F34         5.7000    0.8910    5.0460 f         1 RNR     -0.230300
     35 C35         8.0180    0.3140    4.6180 c3        1 RNR     -0.123400
     36 C36         8.1990   -0.5770    3.3810 c3        1 RNR      0.165800
     37 H3          2.4530   -0.7540    1.6930 ha        1 RNR      0.181000
     38 H5          5.4210   -0.0940   -1.4540 ha        1 RNR      0.173000
     39 H6          3.6410    0.7310   -2.9760 ha        1 RNR      0.178500
     40 H8          1.2400    1.2590   -3.3940 ha        1 RNR      0.176000
     41 H10        -1.1770    1.7670   -3.7330 ha        1 RNR      0.178500
     42 H11        -3.4950    1.8250   -2.8600 ha        1 RNR      0.173000
     43 H13        -2.1200    0.1970    0.9660 ha        1 RNR      0.181000
     44 HN15       -4.8000    1.8470   -0.8540 hn        1 RNR      0.471050
     45 H18        -6.4520    0.4570   -2.1790 hc        1 RNR      0.113200
     46 H18A       -4.8650   -0.1700   -2.8180 hc        1 RNR      0.113200
     47 H19        -5.5400   -2.5100   -1.9680 h1        1 RNR      0.071700
     48 H19A       -7.1630   -1.8230   -1.5110 h1        1 RNR      0.071700
     49 H21        -5.3710   -2.9830   -4.7910 h1        1 RNR      0.056950
     50 H21A       -6.2090   -3.9850   -3.5150 h1        1 RNR      0.056950
     51 H22        -7.7630   -4.6070   -5.1080 h1        1 RNR      0.084700
     52 H24        -8.9450   -2.0380   -5.8890 hc        1 RNR      0.084200
     53 H24A       -9.5100   -3.1590   -4.5830 hc        1 RNR      0.084200
     54 H25        -8.1800   -0.5440   -4.2830 h1        1 RNR      0.052200
     55 H25A       -8.7740   -1.6640   -2.9780 h1        1 RNR      0.052200
     56 HN26        4.7570   -0.9990    2.0670 hn        1 RNR      0.471050
     57 H29         6.3150   -4.1710    1.3250 hc        1 RNR      0.113200
     58 H29A        5.1240   -3.3370    2.4210 hc        1 RNR      0.113200
     59 H30         7.3720   -3.5180    3.4580 h1        1 RNR      0.071700
     60 H30A        8.1540   -2.7070    2.0290 h1        1 RNR      0.071700
     61 H32         5.1680   -1.4140    4.2850 h1        1 RNR      0.056950
     62 H32A        6.5190   -2.2760    5.1540 h1        1 RNR      0.056950
     63 H33         6.7580   -0.2730    6.3450 h1        1 RNR      0.084700
     64 H35         8.8430    0.1400    5.3510 hc        1 RNR      0.084200
     65 H35A        8.0230    1.3960    4.3380 hc        1 RNR      0.084200
     66 H36         9.1350   -1.1940    3.4850 h1        1 RNR      0.052200
     67 H36A        8.2980    0.0450    2.4510 h1        1 RNR      0.052200
     68 H152       -4.3050    1.2320    0.6220 hn        1 RNR      0.471050
     69 H262        5.8460   -0.1750    1.1170 hn        1 RNR      0.471050
@<TRIPOS>BOND
     1    1    2 ar  
     2    1   14 ar  
     3    2    3 ar  
     4    2    7 ar  
     5    3    4 ar  
     6    3   37 1   
     7    4    5 ar  
     8    4   26 1   
     9    5    6 ar  
    10    5   38 1   
    11    6    7 ar  
    12    6   39 1   
    13    7    8 ar  
    14    8    9 ar  
    15    8   40 1   
    16    9   10 ar  
    17    9   14 ar  
    18   10   11 ar  
    19   10   41 1   
    20   11   12 ar  
    21   11   42 1   
    22   12   13 ar  
    23   12   15 1   
    24   13   14 ar  
    25   13   43 1   
    26   15   16 1   
    27   15   44 1   
    28   15   68 1   
    29   16   17 2   
    30   16   18 1   
    31   18   19 1   
    32   18   45 1   
    33   18   46 1   
    34   19   20 1   
    35   19   47 1   
    36   19   48 1   
    37   20   21 1   
    38   20   25 1   
    39   21   22 1   
    40   21   49 1   
    41   21   50 1   
    42   22   23 1   
    43   22   24 1   
    44   22   51 1   
    45   24   25 1   
    46   24   52 1   
    47   24   53 1   
    48   25   54 1   
    49   25   55 1   
    50   26   27 1   
    51   26   56 1   
    52   26   69 1   
    53   27   28 2   
    54   27   29 1   
    55   29   30 1   
    56   29   57 1   
    57   29   58 1   
    58   30   31 1   
    59   30   59 1   
    60   30   60 1   
    61   31   32 1   
    62   31   36 1   
    63   32   33 1   
    64   32   61 1   
    65   32   62 1   
    66   33   34 1   
    67   33   35 1   
    68   33   63 1   
    69   35   36 1   
    70   35   64 1   
    71   35   65 1   
    72   36   66 1   
    73   36   67 1   
@<TRIPOS>SUBSTRUCTURE
     1 RNR         1 TEMP              0 ****  ****    0 ROOT
