@<TRIPOS>MOLECULE
RNS
   23    21     1     0     0
SMALL
bcc


@<TRIPOS>ATOM
      1 C1         -2.8780   -0.1480   -1.4310 c1        1 RNS      0.171000
      2 C2         -1.3660   -0.1480   -1.4310 c2        1 RNS     -0.037000
      3 C3         -0.8620   -0.1480   -0.0060 c3        1 RNS     -0.011000
      4 C4          0.5550    0.3780    0.0280 c3        1 RNS     -0.029000
      5 C5          1.2850   -0.2150    1.2110 c3        1 RNS     -0.011000
      6 C6          2.6590    0.4070    1.3190 c3        1 RNS     -0.247000
      7 O1         -3.4860    0.8510   -1.7660 o         1 RNS     -0.291000
      8 O2         -0.8970   -1.2970   -2.0950 oh        1 RNS     -0.315000
      9 O3         -1.6870    0.6760    0.7840 oh        1 RNS     -0.343000
     10 O4          0.5320    1.7810    0.1460 oh        1 RNS     -0.314000
     11 O5          1.4110   -1.6060    1.0340 oh        1 RNS     -0.342000
     12 H11        -3.3660   -0.9600   -1.1980 ha        1 RNS      0.127000
     13 H2         -1.0400    0.6490   -1.8910 h4        1 RNS      0.154000
     14 H3         -0.8800   -1.0580    0.3450 h1        1 RNS      0.080000
     15 H4          1.0140    0.1290   -0.7970 h1        1 RNS      0.146000
     16 H5          0.7810   -0.0350    2.0270 h1        1 RNS      0.132000
     17 H61         2.5700    1.3630    1.4920 hc        1 RNS      0.090333
     18 H62         3.1440    0.2710    0.4830 hc        1 RNS      0.090333
     19 H63         3.1490   -0.0120    2.0520 hc        1 RNS      0.090333
     20 HO2        -1.0480   -1.2180   -2.9660 ho        1 RNS      0.218000
     21 HO3        -2.0880    0.1850    1.4050 ho        1 RNS      0.230000
     22 HO4         0.9240    2.1440   -0.5630 ho        1 RNS      0.210000
     23 HO5         1.5750   -1.9900    1.8180 ho        1 RNS      0.202000
@<TRIPOS>BOND
     1    1    7 1   
     2    1   12 1   
     3    2    3 1   
     4    2    8 1   
     5    2   13 1   
     6    3    4 1   
     7    3    9 1   
     8    3   14 1   
     9    4    5 1   
    10    4   10 1   
    11    4   15 1   
    12    5    6 1   
    13    5   11 1   
    14    5   16 1   
    15    6   17 1   
    16    6   18 1   
    17    6   19 1   
    18    8   20 1   
    19    9   21 1   
    20   10   22 1   
    21   11   23 1   
@<TRIPOS>SUBSTRUCTURE
     1 RNS         1 TEMP              0 ****  ****    0 ROOT
