@<TRIPOS>MOLECULE
RNS
   23    22     1     0     0
SMALL
bcc


@<TRIPOS>ATOM
      1 C1          0.1710    0.6830   -2.6520 c         1 RNS      0.551900
      2 C2         -0.5020    0.4050   -1.3210 c3        1 RNS     -0.006900
      3 C3          0.4800   -0.2890   -0.3610 c3        1 RNS      0.084100
      4 C4         -0.2270   -0.6710    0.9550 c3        1 RNS      0.076100
      5 C5          0.2280    0.2450    2.1070 c3        1 RNS      0.114100
      6 C6         -0.5480   -0.0610    3.3720 c3        1 RNS     -0.126100
      7 O1          0.1440   -0.1210   -3.5800 o         1 RNS     -0.501100
      8 O2         -0.9980    1.6020   -0.7540 oh        1 RNS     -0.589800
      9 O3          1.0730   -1.4280   -0.9460 oh        1 RNS     -0.584800
     10 O4          0.0120   -2.0310    1.2580 oh        1 RNS     -0.588800
     11 O5          0.0950    1.6050    1.7240 oh        1 RNS     -0.608800
     12 H11         0.6770    1.6710   -2.7270 h4        1 RNS      0.003200
     13 H2         -1.4170   -0.2350   -1.4830 h1        1 RNS      0.103700
     14 H3          1.3480    0.4020   -0.1490 h1        1 RNS      0.091700
     15 H4         -1.3460   -0.6010    0.8390 h1        1 RNS      0.087700
     16 H5          1.3340    0.1150    2.2820 h1        1 RNS      0.076700
     17 H61        -0.1560    0.5500    4.2190 hc        1 RNS      0.051700
     18 H62        -1.6310    0.1740    3.2350 hc        1 RNS      0.051700
     19 H63        -0.4460   -1.1460    3.6170 hc        1 RNS      0.051700
     20 HO2        -0.2370    2.1370   -0.4830 ho        1 RNS      0.417000
     21 HO3         0.3680   -2.0640   -1.1310 ho        1 RNS      0.421000
     22 HO4         0.9700   -2.1660    1.2550 ho        1 RNS      0.415000
     23 HO5        -0.8510    1.7910    1.6470 ho        1 RNS      0.413000
@<TRIPOS>BOND
     1    1    2 1   
     2    1    7 2   
     3    1   12 1   
     4    2    3 1   
     5    2    8 1   
     6    2   13 1   
     7    3    4 1   
     8    3    9 1   
     9    3   14 1   
    10    4    5 1   
    11    4   10 1   
    12    4   15 1   
    13    5    6 1   
    14    5   11 1   
    15    5   16 1   
    16    6   17 1   
    17    6   18 1   
    18    6   19 1   
    19    8   20 1   
    20    9   21 1   
    21   10   22 1   
    22   11   23 1   
@<TRIPOS>SUBSTRUCTURE
     1 RNS         1 TEMP              0 ****  ****    0 ROOT
