@<TRIPOS>MOLECULE
RNT
   25    24     1     0     0
SMALL
bcc


@<TRIPOS>ATOM
      1 C1          0.6920    0.2510   -2.5770 c3        1 RNT      0.099400
      2 C2         -0.1920    0.2590   -1.3240 c3        1 RNT      0.112100
      3 C3          0.4530   -0.5900   -0.2140 c3        1 RNT      0.074100
      4 C4         -0.4200   -0.5860    1.0570 c3        1 RNT      0.076100
      5 C5          0.2220    0.2690    2.1660 c3        1 RNT      0.115100
      6 C6         -0.6880    0.3420    3.3760 c3        1 RNT     -0.126100
      7 O1         -0.1800    0.2900   -3.6930 oh        1 RNT     -0.595800
      8 O2         -0.4250    1.5740   -0.8560 oh        1 RNT     -0.594800
      9 O3          0.6790   -1.9190   -0.6440 oh        1 RNT     -0.594800
     10 O4         -0.6410   -1.9110    1.4980 oh        1 RNT     -0.591800
     11 O5          0.5340    1.5600    1.6680 oh        1 RNT     -0.606800
     12 H11         1.3700    1.1460   -2.5830 h1        1 RNT      0.038200
     13 H12         1.3090   -0.6880   -2.6060 h1        1 RNT      0.038200
     14 H2         -1.2170   -0.1330   -1.5830 h1        1 RNT      0.099700
     15 H3          1.4810   -0.1900    0.0170 h1        1 RNT      0.087700
     16 H4         -1.4500   -0.1900    0.8250 h1        1 RNT      0.091700
     17 H5          1.2210   -0.1660    2.4510 h1        1 RNT      0.073700
     18 H61        -0.1820    0.8940    4.2030 hc        1 RNT      0.050033
     19 H62        -1.6370    0.8740    3.1220 hc        1 RNT      0.050033
     20 H63        -0.9380   -0.6920    3.7170 hc        1 RNT      0.050033
     21 HO1         0.3780    0.3070   -4.4790 ho        1 RNT      0.403000
     22 HO2         0.4340    1.9610   -0.6380 ho        1 RNT      0.410000
     23 HO3        -0.1860   -2.3300   -0.7800 ho        1 RNT      0.416000
     24 HO4         0.2250   -2.3240    1.6200 ho        1 RNT      0.412000
     25 HO5        -0.3040    1.9940    1.4540 ho        1 RNT      0.414000
@<TRIPOS>BOND
     1    1    2 1   
     2    1    7 1   
     3    1   12 1   
     4    1   13 1   
     5    2    3 1   
     6    2    8 1   
     7    2   14 1   
     8    3    4 1   
     9    3    9 1   
    10    3   15 1   
    11    4    5 1   
    12    4   10 1   
    13    4   16 1   
    14    5    6 1   
    15    5   11 1   
    16    5   17 1   
    17    6   18 1   
    18    6   19 1   
    19    6   20 1   
    20    7   21 1   
    21    8   22 1   
    22    9   23 1   
    23   10   24 1   
    24   11   25 1   
@<TRIPOS>SUBSTRUCTURE
     1 RNT         1 TEMP              0 ****  ****    0 ROOT
