@<TRIPOS>MOLECULE
RNY
   80    85     1     0     0
SMALL
bcc


@<TRIPOS>ATOM
      1 C1          0.2260   -0.8720   -0.4000 c3        1 RNY      0.106700
      2 O2          1.6140   -0.6080   -0.2200 os        1 RNY     -0.297900
      3 C3          2.0740   -0.6510    1.0770 ca        1 RNY      0.145100
      4 C4          1.3120   -0.9660    2.1770 ca        1 RNY     -0.255300
      5 C5          1.9020   -0.9920    3.4800 ca        1 RNY      0.445600
      6 N6          1.1090   -1.2900    4.5740 nb        1 RNY     -0.713000
      7 C7          1.7240   -1.2940    5.7560 ca        1 RNY      0.661900
      8 N8          3.0490   -1.0610    6.0290 nb        1 RNY     -0.766000
      9 C9          3.8440   -0.7720    4.9730 ca        1 RNY      0.690200
     10 N10         5.2040   -0.4850    5.1560 nu        1 RNY     -0.724300
     11 C11         5.8510   -0.5910    6.4110 ca        1 RNY      0.160600
     12 C12         5.3720    0.1370    7.5120 ca        1 RNY     -0.164000
     13 C13         6.0480    0.1030    8.7540 ca        1 RNY      0.078600
     14 N14         5.5000    0.8410    9.8170 ns        1 RNY     -0.464100
     15 C15         6.0160    0.9910   11.0950 c         1 RNY      0.676700
     16 O16         7.0740    0.4620   11.4780 o         1 RNY     -0.577100
     17 C17         5.1980    1.8350   12.0250 ca        1 RNY     -0.087600
     18 C18         4.6290    3.0450   11.6180 ca        1 RNY     -0.260300
     19 C19         3.9010    3.7720   12.5750 ca        1 RNY      0.423200
     20 N20         3.7030    3.3780   13.8410 nb        1 RNY     -0.700000
     21 C21         4.2710    2.1970   14.2450 ca        1 RNY      0.620200
     22 C22         5.0380    1.4000   13.3390 ca        1 RNY     -0.219300
     23 N23         4.1840    1.7790   15.6040 nh        1 RNY     -0.727300
     24 C28         3.6730    0.4250   15.7910 c3        1 RNY      0.149300
     25 C27         3.7690   -0.0220   17.2560 c3        1 RNY      0.122400
     26 O26         3.1500    0.9120   18.1310 os        1 RNY     -0.412600
     27 C25         3.6990    2.2180   17.9930 c3        1 RNY      0.122400
     28 C24         3.6030    2.7270   16.5480 c3        1 RNY      0.149300
     29 C29         7.2280   -0.6570    8.8670 ca        1 RNY     -0.163000
     30 C30         7.6990   -1.3650    7.7680 ca        1 RNY     -0.090000
     31 C31         7.0370   -1.3590    6.5410 ca        1 RNY     -0.139300
     32 C32         7.5830   -2.1440    5.4090 c3        1 RNY     -0.052800
     33 C33         3.2940   -0.7060    3.6180 ca        1 RNY     -0.280600
     34 C34         4.0560   -0.3670    2.4730 ca        1 RNY     -0.170000
     35 C35         3.4710   -0.3340    1.2250 ca        1 RNY      0.115100
     36 O36         4.1120   -0.0310    0.0460 os        1 RNY     -0.296900
     37 C37         5.4540    0.4580    0.1690 c3        1 RNY      0.124400
     38 C38         5.8710    0.8660   -1.2520 c3        1 RNY      0.166800
     39 N39         5.6360    2.2680   -1.5380 n3        1 RNY     -0.721600
     40 C43         6.5040    3.1910   -0.8030 c3        1 RNY      0.158800
     41 C42         7.2010    4.1390   -1.7910 c3        1 RNY     -0.094900
     42 C41         6.6800    3.7680   -3.1730 c3        1 RNY     -0.094900
     43 C40         5.7060    2.5970   -2.9630 c3        1 RNY      0.158800
     44 H11C        0.0870   -0.7620   -1.5060 h1        1 RNY      0.049700
     45 H12C       -0.0230   -1.9100   -0.0710 h1        1 RNY      0.049700
     46 H13C       -0.3940   -0.1250    0.1530 h1        1 RNY      0.049700
     47 H4          0.2400   -1.2000    2.0820 ha        1 RNY      0.163000
     48 H7          1.1030   -1.5270    6.6470 h5        1 RNY      0.051100
     49 H10         5.7790   -0.7460    4.3800 hn        1 RNY      0.428800
     50 H12         4.4520    0.7350    7.4050 ha        1 RNY      0.149000
     51 H14         4.6270    1.2840    9.6260 hn        1 RNY      0.323500
     52 H29         7.7860   -0.7020    9.8170 ha        1 RNY      0.175000
     53 H18         4.7540    3.4380   10.6020 ha        1 RNY      0.149000
     54 H22         5.5290    0.4720   13.6680 ha        1 RNY      0.168000
     55 H19         3.4340    4.7390   12.3090 h4        1 RNY      0.027100
     56 H241        2.5190    2.9320   16.3130 h1        1 RNY      0.055950
     57 H242        4.1710    3.6950   16.4740 h1        1 RNY      0.055950
     58 H281        2.5950    0.3530   15.4650 h1        1 RNY      0.055950
     59 H282        4.2790   -0.2860   15.1650 h1        1 RNY      0.055950
     60 H251        3.0700    2.8590   18.6640 h1        1 RNY      0.057950
     61 H252        4.7640    2.2160   18.3460 h1        1 RNY      0.057950
     62 H271        3.1900   -0.9720   17.4020 h1        1 RNY      0.057950
     63 H272        4.8390   -0.1700   17.5570 h1        1 RNY      0.057950
     64 H30         8.6240   -1.9550    7.8760 ha        1 RNY      0.136000
     65 H321        7.9260   -1.4670    4.5850 hc        1 RNY      0.042367
     66 H322        8.4600   -2.7570    5.7340 hc        1 RNY      0.042367
     67 H323        6.8110   -2.8420    4.9980 hc        1 RNY      0.042367
     68 H34         5.1190   -0.1050    2.5710 ha        1 RNY      0.138000
     69 H371        5.4900    1.3130    0.8920 h1        1 RNY      0.042700
     70 H372        6.1110   -0.3770    0.5320 h1        1 RNY      0.042700
     71 H381        6.9560    0.5760   -1.3750 h1        1 RNY      0.049700
     72 H382        5.2620    0.2560   -1.9800 h1        1 RNY      0.049700
     73 H401        4.6670    2.8910   -3.2780 h1        1 RNY      0.043950
     74 H402        6.0180    1.7180   -3.5910 h1        1 RNY      0.043950
     75 H431        5.8430    3.7750   -0.1050 h1        1 RNY      0.043950
     76 H432        7.2670    2.6490   -0.1800 h1        1 RNY      0.043950
     77 H411        6.1530    4.6300   -3.6480 hc        1 RNY      0.047700
     78 H412        7.5160    3.4650   -3.8500 hc        1 RNY      0.047700
     79 H421        6.9630    5.2020   -1.5430 hc        1 RNY      0.047700
     80 H422        8.3100    4.0160   -1.7340 hc        1 RNY      0.047700
@<TRIPOS>BOND
     1    1    2 1   
     2    1   44 1   
     3    1   45 1   
     4    1   46 1   
     5    2    3 1   
     6    3    4 ar  
     7    3   35 ar  
     8    4    5 ar  
     9    4   47 1   
    10    5    6 ar  
    11    5   33 ar  
    12    6    7 ar  
    13    7    8 ar  
    14    7   48 1   
    15    8    9 ar  
    16    9   10 1   
    17    9   33 ar  
    18   10   11 1   
    19   10   49 1   
    20   11   12 ar  
    21   11   31 ar  
    22   12   13 ar  
    23   12   50 1   
    24   13   14 1   
    25   13   29 ar  
    26   14   15 1   
    27   14   51 1   
    28   15   16 2   
    29   15   17 1   
    30   17   18 ar  
    31   17   22 ar  
    32   18   19 ar  
    33   18   53 1   
    34   19   20 ar  
    35   19   55 1   
    36   20   21 ar  
    37   21   22 ar  
    38   21   23 1   
    39   22   54 1   
    40   23   24 1   
    41   23   28 1   
    42   24   25 1   
    43   24   58 1   
    44   24   59 1   
    45   25   26 1   
    46   25   62 1   
    47   25   63 1   
    48   26   27 1   
    49   27   28 1   
    50   27   60 1   
    51   27   61 1   
    52   28   56 1   
    53   28   57 1   
    54   29   30 ar  
    55   29   52 1   
    56   30   31 ar  
    57   30   64 1   
    58   31   32 1   
    59   32   65 1   
    60   32   66 1   
    61   32   67 1   
    62   33   34 ar  
    63   34   35 ar  
    64   34   68 1   
    65   35   36 1   
    66   36   37 1   
    67   37   38 1   
    68   37   69 1   
    69   37   70 1   
    70   38   39 1   
    71   38   71 1   
    72   38   72 1   
    73   39   40 1   
    74   39   43 1   
    75   40   41 1   
    76   40   75 1   
    77   40   76 1   
    78   41   42 1   
    79   41   79 1   
    80   41   80 1   
    81   42   43 1   
    82   42   77 1   
    83   42   78 1   
    84   43   73 1   
    85   43   74 1   
@<TRIPOS>SUBSTRUCTURE
     1 RNY         1 TEMP              0 ****  ****    0 ROOT
