@<TRIPOS>MOLECULE
RNY
   80    85     1     0     0
SMALL
bcc


@<TRIPOS>ATOM
      1 C1          0.2270   -0.8820   -0.3990 c3        1 RNY      0.106700
      2 O2          1.6150   -0.6160   -0.2180 os        1 RNY     -0.297900
      3 C3          2.0750   -0.6570    1.0780 ca        1 RNY      0.145100
      4 C4          1.3130   -0.9720    2.1790 ca        1 RNY     -0.255300
      5 C5          1.9030   -0.9950    3.4820 ca        1 RNY      0.445600
      6 N6          1.1110   -1.2940    4.5750 nb        1 RNY     -0.713000
      7 C7          1.7260   -1.2950    5.7580 ca        1 RNY      0.661900
      8 N8          3.0510   -1.0590    6.0310 nb        1 RNY     -0.766000
      9 C9          3.8450   -0.7700    4.9740 ca        1 RNY      0.690200
     10 N10         5.2050   -0.4800    5.1570 nh        1 RNY     -0.724300
     11 C11         5.8520   -0.5840    6.4120 ca        1 RNY      0.160600
     12 C12         5.3710    0.1430    7.5130 ca        1 RNY     -0.164000
     13 C13         6.0470    0.1110    8.7550 ca        1 RNY      0.078600
     14 N14         5.4970    0.8480    9.8180 n         1 RNY     -0.464100
     15 C15         6.0140    1.0000   11.0960 c         1 RNY      0.676700
     16 O16         7.0750    0.4750   11.4780 o         1 RNY     -0.577100
     17 C17         5.1940    1.8410   12.0260 ca        1 RNY     -0.087600
     18 C18         4.6200    3.0490   11.6200 ca        1 RNY     -0.260300
     19 C19         3.8910    3.7740   12.5770 ca        1 RNY      0.423200
     20 N20         3.6950    3.3790   13.8430 nb        1 RNY     -0.700000
     21 C21         4.2670    2.2000   14.2470 ca        1 RNY      0.620200
     22 C22         5.0360    1.4060   13.3410 ca        1 RNY     -0.219300
     23 N23         4.1830    1.7820   15.6060 nh        1 RNY     -0.727300
     24 C28         3.6760    0.4270   15.7930 c3        1 RNY      0.149300
     25 C27         3.7740   -0.0200   17.2580 c3        1 RNY      0.122400
     26 O26         3.1530    0.9120   18.1340 os        1 RNY     -0.412600
     27 C25         3.6990    2.2190   17.9950 c3        1 RNY      0.122400
     28 C24         3.5990    2.7280   16.5510 c3        1 RNY      0.149300
     29 C29         7.2290   -0.6470    8.8680 ca        1 RNY     -0.163000
     30 C30         7.7020   -1.3540    7.7690 ca        1 RNY     -0.090000
     31 C31         7.0400   -1.3490    6.5420 ca        1 RNY     -0.139300
     32 C32         7.5870   -2.1330    5.4100 c3        1 RNY     -0.052800
     33 C33         3.2950   -0.7060    3.6190 ca        1 RNY     -0.280600
     34 C34         4.0560   -0.3680    2.4740 ca        1 RNY     -0.170000
     35 C35         3.4710   -0.3370    1.2260 ca        1 RNY      0.115100
     36 O36         4.1120   -0.0350    0.0460 os        1 RNY     -0.296900
     37 C37         5.4540    0.4550    0.1690 c3        1 RNY      0.124400
     38 C38         5.8720    0.8590   -1.2530 c3        1 RNY      0.166800
     39 N39         5.6360    2.2610   -1.5420 n3        1 RNY     -0.721600
     40 C43         6.5040    3.1850   -0.8100 c3        1 RNY      0.158800
     41 C42         7.2020    4.1300   -1.8000 c3        1 RNY     -0.094900
     42 C41         6.6800    3.7560   -3.1810 c3        1 RNY     -0.094900
     43 C40         5.7060    2.5870   -2.9680 c3        1 RNY      0.158800
     44 H11C       -0.3930   -0.1360    0.1530 h1        1 RNY      0.049700
     45 H12C       -0.0200   -1.9210   -0.0690 h1        1 RNY      0.049700
     46 H13C        0.0880   -0.7740   -1.5040 h1        1 RNY      0.049700
     47 H4          0.2420   -1.2080    2.0840 ha        1 RNY      0.163000
     48 H7          1.1050   -1.5280    6.6500 h5        1 RNY      0.051100
     49 H10         5.7790   -0.7400    4.3820 hn        1 RNY      0.428800
     50 H12         4.4500    0.7390    7.4060 ha        1 RNY      0.149000
     51 H14         4.6230    1.2880    9.6270 hn        1 RNY      0.323500
     52 H29         7.7870   -0.6910    9.8180 ha        1 RNY      0.175000
     53 H18         4.7440    3.4420   10.6030 ha        1 RNY      0.149000
     54 H22         5.5310    0.4790   13.6690 ha        1 RNY      0.168000
     55 H19         3.4200    4.7390   12.3110 h4        1 RNY      0.027100
     56 H241        4.1640    3.6980   16.4760 h1        1 RNY      0.055950
     57 H242        2.5150    2.9300   16.3160 h1        1 RNY      0.055950
     58 H281        2.5980    0.3510   15.4680 h1        1 RNY      0.055950
     59 H282        4.2840   -0.2820   15.1660 h1        1 RNY      0.055950
     60 H251        4.7630    2.2210   18.3480 h1        1 RNY      0.057950
     61 H252        3.0670    2.8590   18.6670 h1        1 RNY      0.057950
     62 H271        3.1990   -0.9710   17.4050 h1        1 RNY      0.057950
     63 H272        4.8460   -0.1640   17.5580 h1        1 RNY      0.057950
     64 H30         8.6280   -1.9420    7.8780 ha        1 RNY      0.136000
     65 H321        8.4650   -2.7440    5.7360 hc        1 RNY      0.042367
     66 H322        6.8160   -2.8330    4.9990 hc        1 RNY      0.042367
     67 H323        7.9290   -1.4560    4.5870 hc        1 RNY      0.042367
     68 H34         5.1190   -0.1030    2.5720 ha        1 RNY      0.138000
     69 H371        5.4890    1.3120    0.8900 h1        1 RNY      0.042700
     70 H372        6.1110   -0.3790    0.5330 h1        1 RNY      0.042700
     71 H381        6.9560    0.5700   -1.3750 h1        1 RNY      0.049700
     72 H382        5.2620    0.2470   -1.9800 h1        1 RNY      0.049700
     73 H401        6.0170    1.7060   -3.5940 h1        1 RNY      0.043950
     74 H402        4.6670    2.8810   -3.2840 h1        1 RNY      0.043950
     75 H431        5.8430    3.7710   -0.1130 h1        1 RNY      0.043950
     76 H432        7.2660    2.6450   -0.1850 h1        1 RNY      0.043950
     77 H411        7.5160    3.4520   -3.8570 hc        1 RNY      0.047700
     78 H412        6.1530    4.6180   -3.6580 hc        1 RNY      0.047700
     79 H421        8.3110    4.0080   -1.7430 hc        1 RNY      0.047700
     80 H422        6.9650    5.1940   -1.5550 hc        1 RNY      0.047700
@<TRIPOS>BOND
     1    1    2 1   
     2    1   44 1   
     3    1   45 1   
     4    1   46 1   
     5    2    3 1   
     6    3    4 ar  
     7    3   35 ar  
     8    4    5 ar  
     9    4   47 1   
    10    5    6 ar  
    11    5   33 ar  
    12    6    7 ar  
    13    7    8 ar  
    14    7   48 1   
    15    8    9 ar  
    16    9   10 1   
    17    9   33 ar  
    18   10   11 1   
    19   10   49 1   
    20   11   12 ar  
    21   11   31 ar  
    22   12   13 ar  
    23   12   50 1   
    24   13   14 1   
    25   13   29 ar  
    26   14   15 1   
    27   14   51 1   
    28   15   16 2   
    29   15   17 1   
    30   17   18 ar  
    31   17   22 ar  
    32   18   19 ar  
    33   18   53 1   
    34   19   20 ar  
    35   19   55 1   
    36   20   21 ar  
    37   21   22 ar  
    38   21   23 1   
    39   22   54 1   
    40   23   24 1   
    41   23   28 1   
    42   24   25 1   
    43   24   58 1   
    44   24   59 1   
    45   25   26 1   
    46   25   62 1   
    47   25   63 1   
    48   26   27 1   
    49   27   28 1   
    50   27   60 1   
    51   27   61 1   
    52   28   56 1   
    53   28   57 1   
    54   29   30 ar  
    55   29   52 1   
    56   30   31 ar  
    57   30   64 1   
    58   31   32 1   
    59   32   65 1   
    60   32   66 1   
    61   32   67 1   
    62   33   34 ar  
    63   34   35 ar  
    64   34   68 1   
    65   35   36 1   
    66   36   37 1   
    67   37   38 1   
    68   37   69 1   
    69   37   70 1   
    70   38   39 1   
    71   38   71 1   
    72   38   72 1   
    73   39   40 1   
    74   39   43 1   
    75   40   41 1   
    76   40   75 1   
    77   40   76 1   
    78   41   42 1   
    79   41   79 1   
    80   41   80 1   
    81   42   43 1   
    82   42   77 1   
    83   42   78 1   
    84   43   73 1   
    85   43   74 1   
@<TRIPOS>SUBSTRUCTURE
     1 RNY         1 TEMP              0 ****  ****    0 ROOT
