@<TRIPOS>MOLECULE
RNY
   80    85     1     0     0
SMALL
bcc


@<TRIPOS>ATOM
      1 C1          7.0700    4.5600   -1.0170 c3        1 RNY      0.106700
      2 O2          6.9220    3.1480   -0.8900 os        1 RNY     -0.297900
      3 C3          5.6400    2.6620   -1.0060 ca        1 RNY      0.145100
      4 C4          4.5250    3.4220   -1.2710 ca        1 RNY     -0.255300
      5 C5          3.2400    2.8050   -1.3810 ca        1 RNY      0.445600
      6 N6          2.1310    3.5950   -1.6270 nb        1 RNY     -0.713000
      7 C7          0.9660    2.9530   -1.7150 ca        1 RNY      0.661900
      8 N8          0.7250    1.6050   -1.6160 nb        1 RNY     -0.766000
      9 C9          1.7970    0.8130   -1.3810 ca        1 RNY      0.690200
     10 N10         1.6460   -0.5730   -1.2300 nh        1 RNY     -0.724300
     11 C11         0.4100   -1.2380   -1.4240 ca        1 RNY      0.160600
     12 C12        -0.7160   -0.8590   -0.6770 ca        1 RNY     -0.164000
     13 C13        -1.9390   -1.5600   -0.8020 ca        1 RNY      0.078600
     14 N14        -3.0300   -1.1130   -0.0370 n         1 RNY     -0.464100
     15 C15        -4.2950   -1.6760    0.0390 c         1 RNY      0.676700
     16 O16        -4.6370   -2.6910   -0.5930 o         1 RNY     -0.577100
     17 C17        -5.2620   -0.9670    0.9370 ca        1 RNY     -0.087600
     18 C18        -4.8930   -0.5020    2.2020 ca        1 RNY     -0.260300
     19 C19        -5.8830    0.1270    2.9760 ca        1 RNY      0.423200
     20 N20        -7.1470    0.3250    2.5780 nb        1 RNY     -0.700000
     21 C21        -7.5150   -0.1420    1.3410 ca        1 RNY      0.620200
     22 C22        -6.5730   -0.8040    0.4940 ca        1 RNY     -0.219300
     23 N23        -8.8690   -0.0550    0.9080 nh        1 RNY     -0.727300
     24 C28        -9.0480    0.5750   -0.3970 c3        1 RNY      0.149300
     25 C27       -10.5020    0.4800   -0.8790 c3        1 RNY      0.122400
     26 O26       -11.4110    0.9840    0.0920 os        1 RNY     -0.412600
     27 C25       -11.2780    0.3190    1.3430 c3        1 RNY      0.122400
     28 C24        -9.8450    0.4080    1.8860 c3        1 RNY      0.149300
     29 C29        -2.0060   -2.6640   -1.6740 ca        1 RNY     -0.163000
     30 C30        -0.8810   -3.0370   -2.4000 ca        1 RNY     -0.090000
     31 C31         0.3280   -2.3480   -2.3050 ca        1 RNY     -0.139300
     32 C32         1.4880   -2.7860   -3.1140 c3        1 RNY     -0.052800
     33 C33         3.1350    1.3880   -1.2330 ca        1 RNY     -0.280600
     34 C34         4.2930    0.6270   -0.9430 ca        1 RNY     -0.170000
     35 C35         5.5230    1.2380   -0.8260 ca        1 RNY      0.115100
     36 O36         6.7130    0.6000   -0.5600 os        1 RNY     -0.296900
     37 C37         6.6170   -0.7840   -0.2010 c3        1 RNY      0.124400
     38 C38         8.0400   -1.2020    0.1990 c3        1 RNY      0.166800
     39 N39         8.2910   -1.0890    1.6230 n3        1 RNY     -0.721600
     40 C43         7.5620   -2.0570    2.4460 c3        1 RNY      0.158800
     41 C42         8.5500   -2.8130    3.3480 c3        1 RNY     -0.094900
     42 C41         9.9240   -2.2250    3.0580 c3        1 RNY     -0.094900
     43 C40         9.7110   -1.1530    1.9770 c3        1 RNY      0.158800
     44 H11C        8.1690    4.7150   -0.8700 h1        1 RNY      0.049700
     45 H12C        6.7540    4.8980   -2.0340 h1        1 RNY      0.049700
     46 H13C        6.4850    5.0910   -0.2270 h1        1 RNY      0.049700
     47 H4          4.5950    4.5140   -1.3990 ha        1 RNY      0.163000
     48 H7          0.0620    3.5710   -1.9070 h5        1 RNY      0.051100
     49 H10         2.4410   -1.0990   -1.5280 hn        1 RNY      0.428800
     50 H12        -0.6460    0.0020    0.0090 ha        1 RNY      0.149000
     51 H14        -2.8720   -0.2810    0.4900 hn        1 RNY      0.323500
     52 H29        -2.9380   -3.2390   -1.7920 ha        1 RNY      0.175000
     53 H18        -3.8800   -0.6350    2.6020 ha        1 RNY      0.149000
     54 H22        -6.8720   -1.2160   -0.4820 ha        1 RNY      0.168000
     55 H19        -5.6470    0.5090    3.9870 h4        1 RNY      0.027100
     56 H241       -9.7710   -0.2450    2.7990 h1        1 RNY      0.055950
     57 H242       -9.6460    1.4740    2.1960 h1        1 RNY      0.055950
     58 H281       -8.7540    1.6630   -0.3630 h1        1 RNY      0.055950
     59 H282       -8.3930    0.0560   -1.1490 h1        1 RNY      0.055950
     60 H251      -11.9780    0.8670    2.0270 h1        1 RNY      0.057950
     61 H252      -11.5990   -0.7500    1.2360 h1        1 RNY      0.057950
     62 H271      -10.6500    1.1400   -1.7730 h1        1 RNY      0.057950
     63 H272      -10.7690   -0.5810   -1.1310 h1        1 RNY      0.057950
     64 H30        -0.9530   -3.9020   -3.0790 ha        1 RNY      0.136000
     65 H321        2.3080   -3.1720   -2.4570 hc        1 RNY      0.042367
     66 H322        1.1990   -3.6070   -3.8160 hc        1 RNY      0.042367
     67 H323        1.8910   -1.9400   -3.7260 hc        1 RNY      0.042367
     68 H34         4.2190   -0.4590   -0.7850 ha        1 RNY      0.138000
     69 H371        5.8780   -0.9180    0.6310 h1        1 RNY      0.042700
     70 H372        6.2900   -1.3690   -1.1000 h1        1 RNY      0.042700
     71 H381        8.1990   -2.2520   -0.1850 h1        1 RNY      0.049700
     72 H382        8.7640   -0.5200   -0.3360 h1        1 RNY      0.049700
     73 H401       10.3640   -1.3670    1.0880 h1        1 RNY      0.043950
     74 H402        9.9920   -0.1380    2.3720 h1        1 RNY      0.043950
     75 H431        6.8340   -1.4710    3.0720 h1        1 RNY      0.043950
     76 H432        6.9710   -2.7820    1.8230 h1        1 RNY      0.043950
     77 H411       10.3660   -1.7670    3.9760 hc        1 RNY      0.047700
     78 H412       10.6290   -3.0120    2.6960 hc        1 RNY      0.047700
     79 H421        8.2740   -2.6800    4.4230 hc        1 RNY      0.047700
     80 H422        8.5250   -3.9080    3.1240 hc        1 RNY      0.047700
@<TRIPOS>BOND
     1    1    2 1   
     2    1   44 1   
     3    1   45 1   
     4    1   46 1   
     5    2    3 1   
     6    3    4 ar  
     7    3   35 ar  
     8    4    5 ar  
     9    4   47 1   
    10    5    6 ar  
    11    5   33 ar  
    12    6    7 ar  
    13    7    8 ar  
    14    7   48 1   
    15    8    9 ar  
    16    9   10 1   
    17    9   33 ar  
    18   10   11 1   
    19   10   49 1   
    20   11   12 ar  
    21   11   31 ar  
    22   12   13 ar  
    23   12   50 1   
    24   13   14 1   
    25   13   29 ar  
    26   14   15 1   
    27   14   51 1   
    28   15   16 2   
    29   15   17 1   
    30   17   18 ar  
    31   17   22 ar  
    32   18   19 ar  
    33   18   53 1   
    34   19   20 ar  
    35   19   55 1   
    36   20   21 ar  
    37   21   22 ar  
    38   21   23 1   
    39   22   54 1   
    40   23   24 1   
    41   23   28 1   
    42   24   25 1   
    43   24   58 1   
    44   24   59 1   
    45   25   26 1   
    46   25   62 1   
    47   25   63 1   
    48   26   27 1   
    49   27   28 1   
    50   27   60 1   
    51   27   61 1   
    52   28   56 1   
    53   28   57 1   
    54   29   30 ar  
    55   29   52 1   
    56   30   31 ar  
    57   30   64 1   
    58   31   32 1   
    59   32   65 1   
    60   32   66 1   
    61   32   67 1   
    62   33   34 ar  
    63   34   35 ar  
    64   34   68 1   
    65   35   36 1   
    66   36   37 1   
    67   37   38 1   
    68   37   69 1   
    69   37   70 1   
    70   38   39 1   
    71   38   71 1   
    72   38   72 1   
    73   39   40 1   
    74   39   43 1   
    75   40   41 1   
    76   40   75 1   
    77   40   76 1   
    78   41   42 1   
    79   41   79 1   
    80   41   80 1   
    81   42   43 1   
    82   42   77 1   
    83   42   78 1   
    84   43   73 1   
    85   43   74 1   
@<TRIPOS>SUBSTRUCTURE
     1 RNY         1 TEMP              0 ****  ****    0 ROOT
