@<TRIPOS>MOLECULE
RNY
   82    87     1     0     0
SMALL
bcc


@<TRIPOS>ATOM
      1 C1          0.6260   -0.1490    0.4090 c3        1 RNY      0.098700
      2 O2          2.0460    0.0310    0.4810 os        1 RNY     -0.276900
      3 C3          2.5970    0.0940    1.7240 ca        1 RNY      0.176100
      4 C4          1.9150    0.0050    2.9120 ca        1 RNY     -0.258300
      5 C5          2.6120    0.0890    4.1610 ca        1 RNY      0.462600
      6 N6          1.9140    0.0190    5.3350 nb        1 RNY     -0.609000
      7 C7          2.6160    0.1150    6.4750 ca        1 RNY      0.646900
      8 N8          3.9710    0.2660    6.5960 nb        1 RNY     -0.707000
      9 C9          4.6580    0.3190    5.4380 ca        1 RNY      0.475200
     10 N10         6.1390    0.4740    5.5240 n4        1 RNY     -0.622100
     11 C11         6.7450   -0.0740    6.7440 ca        1 RNY     -0.016400
     12 C12         6.6310    0.6520    7.9440 ca        1 RNY     -0.050000
     13 C13         7.2150    0.1360    9.1100 ca        1 RNY     -0.036400
     14 N14         7.1170    0.8770   10.3680 n4        1 RNY     -0.562200
     15 C15         6.2670    0.1440   11.4320 c         1 RNY      0.590700
     16 O16         6.7220   -0.9240   11.7990 o         1 RNY     -0.401100
     17 C17         5.0820    0.8810   11.8800 ca        1 RNY     -0.100600
     18 C18         4.3220    1.6700   11.0090 ca        1 RNY     -0.334300
     19 C19         3.1900    2.3070   11.5590 ca        1 RNY      0.482200
     20 N20         2.8080    2.2230   12.8310 nb        1 RNY     -0.683000
     21 C21         3.5630    1.4590   13.7070 ca        1 RNY      0.700200
     22 C22         4.7210    0.7460   13.2200 ca        1 RNY     -0.258300
     23 N23         3.2240    1.4330   15.0470 nh        1 RNY     -0.722300
     24 C28         3.8790    0.4720   15.9170 c3        1 RNY      0.163800
     25 C27         3.5670    0.6540   17.4100 c3        1 RNY      0.115400
     26 O26         2.1880    0.8840   17.6380 os        1 RNY     -0.384600
     27 C25         1.7490    2.0640   16.9790 c3        1 RNY      0.115400
     28 C24         1.9280    1.9590   15.4590 c3        1 RNY      0.163800
     29 C29         7.8980   -1.0970    9.0810 ca        1 RNY     -0.044000
     30 C30         7.9880   -1.8010    7.8880 ca        1 RNY     -0.095000
     31 C31         7.4150   -1.3180    6.7020 ca        1 RNY      0.019700
     32 C32         7.5310   -2.1160    5.4590 c3        1 RNY     -0.108800
     33 C33         4.0530    0.2530    4.1440 ca        1 RNY     -0.201600
     34 C34         4.7380    0.3470    2.9080 ca        1 RNY     -0.287000
     35 C35         4.0430    0.2790    1.7170 ca        1 RNY      0.225100
     36 O36         4.5750    0.3700    0.4740 os        1 RNY     -0.270900
     37 C37         5.9980    0.5880    0.3690 c3        1 RNY      0.117400
     38 C38         6.2660    0.8180   -1.1270 c3        1 RNY      0.167800
     39 N39         6.0740    2.2030   -1.5120 n3        1 RNY     -0.734600
     40 C43         6.8130    2.5880   -2.7210 c3        1 RNY      0.152800
     41 C42         5.8260    3.0550   -3.8030 c3        1 RNY     -0.097900
     42 C41         4.4460    3.0170   -3.1610 c3        1 RNY     -0.097900
     43 C40         4.6700    2.5860   -1.7040 c3        1 RNY      0.152800
     44 H11C        0.1010    0.7120    0.8870 h1        1 RNY      0.071367
     45 H12C        0.3330   -1.1170    0.8830 h1        1 RNY      0.071367
     46 H13C        0.4390   -0.1710   -0.6970 h1        1 RNY      0.071367
     47 H4          0.8190   -0.1300    2.9320 ha        1 RNY      0.195000
     48 H7          2.0470    0.0640    7.4310 h5        1 RNY      0.088100
     49 H10         6.5470   -0.0040    4.7050 hn        1 RNY      0.471800
     50 H12         6.0740    1.6060    7.9650 ha        1 RNY      0.173000
     51 H14         6.7120    1.8060   10.2010 hn        1 RNY      0.470300
     52 H29         8.3470   -1.5220   10.0000 ha        1 RNY      0.196000
     53 H18         4.5280    1.7600    9.9380 ha        1 RNY      0.131000
     54 H22         5.3080    0.0900   13.8800 ha        1 RNY      0.174000
     55 H19         2.5350    2.9330   10.9170 h4        1 RNY      0.050100
     56 H241        1.1170    1.2950   15.0410 h1        1 RNY      0.067450
     57 H242        1.7960    2.9940   15.0310 h1        1 RNY      0.067450
     58 H281        3.5810   -0.5720   15.6080 h1        1 RNY      0.067450
     59 H282        4.9960    0.5790   15.8030 h1        1 RNY      0.067450
     60 H251        2.2950    2.9560   17.3840 h1        1 RNY      0.076700
     61 H252        0.6550    2.1360   17.2230 h1        1 RNY      0.076700
     62 H271        4.1730    1.4980   17.8350 h1        1 RNY      0.076700
     63 H272        3.7930   -0.2990   17.9580 h1        1 RNY      0.076700
     64 H30         8.5190   -2.7720    7.8730 ha        1 RNY      0.198000
     65 H321        8.0490   -3.0910    5.6540 hc        1 RNY      0.088033
     66 H322        6.5200   -2.3560    5.0400 hc        1 RNY      0.088033
     67 H323        8.1330   -1.5700    4.6880 hc        1 RNY      0.088033
     68 H34         5.8250    0.4970    2.8730 ha        1 RNY      0.129000
     69 H371        6.2940    1.4690    0.9930 h1        1 RNY      0.048700
     70 H372        6.5210   -0.3400    0.7170 h1        1 RNY      0.048700
     71 H381        5.6210    0.0990   -1.7110 h1        1 RNY      0.062700
     72 H382        7.3460    0.5380   -1.2960 h1        1 RNY      0.062700
     73 H401        4.4790    3.4540   -1.0140 h1        1 RNY      0.050700
     74 H402        3.9670    1.7570   -1.4180 h1        1 RNY      0.050700
     75 H431        7.4920    3.4340   -2.4230 h1        1 RNY      0.050700
     76 H432        7.4550    1.7540   -3.1140 h1        1 RNY      0.050700
     77 H411        3.9540    4.0190   -3.1990 hc        1 RNY      0.057700
     78 H412        3.7800    2.2910   -3.6870 hc        1 RNY      0.057700
     79 H421        5.8740    2.3820   -4.6940 hc        1 RNY      0.057700
     80 H422        6.0860    4.0870   -4.1430 hc        1 RNY      0.057700
     81 H102        6.3510    1.4800    5.4650 hn        1 RNY      0.471800
     82 H142        8.0680    0.9930   10.7460 hn        1 RNY      0.470300
@<TRIPOS>BOND
     1    1    2 1   
     2    1   44 1   
     3    1   45 1   
     4    1   46 1   
     5    2    3 1   
     6    3    4 ar  
     7    3   35 ar  
     8    4    5 ar  
     9    4   47 1   
    10    5    6 ar  
    11    5   33 ar  
    12    6    7 ar  
    13    7    8 ar  
    14    7   48 1   
    15    8    9 ar  
    16    9   10 1   
    17    9   33 ar  
    18   10   11 1   
    19   10   49 1   
    20   10   81 1   
    21   11   12 ar  
    22   11   31 ar  
    23   12   13 ar  
    24   12   50 1   
    25   13   14 1   
    26   13   29 ar  
    27   14   15 1   
    28   14   51 1   
    29   14   82 1   
    30   15   16 2   
    31   15   17 1   
    32   17   18 ar  
    33   17   22 ar  
    34   18   19 ar  
    35   18   53 1   
    36   19   20 ar  
    37   19   55 1   
    38   20   21 ar  
    39   21   22 ar  
    40   21   23 1   
    41   22   54 1   
    42   23   24 1   
    43   23   28 1   
    44   24   25 1   
    45   24   58 1   
    46   24   59 1   
    47   25   26 1   
    48   25   62 1   
    49   25   63 1   
    50   26   27 1   
    51   27   28 1   
    52   27   60 1   
    53   27   61 1   
    54   28   56 1   
    55   28   57 1   
    56   29   30 ar  
    57   29   52 1   
    58   30   31 ar  
    59   30   64 1   
    60   31   32 1   
    61   32   65 1   
    62   32   66 1   
    63   32   67 1   
    64   33   34 ar  
    65   34   35 ar  
    66   34   68 1   
    67   35   36 1   
    68   36   37 1   
    69   37   38 1   
    70   37   69 1   
    71   37   70 1   
    72   38   39 1   
    73   38   71 1   
    74   38   72 1   
    75   39   40 1   
    76   39   43 1   
    77   40   41 1   
    78   40   75 1   
    79   40   76 1   
    80   41   42 1   
    81   41   79 1   
    82   41   80 1   
    83   42   43 1   
    84   42   77 1   
    85   42   78 1   
    86   43   73 1   
    87   43   74 1   
@<TRIPOS>SUBSTRUCTURE
     1 RNY         1 TEMP              0 ****  ****    0 ROOT
