@<TRIPOS>MOLECULE
RO0
   78    82     1     0     0
SMALL
bcc


@<TRIPOS>ATOM
      1 C1          0.0160    0.0200    0.2620 ca        1 RO0     -0.139300
      2 C2          1.4350   -0.0510    0.2630 ca        1 RO0      0.017000
      3 C3         -0.6750   -0.0390    1.5250 ca        1 RO0      0.440600
      4 C4         -0.6740    0.1500   -0.9740 ca        1 RO0     -0.178000
      5 C5          2.1060   -0.1400    1.5170 ca        1 RO0     -0.182600
      6 C6          2.1370   -0.0240   -0.9740 ca        1 RO0     -0.189000
      7 C7         -2.1830   -0.0450    1.5520 c3        1 RO0     -0.089400
      8 N8         -0.0250   -0.1210    2.6890 nb        1 RO0     -0.679000
      9 C9          0.0160    0.1810   -2.1630 ca        1 RO0      0.116100
     10 C10         1.3340   -0.1650    2.6720 ca        1 RO0      0.384200
     11 C11         3.6000   -0.1480    1.6280 c3        1 RO0      0.220100
     12 C12         1.4530    0.0820   -2.1630 ca        1 RO0      0.131100
     13 C13        -2.7700    1.3130    1.3770 ca        1 RO0     -0.074300
     14 O14        -0.5490    0.3010   -3.4140 os        1 RO0     -0.301900
     15 N15         4.2370   -1.3800    1.1700 n3        1 RO0     -0.729600
     16 O16         2.0280    0.1130   -3.4150 os        1 RO0     -0.302900
     17 C17        -2.4210    2.3450    2.2620 ca        1 RO0     -0.168000
     18 C18        -3.7000    1.5550    0.3670 ca        1 RO0     -0.136000
     19 C19        -1.9650    0.4470   -3.4470 c3        1 RO0      0.107700
     20 C20         5.6900   -1.2580    1.1880 c3        1 RO0      0.165800
     21 C21         3.7650   -2.5580    1.8870 c3        1 RO0      0.165800
     22 C22         3.4450   -0.0260   -3.4530 c3        1 RO0      0.107700
     23 C23        -2.9940    3.6070    2.1260 ca        1 RO0      0.106100
     24 C24        -4.2860    2.8150    0.2220 ca        1 RO0     -0.180000
     25 C25         6.4060   -2.5190    0.7100 c3        1 RO0     -0.069900
     26 C26         4.4310   -3.8520    1.4250 c3        1 RO0     -0.069900
     27 C27        -3.9410    3.8480    1.0920 ca        1 RO0      0.102100
     28 O28        -2.7220    4.6880    2.9400 os        1 RO0     -0.305900
     29 C29         5.9480   -3.7360    1.5040 c3        1 RO0     -0.018400
     30 O30        -4.4500    5.1290    1.0440 os        1 RO0     -0.302900
     31 C31        -1.7580    4.4680    3.9630 c3        1 RO0      0.109700
     32 C32         6.6140   -4.9810    1.0160 ca        1 RO0     -0.096300
     33 C33        -5.4020    5.3800    0.0170 c3        1 RO0      0.110700
     34 C34         7.4560   -5.7390    1.8620 ca        1 RO0      0.126100
     35 C35         6.4230   -5.4290   -0.2940 ca        1 RO0     -0.099000
     36 C36         8.0770   -6.9060    1.4000 ca        1 RO0     -0.203000
     37 O37         7.6150   -5.2490    3.1460 os        1 RO0     -0.330900
     38 C38         7.0390   -6.5900   -0.7590 ca        1 RO0     -0.162000
     39 C39         7.8640   -7.3260    0.0880 ca        1 RO0     -0.098000
     40 C40         8.4340   -6.0170    4.0190 c3        1 RO0      0.114700
     41 H4         -1.7710    0.2500   -0.9580 ha        1 RO0      0.149000
     42 H6          3.2340   -0.1040   -0.9610 ha        1 RO0      0.161000
     43 H71        -2.5510   -0.4610    2.5330 hc        1 RO0      0.068200
     44 H72        -2.5470   -0.7410    0.7490 hc        1 RO0      0.068200
     45 H10         1.8010   -0.2290    3.6720 h4        1 RO0      0.019100
     46 H111        4.0070    0.6940    0.9940 h1        1 RO0      0.038200
     47 H112        3.8790    0.0810    2.7020 h1        1 RO0      0.038200
     48 H17        -1.6910    2.1400    3.0600 ha        1 RO0      0.156000
     49 H18        -3.9880    0.7490   -0.3240 ha        1 RO0      0.127000
     50 H191       -2.1880    0.5470   -4.5400 h1        1 RO0      0.045700
     51 H192       -2.4640   -0.4590   -3.0250 h1        1 RO0      0.045700
     52 H193       -2.2820    1.3630   -2.8920 h1        1 RO0      0.045700
     53 H201        5.9670   -0.4070    0.5020 h1        1 RO0      0.032700
     54 H202        6.0710   -1.0000    2.2200 h1        1 RO0      0.032700
     55 H211        2.6550   -2.6360    1.7080 h1        1 RO0      0.032700
     56 H212        3.9250   -2.4520    3.0010 h1        1 RO0      0.032700
     57 H221        3.7600   -0.9990   -3.0020 h1        1 RO0      0.047367
     58 H222        3.9380    0.8270   -2.9280 h1        1 RO0      0.047367
     59 H223        3.6750   -0.0030   -4.5490 h1        1 RO0      0.047367
     60 H24        -5.0190    2.9810   -0.5800 ha        1 RO0      0.137000
     61 H251        7.5080   -2.3710    0.8410 hc        1 RO0      0.050200
     62 H252        6.2070   -2.6810   -0.3810 hc        1 RO0      0.050200
     63 H261        4.0770   -4.6860    2.0830 hc        1 RO0      0.050200
     64 H262        4.1210   -4.0870    0.3740 hc        1 RO0      0.050200
     65 H29         6.2270   -3.5690    2.5860 hc        1 RO0      0.072700
     66 H311       -0.7710    4.1830    3.5240 h1        1 RO0      0.045033
     67 H312       -1.6920    5.4630    4.4720 h1        1 RO0      0.045033
     68 H313       -2.1100    3.6840    4.6760 h1        1 RO0      0.045033
     69 H331       -5.6700    6.4570    0.1710 h1        1 RO0      0.043033
     70 H332       -6.3020    4.7290    0.1420 h1        1 RO0      0.043033
     71 H333       -4.9470    5.2280   -0.9920 h1        1 RO0      0.043033
     72 H35         5.7710   -4.8520   -0.9680 ha        1 RO0      0.137000
     73 H36         8.7310   -7.4960    2.0570 ha        1 RO0      0.136000
     74 H38         6.8720   -6.9220   -1.7930 ha        1 RO0      0.133000
     75 H39         8.3520   -8.2420   -0.2750 ha        1 RO0      0.132000
     76 H401        8.0140   -7.0430    4.1580 h1        1 RO0      0.044033
     77 H402        8.3980   -5.4440    4.9800 h1        1 RO0      0.044033
     78 H403        9.4810   -6.0710    3.6330 h1        1 RO0      0.044033
@<TRIPOS>BOND
     1    1    2 ar  
     2    1    3 ar  
     3    1    4 ar  
     4    2    5 ar  
     5    2    6 ar  
     6    3    7 1   
     7    3    8 ar  
     8    4    9 ar  
     9    4   41 1   
    10    5   10 ar  
    11    5   11 1   
    12    6   12 ar  
    13    6   42 1   
    14    7   13 1   
    15    7   43 1   
    16    7   44 1   
    17    8   10 ar  
    18    9   12 ar  
    19    9   14 1   
    20   10   45 1   
    21   11   15 1   
    22   11   46 1   
    23   11   47 1   
    24   12   16 1   
    25   13   17 ar  
    26   13   18 ar  
    27   14   19 1   
    28   15   20 1   
    29   15   21 1   
    30   16   22 1   
    31   17   23 ar  
    32   17   48 1   
    33   18   24 ar  
    34   18   49 1   
    35   19   50 1   
    36   19   51 1   
    37   19   52 1   
    38   20   25 1   
    39   20   53 1   
    40   20   54 1   
    41   21   26 1   
    42   21   55 1   
    43   21   56 1   
    44   22   57 1   
    45   22   58 1   
    46   22   59 1   
    47   23   27 ar  
    48   23   28 1   
    49   24   27 ar  
    50   24   60 1   
    51   25   29 1   
    52   25   61 1   
    53   25   62 1   
    54   26   29 1   
    55   26   63 1   
    56   26   64 1   
    57   27   30 1   
    58   28   31 1   
    59   29   32 1   
    60   29   65 1   
    61   30   33 1   
    62   31   66 1   
    63   31   67 1   
    64   31   68 1   
    65   32   34 ar  
    66   32   35 ar  
    67   33   69 1   
    68   33   70 1   
    69   33   71 1   
    70   34   36 ar  
    71   34   37 1   
    72   35   38 ar  
    73   35   72 1   
    74   36   39 ar  
    75   36   73 1   
    76   37   40 1   
    77   38   39 ar  
    78   38   74 1   
    79   39   75 1   
    80   40   76 1   
    81   40   77 1   
    82   40   78 1   
@<TRIPOS>SUBSTRUCTURE
     1 RO0         1 TEMP              0 ****  ****    0 ROOT
