@<TRIPOS>MOLECULE
RO0
   78    82     1     0     0
SMALL
bcc


@<TRIPOS>ATOM
      1 C1          0.0180    0.0230    0.2720 ca        1 RO0     -0.139300
      2 C2          1.4370   -0.0500    0.2720 ca        1 RO0      0.017000
      3 C3         -0.6710   -0.0340    1.5360 ca        1 RO0      0.440600
      4 C4         -0.6740    0.1530   -0.9620 ca        1 RO0     -0.178000
      5 C5          2.1090   -0.1390    1.5250 ca        1 RO0     -0.182600
      6 C6          2.1370   -0.0240   -0.9660 ca        1 RO0     -0.189000
      7 C7         -2.1800   -0.0370    1.5650 c3        1 RO0     -0.089400
      8 N8         -0.0210   -0.1150    2.7000 nb        1 RO0     -0.679000
      9 C9          0.0150    0.1820   -2.1520 ca        1 RO0      0.116100
     10 C10         1.3380   -0.1610    2.6810 ca        1 RO0      0.384200
     11 C11         3.6040   -0.1490    1.6340 c3        1 RO0      0.220100
     12 C12         1.4520    0.0810   -2.1540 ca        1 RO0      0.131100
     13 C13        -2.7660    1.3210    1.3820 ca        1 RO0     -0.074300
     14 O14        -0.5520    0.3010   -3.4040 os        1 RO0     -0.301900
     15 N15         4.2370   -1.3810    1.1750 n3        1 RO0     -0.729600
     16 O16         2.0250    0.1100   -3.4070 os        1 RO0     -0.302900
     17 C17        -2.4090    2.3590    2.2550 ca        1 RO0     -0.168000
     18 C18        -3.7020    1.5540    0.3760 ca        1 RO0     -0.136000
     19 C19        -1.9670    0.4490   -3.4340 c3        1 RO0      0.107700
     20 C20         5.6910   -1.2630    1.1930 c3        1 RO0      0.165800
     21 C21         3.7630   -2.5600    1.8890 c3        1 RO0      0.165800
     22 C22         3.4420   -0.0300   -3.4470 c3        1 RO0      0.107700
     23 C23        -2.9820    3.6210    2.1120 ca        1 RO0      0.106100
     24 C24        -4.2870    2.8140    0.2240 ca        1 RO0     -0.180000
     25 C25         6.4040   -2.5240    0.7130 c3        1 RO0     -0.069900
     26 C26         4.4260   -3.8540    1.4240 c3        1 RO0     -0.069900
     27 C27        -3.9350    3.8540    1.0820 ca        1 RO0      0.102100
     28 O28        -2.7030    4.7090    2.9130 os        1 RO0     -0.305900
     29 C29         5.9440   -3.7420    1.5040 c3        1 RO0     -0.018400
     30 O30        -4.4430    5.1360    1.0250 os        1 RO0     -0.302900
     31 C31        -1.7290    4.4980    3.9310 c3        1 RO0      0.109700
     32 C32         6.6070   -4.9880    1.0130 ca        1 RO0     -0.096300
     33 C33        -5.4030    5.3780    0.0030 c3        1 RO0      0.110700
     34 C34         7.4460   -5.7500    1.8570 ca        1 RO0      0.126100
     35 C35         6.4150   -5.4310   -0.2980 ca        1 RO0     -0.099000
     36 C36         8.0650   -6.9180    1.3930 ca        1 RO0     -0.203000
     37 O37         7.6060   -5.2640    3.1430 os        1 RO0     -0.330900
     38 C38         7.0290   -6.5930   -0.7660 ca        1 RO0     -0.162000
     39 C39         7.8510   -7.3330    0.0790 ca        1 RO0     -0.098000
     40 C40         8.4220   -6.0370    4.0140 c3        1 RO0      0.114700
     41 H4         -1.7700    0.2540   -0.9460 ha        1 RO0      0.149000
     42 H6          3.2340   -0.1060   -0.9540 ha        1 RO0      0.161000
     43 H71        -2.5450   -0.7380    0.7670 hc        1 RO0      0.068200
     44 H72        -2.5470   -0.4470    2.5490 hc        1 RO0      0.068200
     45 H10         1.8070   -0.2240    3.6800 h4        1 RO0      0.019100
     46 H111        3.8840    0.0780    2.7080 h1        1 RO0      0.038200
     47 H112        4.0110    0.6920    1.0000 h1        1 RO0      0.038200
     48 H17        -1.6740    2.1610    3.0500 ha        1 RO0      0.156000
     49 H18        -3.9960    0.7420   -0.3060 ha        1 RO0      0.127000
     50 H191       -2.2820    1.3670   -2.8810 h1        1 RO0      0.045700
     51 H192       -2.1910    0.5480   -4.5270 h1        1 RO0      0.045700
     52 H193       -2.4670   -0.4560   -3.0100 h1        1 RO0      0.045700
     53 H201        5.9700   -0.4110    0.5100 h1        1 RO0      0.032700
     54 H202        6.0720   -1.0080    2.2270 h1        1 RO0      0.032700
     55 H211        2.6530   -2.6360    1.7100 h1        1 RO0      0.032700
     56 H212        3.9230   -2.4570    3.0030 h1        1 RO0      0.032700
     57 H221        3.9360    0.8240   -2.9220 h1        1 RO0      0.047367
     58 H222        3.7570   -1.0020   -2.9950 h1        1 RO0      0.047367
     59 H223        3.6710   -0.0080   -4.5420 h1        1 RO0      0.047367
     60 H24        -5.0260    2.9730   -0.5750 ha        1 RO0      0.137000
     61 H251        6.2060   -2.6840   -0.3780 hc        1 RO0      0.050200
     62 H252        7.5070   -2.3790    0.8450 hc        1 RO0      0.050200
     63 H261        4.1160   -4.0860    0.3730 hc        1 RO0      0.050200
     64 H262        4.0700   -4.6890    2.0800 hc        1 RO0      0.050200
     65 H29         6.2220   -3.5790    2.5860 hc        1 RO0      0.072700
     66 H311       -2.0760    3.7210    4.6540 h1        1 RO0      0.045033
     67 H312       -1.6580    5.4980    4.4290 h1        1 RO0      0.045033
     68 H313       -0.7470    4.2080    3.4850 h1        1 RO0      0.045033
     69 H331       -6.3020    4.7290    0.1410 h1        1 RO0      0.043033
     70 H332       -5.6680    6.4560    0.1490 h1        1 RO0      0.043033
     71 H333       -4.9550    5.2170   -1.0070 h1        1 RO0      0.043033
     72 H35         5.7640   -4.8510   -0.9710 ha        1 RO0      0.137000
     73 H36         8.7160   -7.5110    2.0480 ha        1 RO0      0.136000
     74 H38         6.8610   -6.9220   -1.8010 ha        1 RO0      0.133000
     75 H39         8.3370   -8.2500   -0.2860 ha        1 RO0      0.132000
     76 H401        7.9990   -7.0620    4.1500 h1        1 RO0      0.044033
     77 H402        8.3870   -5.4660    4.9770 h1        1 RO0      0.044033
     78 H403        9.4690   -6.0930    3.6290 h1        1 RO0      0.044033
@<TRIPOS>BOND
     1    1    2 ar  
     2    1    3 ar  
     3    1    4 ar  
     4    2    5 ar  
     5    2    6 ar  
     6    3    7 1   
     7    3    8 ar  
     8    4    9 ar  
     9    4   41 1   
    10    5   10 ar  
    11    5   11 1   
    12    6   12 ar  
    13    6   42 1   
    14    7   13 1   
    15    7   43 1   
    16    7   44 1   
    17    8   10 ar  
    18    9   12 ar  
    19    9   14 1   
    20   10   45 1   
    21   11   15 1   
    22   11   46 1   
    23   11   47 1   
    24   12   16 1   
    25   13   17 ar  
    26   13   18 ar  
    27   14   19 1   
    28   15   20 1   
    29   15   21 1   
    30   16   22 1   
    31   17   23 ar  
    32   17   48 1   
    33   18   24 ar  
    34   18   49 1   
    35   19   50 1   
    36   19   51 1   
    37   19   52 1   
    38   20   25 1   
    39   20   53 1   
    40   20   54 1   
    41   21   26 1   
    42   21   55 1   
    43   21   56 1   
    44   22   57 1   
    45   22   58 1   
    46   22   59 1   
    47   23   27 ar  
    48   23   28 1   
    49   24   27 ar  
    50   24   60 1   
    51   25   29 1   
    52   25   61 1   
    53   25   62 1   
    54   26   29 1   
    55   26   63 1   
    56   26   64 1   
    57   27   30 1   
    58   28   31 1   
    59   29   32 1   
    60   29   65 1   
    61   30   33 1   
    62   31   66 1   
    63   31   67 1   
    64   31   68 1   
    65   32   34 ar  
    66   32   35 ar  
    67   33   69 1   
    68   33   70 1   
    69   33   71 1   
    70   34   36 ar  
    71   34   37 1   
    72   35   38 ar  
    73   35   72 1   
    74   36   39 ar  
    75   36   73 1   
    76   37   40 1   
    77   38   39 ar  
    78   38   74 1   
    79   39   75 1   
    80   40   76 1   
    81   40   77 1   
    82   40   78 1   
@<TRIPOS>SUBSTRUCTURE
     1 RO0         1 TEMP              0 ****  ****    0 ROOT
