@<TRIPOS>MOLECULE
RO0
   78    82     1     0     0
SMALL
bcc


@<TRIPOS>ATOM
      1 C1         -1.6880    0.3420   -0.4990 ca        1 RO0     -0.139300
      2 C2         -0.5400    0.3220    0.3400 ca        1 RO0      0.017000
      3 C3         -2.1510   -0.9030   -1.0550 ca        1 RO0      0.440600
      4 C4         -2.3410    1.5770   -0.7570 ca        1 RO0     -0.178000
      5 C5          0.0730   -0.9330    0.6170 ca        1 RO0     -0.182600
      6 C6         -0.0480    1.5440    0.8770 ca        1 RO0     -0.189000
      7 C7         -3.3190   -0.9060   -2.0100 c3        1 RO0     -0.089400
      8 N8         -1.5620   -2.0710   -0.7810 nb        1 RO0     -0.679000
      9 C9         -1.8580    2.7500   -0.2260 ca        1 RO0      0.116100
     10 C10        -0.4790   -2.0720    0.0410 ca        1 RO0      0.384200
     11 C11         1.2430   -1.0680    1.5430 c3        1 RO0      0.220100
     12 C12        -0.6800    2.7340    0.6020 ca        1 RO0      0.131100
     13 C13        -4.6340   -0.8030   -1.3180 ca        1 RO0     -0.074300
     14 O14        -2.4080    4.0000   -0.4140 os        1 RO0     -0.301900
     15 N15         2.4980   -0.5390    1.0180 n3        1 RO0     -0.729600
     16 O16        -0.2880    3.9710    1.0630 os        1 RO0     -0.302900
     17 C17        -4.9870   -1.7490   -0.3440 ca        1 RO0     -0.168000
     18 C18        -5.5370    0.2010   -1.6640 ca        1 RO0     -0.136000
     19 C19        -3.6010    4.0460   -1.1890 c3        1 RO0      0.107700
     20 C20         3.5520   -0.5900    2.0250 c3        1 RO0      0.165800
     21 C21         2.8920   -1.1650   -0.2380 c3        1 RO0      0.165800
     22 C22         0.8990    3.9960    1.8500 c3        1 RO0      0.107700
     23 C23        -6.2300   -1.6800    0.2810 ca        1 RO0      0.106100
     24 C24        -6.7880    0.2800   -1.0490 ca        1 RO0     -0.180000
     25 C25         4.8870   -0.0400    1.5280 c3        1 RO0     -0.069900
     26 C26         4.2090   -0.6280   -0.7920 c3        1 RO0     -0.069900
     27 C27        -7.1460   -0.6510   -0.0750 ca        1 RO0      0.102100
     28 O28        -6.6760   -2.5570    1.2490 os        1 RO0     -0.305900
     29 C29         5.3180   -0.7410    0.2460 c3        1 RO0     -0.018400
     30 O30        -8.3490   -0.6710    0.6000 os        1 RO0     -0.302900
     31 C31        -5.7590   -3.5750    1.6350 c3        1 RO0      0.109700
     32 C32         6.6040   -0.1800   -0.2690 ca        1 RO0     -0.096300
     33 C33        -9.2760    0.3490    0.2470 c3        1 RO0      0.110700
     34 C34         7.7600   -0.9870   -0.3830 ca        1 RO0      0.126100
     35 C35         6.6970    1.1600   -0.6520 ca        1 RO0     -0.099000
     36 C36         8.9620   -0.4560   -0.8680 ca        1 RO0     -0.203000
     37 O37         7.6130   -2.3040    0.0140 os        1 RO0     -0.330900
     38 C38         7.8920    1.6930   -1.1350 ca        1 RO0     -0.162000
     39 C39         9.0210    0.8850   -1.2420 ca        1 RO0     -0.098000
     40 C40         8.7590   -3.1360   -0.1240 c3        1 RO0      0.114700
     41 H4         -3.2550    1.5730   -1.3710 ha        1 RO0      0.149000
     42 H6          0.8550    1.5180    1.5050 ha        1 RO0      0.161000
     43 H71        -3.3180   -1.8540   -2.6200 hc        1 RO0      0.068200
     44 H72        -3.1840   -0.0570   -2.7330 hc        1 RO0      0.068200
     45 H10        -0.0470   -3.0730    0.2260 h4        1 RO0      0.019100
     46 H111        1.0110   -0.4980    2.4910 h1        1 RO0      0.038200
     47 H112        1.3480   -2.1590    1.8290 h1        1 RO0      0.038200
     48 H17        -4.2690   -2.5420   -0.0830 ha        1 RO0      0.156000
     49 H18        -5.2720    0.9410   -2.4350 ha        1 RO0      0.127000
     50 H191       -4.4080    3.4380   -0.7120 h1        1 RO0      0.045700
     51 H192       -3.8690    5.1330   -1.1850 h1        1 RO0      0.045700
     52 H193       -3.4080    3.6910   -2.2300 h1        1 RO0      0.045700
     53 H201        3.2120    0.0300    2.9020 h1        1 RO0      0.032700
     54 H202        3.7160   -1.6450    2.3980 h1        1 RO0      0.032700
     55 H211        2.9830   -2.2870   -0.1260 h1        1 RO0      0.032700
     56 H212        2.0730   -0.9620   -0.9850 h1        1 RO0      0.032700
     57 H221        1.7680    3.6050    1.2680 h1        1 RO0      0.047367
     58 H222        1.0320    5.0840    2.0800 h1        1 RO0      0.047367
     59 H223        0.7600    3.4080    2.7890 h1        1 RO0      0.047367
     60 H24        -7.4840    1.0790   -1.3410 ha        1 RO0      0.137000
     61 H251        4.8020    1.0620    1.3470 hc        1 RO0      0.050200
     62 H252        5.6550   -0.2000    2.3280 hc        1 RO0      0.050200
     63 H261        4.0840    0.4420   -1.1020 hc        1 RO0      0.050200
     64 H262        4.4770   -1.2210   -1.7040 hc        1 RO0      0.050200
     65 H29         5.4620   -1.8360    0.4810 hc        1 RO0      0.072700
     66 H311       -5.5180   -4.2390    0.7700 h1        1 RO0      0.045033
     67 H312       -4.8260   -3.1290    2.0580 h1        1 RO0      0.045033
     68 H313       -6.3190   -4.1400    2.4230 h1        1 RO0      0.045033
     69 H331       -8.8550    1.3600    0.4670 h1        1 RO0      0.043033
     70 H332       -9.5610    0.2700   -0.8310 h1        1 RO0      0.043033
     71 H333      -10.1570    0.1360    0.9050 h1        1 RO0      0.043033
     72 H35         5.8080    1.8050   -0.5710 ha        1 RO0      0.137000
     73 H36         9.8600   -1.0830   -0.9570 ha        1 RO0      0.136000
     74 H38         7.9400    2.7510   -1.4310 ha        1 RO0      0.133000
     75 H39         9.9650    1.3010   -1.6230 ha        1 RO0      0.132000
     76 H401        9.0790   -3.1960   -1.1920 h1        1 RO0      0.044033
     77 H402        9.5950   -2.7660    0.5170 h1        1 RO0      0.044033
     78 H403        8.3990   -4.1330    0.2360 h1        1 RO0      0.044033
@<TRIPOS>BOND
     1    1    2 ar  
     2    1    3 ar  
     3    1    4 ar  
     4    2    5 ar  
     5    2    6 ar  
     6    3    7 1   
     7    3    8 ar  
     8    4    9 ar  
     9    4   41 1   
    10    5   10 ar  
    11    5   11 1   
    12    6   12 ar  
    13    6   42 1   
    14    7   13 1   
    15    7   43 1   
    16    7   44 1   
    17    8   10 ar  
    18    9   12 ar  
    19    9   14 1   
    20   10   45 1   
    21   11   15 1   
    22   11   46 1   
    23   11   47 1   
    24   12   16 1   
    25   13   17 ar  
    26   13   18 ar  
    27   14   19 1   
    28   15   20 1   
    29   15   21 1   
    30   16   22 1   
    31   17   23 ar  
    32   17   48 1   
    33   18   24 ar  
    34   18   49 1   
    35   19   50 1   
    36   19   51 1   
    37   19   52 1   
    38   20   25 1   
    39   20   53 1   
    40   20   54 1   
    41   21   26 1   
    42   21   55 1   
    43   21   56 1   
    44   22   57 1   
    45   22   58 1   
    46   22   59 1   
    47   23   27 ar  
    48   23   28 1   
    49   24   27 ar  
    50   24   60 1   
    51   25   29 1   
    52   25   61 1   
    53   25   62 1   
    54   26   29 1   
    55   26   63 1   
    56   26   64 1   
    57   27   30 1   
    58   28   31 1   
    59   29   32 1   
    60   29   65 1   
    61   30   33 1   
    62   31   66 1   
    63   31   67 1   
    64   31   68 1   
    65   32   34 ar  
    66   32   35 ar  
    67   33   69 1   
    68   33   70 1   
    69   33   71 1   
    70   34   36 ar  
    71   34   37 1   
    72   35   38 ar  
    73   35   72 1   
    74   36   39 ar  
    75   36   73 1   
    76   37   40 1   
    77   38   39 ar  
    78   38   74 1   
    79   39   75 1   
    80   40   76 1   
    81   40   77 1   
    82   40   78 1   
@<TRIPOS>SUBSTRUCTURE
     1 RO0         1 TEMP              0 ****  ****    0 ROOT
