@<TRIPOS>MOLECULE
RO0
   78    82     1     0     0
SMALL
bcc


@<TRIPOS>ATOM
      1 C1          0.0180    0.0230    0.2710 ca        1 RO0     -0.139300
      2 C2          1.4370   -0.0490    0.2730 ca        1 RO0      0.017000
      3 C3         -0.6730   -0.0360    1.5340 ca        1 RO0      0.440600
      4 C4         -0.6720    0.1550   -0.9640 ca        1 RO0     -0.178000
      5 C5          2.1080   -0.1410    1.5260 ca        1 RO0     -0.182600
      6 C6          2.1390   -0.0210   -0.9650 ca        1 RO0     -0.189000
      7 C7         -2.1810   -0.0400    1.5610 c3        1 RO0     -0.089400
      8 N8         -0.0240   -0.1200    2.6980 nb        1 RO0     -0.679000
      9 C9          0.0180    0.1870   -2.1530 ca        1 RO0      0.116100
     10 C10         1.3350   -0.1650    2.6810 ca        1 RO0      0.384200
     11 C11         3.6020   -0.1510    1.6370 c3        1 RO0      0.220100
     12 C12         1.4550    0.0870   -2.1540 ca        1 RO0      0.131100
     13 C13        -2.7680    1.3180    1.3810 ca        1 RO0     -0.074300
     14 O14        -0.5470    0.3080   -3.4050 os        1 RO0     -0.301900
     15 N15         4.2370   -1.3820    1.1760 n3        1 RO0     -0.729600
     16 O16         2.0300    0.1180   -3.4050 os        1 RO0     -0.302900
     17 C17        -2.4120    2.3540    2.2570 ca        1 RO0     -0.168000
     18 C18        -3.7020    1.5540    0.3740 ca        1 RO0     -0.136000
     19 C19        -1.9620    0.4560   -3.4380 c3        1 RO0      0.107700
     20 C20         5.6910   -1.2620    1.1960 c3        1 RO0      0.165800
     21 C21         3.7620   -2.5620    1.8870 c3        1 RO0      0.165800
     22 C22         3.4470   -0.0220   -3.4440 c3        1 RO0      0.107700
     23 C23        -2.9850    3.6160    2.1160 ca        1 RO0      0.106100
     24 C24        -4.2870    2.8140    0.2240 ca        1 RO0     -0.180000
     25 C25         6.4050   -2.5230    0.7150 c3        1 RO0     -0.069900
     26 C26         4.4260   -3.8550    1.4210 c3        1 RO0     -0.069900
     27 C27        -3.9360    3.8520    1.0860 ca        1 RO0      0.102100
     28 O28        -2.7080    4.7020    2.9220 os        1 RO0     -0.305900
     29 C29         5.9430   -3.7420    1.5030 c3        1 RO0     -0.018400
     30 O30        -4.4450    5.1340    1.0320 os        1 RO0     -0.302900
     31 C31        -1.7360    4.4890    3.9400 c3        1 RO0      0.109700
     32 C32         6.6080   -4.9870    1.0100 ca        1 RO0     -0.096300
     33 C33        -5.4030    5.3790    0.0090 c3        1 RO0      0.110700
     34 C34         7.4460   -5.7510    1.8540 ca        1 RO0      0.126100
     35 C35         6.4170   -5.4290   -0.3010 ca        1 RO0     -0.099000
     36 C36         8.0660   -6.9170    1.3880 ca        1 RO0     -0.203000
     37 O37         7.6050   -5.2670    3.1410 os        1 RO0     -0.330900
     38 C38         7.0320   -6.5890   -0.7710 ca        1 RO0     -0.162000
     39 C39         7.8540   -7.3300    0.0740 ca        1 RO0     -0.098000
     40 C40         8.4210   -6.0400    4.0110 c3        1 RO0      0.114700
     41 H4         -1.7680    0.2560   -0.9490 ha        1 RO0      0.149000
     42 H6          3.2360   -0.1020   -0.9520 ha        1 RO0      0.161000
     43 H71        -2.5500   -0.4520    2.5430 hc        1 RO0      0.068200
     44 H72        -2.5460   -0.7390    0.7600 hc        1 RO0      0.068200
     45 H10         1.8020   -0.2300    3.6810 h4        1 RO0      0.019100
     46 H111        3.8810    0.0740    2.7120 h1        1 RO0      0.038200
     47 H112        4.0100    0.6920    1.0050 h1        1 RO0      0.038200
     48 H17        -1.6790    2.1540    3.0530 ha        1 RO0      0.156000
     49 H18        -3.9940    0.7440   -0.3110 ha        1 RO0      0.127000
     50 H191       -2.2780    1.3720   -2.8820 h1        1 RO0      0.045700
     51 H192       -2.4630   -0.4500   -3.0160 h1        1 RO0      0.045700
     52 H193       -2.1850    0.5580   -4.5300 h1        1 RO0      0.045700
     53 H201        5.9700   -0.4100    0.5150 h1        1 RO0      0.032700
     54 H202        6.0700   -1.0090    2.2310 h1        1 RO0      0.032700
     55 H211        3.9210   -2.4610    3.0020 h1        1 RO0      0.032700
     56 H212        2.6520   -2.6380    1.7070 h1        1 RO0      0.032700
     57 H221        3.9400    0.8310   -2.9170 h1        1 RO0      0.047367
     58 H222        3.6770    0.0030   -4.5390 h1        1 RO0      0.047367
     59 H223        3.7610   -0.9950   -2.9940 h1        1 RO0      0.047367
     60 H24        -5.0240    2.9750   -0.5750 ha        1 RO0      0.137000
     61 H251        6.2070   -2.6810   -0.3770 hc        1 RO0      0.050200
     62 H252        7.5070   -2.3780    0.8470 hc        1 RO0      0.050200
     63 H261        4.1170   -4.0850    0.3690 hc        1 RO0      0.050200
     64 H262        4.0700   -4.6910    2.0750 hc        1 RO0      0.050200
     65 H29         6.2210   -3.5810    2.5860 hc        1 RO0      0.072700
     66 H311       -1.6660    5.4870    4.4410 h1        1 RO0      0.045033
     67 H312       -2.0840    3.7090    4.6610 h1        1 RO0      0.045033
     68 H313       -0.7530    4.2000    3.4950 h1        1 RO0      0.045033
     69 H331       -4.9530    5.2200   -1.0020 h1        1 RO0      0.043033
     70 H332       -6.3020    4.7290    0.1430 h1        1 RO0      0.043033
     71 H333       -5.6690    6.4560    0.1570 h1        1 RO0      0.043033
     72 H35         5.7670   -4.8480   -0.9740 ha        1 RO0      0.137000
     73 H36         8.7170   -7.5110    2.0430 ha        1 RO0      0.136000
     74 H38         6.8650   -6.9170   -1.8070 ha        1 RO0      0.133000
     75 H39         8.3400   -8.2460   -0.2920 ha        1 RO0      0.132000
     76 H401        7.9980   -7.0660    4.1450 h1        1 RO0      0.044033
     77 H402        9.4680   -6.0950    3.6260 h1        1 RO0      0.044033
     78 H403        8.3850   -5.4710    4.9740 h1        1 RO0      0.044033
@<TRIPOS>BOND
     1    1    2 ar  
     2    1    3 ar  
     3    1    4 ar  
     4    2    5 ar  
     5    2    6 ar  
     6    3    7 1   
     7    3    8 ar  
     8    4    9 ar  
     9    4   41 1   
    10    5   10 ar  
    11    5   11 1   
    12    6   12 ar  
    13    6   42 1   
    14    7   13 1   
    15    7   43 1   
    16    7   44 1   
    17    8   10 ar  
    18    9   12 ar  
    19    9   14 1   
    20   10   45 1   
    21   11   15 1   
    22   11   46 1   
    23   11   47 1   
    24   12   16 1   
    25   13   17 ar  
    26   13   18 ar  
    27   14   19 1   
    28   15   20 1   
    29   15   21 1   
    30   16   22 1   
    31   17   23 ar  
    32   17   48 1   
    33   18   24 ar  
    34   18   49 1   
    35   19   50 1   
    36   19   51 1   
    37   19   52 1   
    38   20   25 1   
    39   20   53 1   
    40   20   54 1   
    41   21   26 1   
    42   21   55 1   
    43   21   56 1   
    44   22   57 1   
    45   22   58 1   
    46   22   59 1   
    47   23   27 ar  
    48   23   28 1   
    49   24   27 ar  
    50   24   60 1   
    51   25   29 1   
    52   25   61 1   
    53   25   62 1   
    54   26   29 1   
    55   26   63 1   
    56   26   64 1   
    57   27   30 1   
    58   28   31 1   
    59   29   32 1   
    60   29   65 1   
    61   30   33 1   
    62   31   66 1   
    63   31   67 1   
    64   31   68 1   
    65   32   34 ar  
    66   32   35 ar  
    67   33   69 1   
    68   33   70 1   
    69   33   71 1   
    70   34   36 ar  
    71   34   37 1   
    72   35   38 ar  
    73   35   72 1   
    74   36   39 ar  
    75   36   73 1   
    76   37   40 1   
    77   38   39 ar  
    78   38   74 1   
    79   39   75 1   
    80   40   76 1   
    81   40   77 1   
    82   40   78 1   
@<TRIPOS>SUBSTRUCTURE
     1 RO0         1 TEMP              0 ****  ****    0 ROOT
