@<TRIPOS>MOLECULE
RO2
   55    60     1     0     0
SMALL
bcc


@<TRIPOS>ATOM
      1 C1          0.1120   -0.1110   -0.2860 ca        1 RO2     -0.141000
      2 C3          1.5080   -0.2570   -0.2410 ca        1 RO2      0.122100
      3 O3          2.1500   -0.3800   -1.4520 oh        1 RO2     -0.494100
      4 C4          2.1970   -0.2690    0.9790 ca        1 RO2     -0.169000
      5 C2          1.4730   -0.1360    2.1690 ca        1 RO2     -0.079900
      6 C6          0.0800    0.0010    2.1350 ca        1 RO2     -0.152000
      7 C5         -0.5880    0.0140    0.9090 ca        1 RO2     -0.100000
      8 C7          2.1930   -0.1500    3.4470 cc        1 RO2      0.475400
      9 N1          1.7390    0.5860    4.5670 na        1 RO2     -0.271300
     10 C8          2.6520    0.3510    5.5960 ca        1 RO2     -0.081200
     11 C9          3.6520   -0.5470    5.0410 ca        1 RO2      0.081400
     12 N2          3.3350   -0.8340    3.7030 nd        1 RO2     -0.561100
     13 C10         4.7090   -0.9790    5.8570 ca        1 RO2     -0.073000
     14 C11         4.7670   -0.5230    7.1620 ca        1 RO2     -0.141000
     15 C12         3.7960    0.3610    7.6870 ca        1 RO2     -0.108900
     16 C13         2.7230    0.8060    6.9170 ca        1 RO2     -0.079000
     17 C14         3.9030    0.8220    9.0760 cc        1 RO2      0.480400
     18 N3          2.8560    1.1050    9.8880 nd        1 RO2     -0.626700
     19 C15         3.4340    1.5220   11.1160 ca        1 RO2      0.548300
     20 C16         4.8930    1.4700   10.9900 ca        1 RO2     -0.206500
     21 N4          5.1570    1.0230    9.6980 na        1 RO2     -0.269300
     22 C17         5.6920    1.8320   12.0790 ca        1 RO2     -0.083000
     23 C18         5.0420    2.2250   13.2330 ca        1 RO2     -0.234300
     24 C19         3.6020    2.2590   13.2950 ca        1 RO2      0.598200
     25 N7          2.8030    1.9240   12.2490 nb        1 RO2     -0.650000
     26 N5          3.0270    2.6070   14.5630 nh        1 RO2     -0.727300
     27 C21         1.6270    2.2490   14.7590 c3        1 RO2      0.178800
     28 C22         1.1650    2.5290   16.2040 c3        1 RO2      0.166300
     29 N6          1.4510    3.8880   16.6420 n3        1 RO2     -0.733600
     30 C23         2.8350    4.2680   16.4040 c3        1 RO2      0.166300
     31 C24         3.2980    3.9840   14.9610 c3        1 RO2      0.178800
     32 C25         1.0390    4.1270   18.0060 c3        1 RO2      0.158100
     33 H1         -0.4040   -0.1030   -1.2570 ha        1 RO2      0.155000
     34 HO3         3.0950   -0.5050   -1.2800 ho        1 RO2      0.424000
     35 H4          3.2910   -0.3900    1.0000 ha        1 RO2      0.158000
     36 H6         -0.5020    0.0790    3.0640 ha        1 RO2      0.134000
     37 H5         -1.6840    0.1210    0.8890 ha        1 RO2      0.141000
     38 HN1         0.9380    1.1560    4.6080 hn        1 RO2      0.312700
     39 H10         5.4680   -1.6700    5.4610 ha        1 RO2      0.152000
     40 H11         5.5810   -0.8820    7.8100 ha        1 RO2      0.132000
     41 H13         1.9600    1.4810    7.3320 ha        1 RO2      0.164000
     42 HN4         6.0420    0.9010    9.2850 hn        1 RO2      0.309700
     43 H17         6.7890    1.8000   12.0250 ha        1 RO2      0.140000
     44 H18         5.6290    2.4980   14.1220 ha        1 RO2      0.150000
     45 H211        0.9470    2.8040   14.0500 h1        1 RO2      0.051700
     46 H212        1.5150    1.1470   14.5660 h1        1 RO2      0.051700
     47 H221        0.0490    2.3870   16.2350 h1        1 RO2      0.037450
     48 H222        1.6310    1.7630   16.8900 h1        1 RO2      0.037450
     49 H231        3.5400    3.7510   17.1190 h1        1 RO2      0.037450
     50 H232        2.9210    5.3780   16.5760 h1        1 RO2      0.037450
     51 H241        4.4080    4.1620   14.9140 h1        1 RO2      0.051700
     52 H242        2.7950    4.7190   14.2670 h1        1 RO2      0.051700
     53 H253        1.2040    5.2100   18.2480 h1        1 RO2      0.032033
     54 H252       -0.0550    3.8980   18.0970 h1        1 RO2      0.032033
     55 H251        1.5980    3.5040   18.7580 h1        1 RO2      0.032033
@<TRIPOS>BOND
     1    1    2 ar  
     2    1    7 ar  
     3    1   33 1   
     4    2    3 1   
     5    2    4 ar  
     6    3   34 1   
     7    4    5 ar  
     8    4   35 1   
     9    5    6 ar  
    10    5    8 1   
    11    6    7 ar  
    12    6   36 1   
    13    7   37 1   
    14    8    9 1   
    15    8   12 2   
    16    9   10 1   
    17    9   38 1   
    18   10   11 ar  
    19   10   16 ar  
    20   11   12 1   
    21   11   13 ar  
    22   13   14 ar  
    23   13   39 1   
    24   14   15 ar  
    25   14   40 1   
    26   15   16 ar  
    27   15   17 1   
    28   16   41 1   
    29   17   18 2   
    30   17   21 1   
    31   18   19 1   
    32   19   20 ar  
    33   19   25 ar  
    34   20   21 1   
    35   20   22 ar  
    36   21   42 1   
    37   22   23 ar  
    38   22   43 1   
    39   23   24 ar  
    40   23   44 1   
    41   24   25 ar  
    42   24   26 1   
    43   26   27 1   
    44   26   31 1   
    45   27   28 1   
    46   27   45 1   
    47   27   46 1   
    48   28   29 1   
    49   28   47 1   
    50   28   48 1   
    51   29   30 1   
    52   29   32 1   
    53   30   31 1   
    54   30   49 1   
    55   30   50 1   
    56   31   51 1   
    57   31   52 1   
    58   32   53 1   
    59   32   54 1   
    60   32   55 1   
@<TRIPOS>SUBSTRUCTURE
     1 RO2         1 TEMP              0 ****  ****    0 ROOT
