@<TRIPOS>MOLECULE
RO2
   55    60     1     0     0
SMALL
bcc


@<TRIPOS>ATOM
      1 C1          0.1000   -0.0350   -0.2900 ca        1 RO2     -0.141000
      2 C3          1.4990   -0.1610   -0.2510 ca        1 RO2      0.122100
      3 O3          2.1370   -0.2660   -1.4650 oh        1 RO2     -0.494100
      4 C4          2.1920   -0.1730    0.9660 ca        1 RO2     -0.169000
      5 C2          1.4700   -0.0590    2.1600 ca        1 RO2     -0.079900
      6 C6          0.0750    0.0590    2.1320 ca        1 RO2     -0.152000
      7 C5         -0.5970    0.0720    0.9090 ca        1 RO2     -0.100000
      8 C7          2.1950   -0.0740    3.4350 cc        1 RO2      0.475400
      9 N1          1.7350    0.6460    4.5630 na        1 RO2     -0.271300
     10 C8          2.6550    0.4160    5.5870 ca        1 RO2     -0.081200
     11 C9          3.6670   -0.4620    5.0210 ca        1 RO2      0.081400
     12 N2          3.3490   -0.7420    3.6810 nd        1 RO2     -0.561100
     13 C10         4.7340   -0.8840    5.8280 ca        1 RO2     -0.073000
     14 C11         4.7890   -0.4390    7.1380 ca        1 RO2     -0.141000
     15 C12         3.8070    0.4260    7.6740 ca        1 RO2     -0.108900
     16 C13         2.7240    0.8610    6.9110 ca        1 RO2     -0.079000
     17 C14         3.9120    0.8760    9.0660 cc        1 RO2      0.480400
     18 N3          2.8640    1.1360    9.8840 nd        1 RO2     -0.626700
     19 C15         3.4400    1.5510   11.1140 ca        1 RO2      0.548300
     20 C16         4.8990    1.5240   10.9820 ca        1 RO2     -0.206500
     21 N4          5.1650    1.0930    9.6850 na        1 RO2     -0.269300
     22 C17         5.6970    1.8890   12.0710 ca        1 RO2     -0.083000
     23 C18         5.0440    2.2610   13.2310 ca        1 RO2     -0.234300
     24 C19         3.6040    2.2710   13.2990 ca        1 RO2      0.598200
     25 N7          2.8070    1.9330   12.2530 nb        1 RO2     -0.650000
     26 N5          3.0290    2.5990   14.5720 nh        1 RO2     -0.727300
     27 C21         1.6360    2.2160   14.7700 c3        1 RO2      0.178800
     28 C22         1.1750    2.4760   16.2190 c3        1 RO2      0.166300
     29 N6          1.4400    3.8360   16.6680 n3        1 RO2     -0.733600
     30 C23         2.8170    4.2410   16.4270 c3        1 RO2      0.166300
     31 C24         3.2790    3.9770   14.9800 c3        1 RO2      0.178800
     32 C25         1.0300    4.0570   18.0350 c3        1 RO2      0.158100
     33 H1         -0.4190   -0.0260   -1.2590 ha        1 RO2      0.155000
     34 HO3         3.0850   -0.3790   -1.2980 ho        1 RO2      0.424000
     35 H4          3.2870   -0.2790    0.9820 ha        1 RO2      0.158000
     36 H6         -0.5040    0.1210    3.0640 ha        1 RO2      0.134000
     37 H5         -1.6940    0.1630    0.8930 ha        1 RO2      0.141000
     38 HN1         0.9250    1.2040    4.6120 hn        1 RO2      0.312700
     39 H10         5.5010   -1.5600    5.4230 ha        1 RO2      0.152000
     40 H11         5.6110   -0.7900    7.7790 ha        1 RO2      0.132000
     41 H13         1.9530    1.5200    7.3350 ha        1 RO2      0.164000
     42 HN4         6.0500    0.9880    9.2670 hn        1 RO2      0.309700
     43 H17         6.7930    1.8760   12.0120 ha        1 RO2      0.140000
     44 H18         5.6300    2.5360   14.1200 ha        1 RO2      0.150000
     45 H211        0.9440    2.7650   14.0680 h1        1 RO2      0.051700
     46 H212        1.5420    1.1140   14.5680 h1        1 RO2      0.051700
     47 H221        0.0610    2.3150   16.2530 h1        1 RO2      0.037450
     48 H222        1.6570    1.7120   16.8970 h1        1 RO2      0.037450
     49 H231        3.5340    3.7300   17.1350 h1        1 RO2      0.037450
     50 H232        2.8840    5.3510   16.6090 h1        1 RO2      0.037450
     51 H241        4.3850    4.1740   14.9300 h1        1 RO2      0.051700
     52 H242        2.7610    4.7090   14.2950 h1        1 RO2      0.051700
     53 H253        1.1770    5.1400   18.2850 h1        1 RO2      0.032033
     54 H252        1.6030    3.4380   18.7800 h1        1 RO2      0.032033
     55 H251       -0.0590    3.8080   18.1290 h1        1 RO2      0.032033
@<TRIPOS>BOND
     1    1    2 ar  
     2    1    7 ar  
     3    1   33 1   
     4    2    3 1   
     5    2    4 ar  
     6    3   34 1   
     7    4    5 ar  
     8    4   35 1   
     9    5    6 ar  
    10    5    8 1   
    11    6    7 ar  
    12    6   36 1   
    13    7   37 1   
    14    8    9 1   
    15    8   12 2   
    16    9   10 1   
    17    9   38 1   
    18   10   11 ar  
    19   10   16 ar  
    20   11   12 1   
    21   11   13 ar  
    22   13   14 ar  
    23   13   39 1   
    24   14   15 ar  
    25   14   40 1   
    26   15   16 ar  
    27   15   17 1   
    28   16   41 1   
    29   17   18 2   
    30   17   21 1   
    31   18   19 1   
    32   19   20 ar  
    33   19   25 ar  
    34   20   21 1   
    35   20   22 ar  
    36   21   42 1   
    37   22   23 ar  
    38   22   43 1   
    39   23   24 ar  
    40   23   44 1   
    41   24   25 ar  
    42   24   26 1   
    43   26   27 1   
    44   26   31 1   
    45   27   28 1   
    46   27   45 1   
    47   27   46 1   
    48   28   29 1   
    49   28   47 1   
    50   28   48 1   
    51   29   30 1   
    52   29   32 1   
    53   30   31 1   
    54   30   49 1   
    55   30   50 1   
    56   31   51 1   
    57   31   52 1   
    58   32   53 1   
    59   32   54 1   
    60   32   55 1   
@<TRIPOS>SUBSTRUCTURE
     1 RO2         1 TEMP              0 ****  ****    0 ROOT
