@<TRIPOS>MOLECULE
RO2
   55    60     1     0     0
SMALL
bcc


@<TRIPOS>ATOM
      1 C1         -2.0320    0.2190   -9.0520 ca        1 RO2     -0.141000
      2 C3         -0.6590    0.4890   -8.9180 ca        1 RO2      0.122100
      3 O3          0.0060    0.8630  -10.0630 oh        1 RO2     -0.494100
      4 C4         -0.0180    0.3830   -7.6770 ca        1 RO2     -0.169000
      5 C2         -0.7640   -0.0010   -6.5570 ca        1 RO2     -0.079900
      6 C6         -2.1310   -0.2790   -6.6830 ca        1 RO2     -0.152000
      7 C5         -2.7530   -0.1660   -7.9270 ca        1 RO2     -0.100000
      8 C7         -0.0930   -0.1130   -5.2580 cc        1 RO2      0.475400
      9 N1         -0.7680    0.1570   -4.0440 na        1 RO2     -0.271300
     10 C8          0.1580   -0.0410   -3.0190 ca        1 RO2     -0.081200
     11 C9          1.3950   -0.4370   -3.6730 ca        1 RO2      0.081400
     12 N2          1.2010   -0.4670   -5.0640 nd        1 RO2     -0.561100
     13 C10         2.5220   -0.7220   -2.8880 ca        1 RO2     -0.073000
     14 C11         2.4170   -0.6040   -1.5120 ca        1 RO2     -0.141000
     15 C12         1.2130   -0.2050   -0.8870 ca        1 RO2     -0.108900
     16 C13         0.0660    0.0760   -1.6280 ca        1 RO2     -0.079000
     17 C14         1.1510   -0.0880    0.5740 cc        1 RO2      0.480400
     18 N3          0.0570   -0.3360    1.3320 nd        1 RO2     -0.626700
     19 C15         0.4600   -0.0810    2.6690 ca        1 RO2      0.548300
     20 C16         1.8650    0.3340    2.6660 ca        1 RO2     -0.206500
     21 N4          2.2730    0.3170    1.3350 na        1 RO2     -0.269300
     22 C17         2.4970    0.6390    3.8750 ca        1 RO2     -0.083000
     23 C18         1.7400    0.5250    5.0260 ca        1 RO2     -0.234300
     24 C19         0.3590    0.1140    4.9660 ca        1 RO2      0.598200
     25 N7         -0.2810   -0.1750    3.8040 nb        1 RO2     -0.650000
     26 N5         -0.3130   -0.0460    6.2230 nh        1 RO2     -0.727300
     27 C21        -1.5360   -0.8390    6.2060 c3        1 RO2      0.178800
     28 C22        -2.0840   -1.0720    7.6290 c3        1 RO2      0.166300
     29 N6         -2.2390    0.1600    8.3900 n3        1 RO2     -0.733600
     30 C23        -1.0370    0.9800    8.3700 c3        1 RO2      0.166300
     31 C24        -0.4870    1.2090    6.9480 c3        1 RO2      0.178800
     32 C25        -2.7250   -0.0750    9.7300 c3        1 RO2      0.158100
     33 H1         -2.5100    0.3120  -10.0370 ha        1 RO2      0.155000
     34 HO3         0.9410    0.9860   -9.8410 ho        1 RO2      0.424000
     35 H4          1.0590    0.5920   -7.5870 ha        1 RO2      0.158000
     36 H6         -2.7210   -0.6080   -5.8160 ha        1 RO2      0.134000
     37 H5         -3.8270   -0.3870   -8.0200 ha        1 RO2      0.141000
     38 HN1        -1.7080    0.4350   -3.9440 hn        1 RO2      0.312700
     39 H10         3.4620   -1.0370   -3.3620 ha        1 RO2      0.152000
     40 H11         3.2930   -0.8520   -0.8940 ha        1 RO2      0.132000
     41 H13        -0.8740    0.3700   -1.1390 ha        1 RO2      0.164000
     42 HN4         3.1580    0.5680    0.9850 hn        1 RO2      0.309700
     43 H17         3.5500    0.9480    3.9140 ha        1 RO2      0.140000
     44 H18         2.2000    0.7340    6.0030 ha        1 RO2      0.150000
     45 H211       -1.2990   -1.8430    5.7570 h1        1 RO2      0.051700
     46 H212       -2.3440   -0.3550    5.5850 h1        1 RO2      0.051700
     47 H221       -1.4130   -1.8090    8.1610 h1        1 RO2      0.037450
     48 H222       -3.1020   -1.5420    7.5270 h1        1 RO2      0.037450
     49 H231       -1.3010    1.9870    8.7980 h1        1 RO2      0.037450
     50 H232       -0.2170    0.5360    9.0080 h1        1 RO2      0.037450
     51 H241        0.5130    1.7140    7.0420 h1        1 RO2      0.051700
     52 H242       -1.1830    1.9070    6.3980 h1        1 RO2      0.051700
     53 H253       -2.0110   -0.6680   10.3670 h1        1 RO2      0.032033
     54 H252       -3.6950   -0.6330    9.6680 h1        1 RO2      0.032033
     55 H251       -2.9070    0.9140   10.2270 h1        1 RO2      0.032033
@<TRIPOS>BOND
     1    1    2 ar  
     2    1    7 ar  
     3    1   33 1   
     4    2    3 1   
     5    2    4 ar  
     6    3   34 1   
     7    4    5 ar  
     8    4   35 1   
     9    5    6 ar  
    10    5    8 1   
    11    6    7 ar  
    12    6   36 1   
    13    7   37 1   
    14    8    9 1   
    15    8   12 2   
    16    9   10 1   
    17    9   38 1   
    18   10   11 ar  
    19   10   16 ar  
    20   11   12 1   
    21   11   13 ar  
    22   13   14 ar  
    23   13   39 1   
    24   14   15 ar  
    25   14   40 1   
    26   15   16 ar  
    27   15   17 1   
    28   16   41 1   
    29   17   18 2   
    30   17   21 1   
    31   18   19 1   
    32   19   20 ar  
    33   19   25 ar  
    34   20   21 1   
    35   20   22 ar  
    36   21   42 1   
    37   22   23 ar  
    38   22   43 1   
    39   23   24 ar  
    40   23   44 1   
    41   24   25 ar  
    42   24   26 1   
    43   26   27 1   
    44   26   31 1   
    45   27   28 1   
    46   27   45 1   
    47   27   46 1   
    48   28   29 1   
    49   28   47 1   
    50   28   48 1   
    51   29   30 1   
    52   29   32 1   
    53   30   31 1   
    54   30   49 1   
    55   30   50 1   
    56   31   51 1   
    57   31   52 1   
    58   32   53 1   
    59   32   54 1   
    60   32   55 1   
@<TRIPOS>SUBSTRUCTURE
     1 RO2         1 TEMP              0 ****  ****    0 ROOT
