@<TRIPOS>MOLECULE
RO2
   55    45     1     0     0
SMALL
bcc


@<TRIPOS>ATOM
      1 C1         -2.9700   -4.0550   -8.8150 c1        1 RO2     -0.120500
      2 C3         -1.6040   -4.1050   -8.5860 c1        1 RO2      0.078000
      3 O3         -0.7730   -4.8500   -9.4460 oh        1 RO2     -0.248000
      4 C4         -1.0630   -3.4720   -7.4770 c1        1 RO2     -0.169000
      5 C2         -1.8890   -2.7890   -6.5980 c1        1 RO2     -0.044500
      6 C6         -3.2560   -2.7390   -6.8270 c1        1 RO2     -0.102750
      7 C5         -3.7960   -3.3720   -7.9360 c1        1 RO2     -0.120500
      8 C7         -1.3470   -2.1560   -5.4830 c1        1 RO2      0.065000
      9 N1         -1.0920   -2.5380   -4.2030 n2        1 RO2     -0.234000
     10 C8         -0.5210   -1.4890   -3.5570 c1        1 RO2     -0.033000
     11 C9         -0.4230   -0.4540   -4.4410 c1        1 RO2     -0.044500
     12 N2         -0.9330   -0.8690   -5.6290 n1        1 RO2     -0.131000
     13 C10         0.1440    0.7690   -4.0330 c1        1 RO2     -0.102750
     14 C11         0.6020    0.9220   -2.7330 c1        1 RO2     -0.102750
     15 C12         0.5010   -0.1290   -1.8350 c1        1 RO2     -0.044500
     16 C13        -0.0570   -1.3330   -2.2360 c1        1 RO2     -0.121000
     17 C14         0.9560    0.2180   -0.5700 c1        1 RO2      0.040000
     18 N3          0.1790    0.8390    0.3570 n2        1 RO2     -0.114000
     19 C15         0.9090    0.9750    1.4940 c1        1 RO2      0.040000
     20 C16         2.1410    0.4360    1.2690 c1        1 RO2     -0.044500
     21 N4          2.1670   -0.0310   -0.0060 n1        1 RO2     -0.181500
     22 C17         3.0930    0.4370    2.2780 c1        1 RO2     -0.102750
     23 C18         2.7950    0.9780    3.4960 c1        1 RO2     -0.190000
     24 C19         1.5420    1.5250    3.7220 c1        1 RO2      0.096000
     25 N7          0.6080    1.5240    2.7300 n1        1 RO2     -0.181500
     26 N5          0.6880    1.8350    4.8150 n3        1 RO2     -0.228000
     27 C21         1.0030    3.2580    5.3270 c3        1 RO2     -0.071500
     28 C22         0.2240    3.6170    6.5730 c3        1 RO2     -0.079000
     29 N6         -0.2060    2.5790    7.1620 n3        1 RO2     -0.255000
     30 C23         0.4050    1.4790    7.3200 c3        1 RO2     -0.079000
     31 C24         1.1860    1.1020    6.0810 c3        1 RO2     -0.071500
     32 C25        -0.8340    2.9540    8.3860 c3        1 RO2     -0.121000
     33 H1         -3.3510   -4.5010   -9.5960 ha        1 RO2      0.148000
     34 HO3        -0.5410   -4.3490  -10.1430 ho        1 RO2      0.224000
     35 H4         -0.1010   -3.5070   -7.3160 ha        1 RO2      0.159000
     36 H6         -3.8370   -2.2570   -6.2080 ha        1 RO2      0.147000
     37 H5         -4.7580   -3.3370   -8.0970 ha        1 RO2      0.148000
     38 HN1        -1.2800   -3.3530   -3.8390 DU        1 RO2      0.258000
     39 H10         0.2150    1.5100   -4.6650 ha        1 RO2      0.147000
     40 H11         0.9950    1.7710   -2.4500 ha        1 RO2      0.147000
     41 H13        -0.1270   -2.0730   -1.6040 ha        1 RO2      0.137000
     42 HN4         2.8780   -0.4300   -0.4160 DU        1 RO2      0.258000
     43 H17         3.9750    0.0510    2.1180 ha        1 RO2      0.147000
     44 H18         3.4640    0.9790    4.2070 ha        1 RO2      0.147000
     45 H211        1.9580    3.3170    5.5250 h1        1 RO2      0.092750
     46 H212        0.7860    3.9020    4.6230 h1        1 RO2      0.092750
     47 H221       -0.5370    4.1830    6.3230 h1        1 RO2      0.092250
     48 H222        0.8080    4.1150    7.1840 h1        1 RO2      0.092250
     49 H231        1.0240    1.5610    8.0760 h1        1 RO2      0.092250
     50 H232       -0.2480    0.7740    7.5150 h1        1 RO2      0.092250
     51 H241        2.1280    1.3220    6.2230 h1        1 RO2      0.092750
     52 H242        1.1050    0.1370    5.9390 h1        1 RO2      0.092750
     53 H253       -1.8070    2.9930    8.2560 h1        1 RO2      0.071667
     54 H252       -0.6230    2.2910    9.0790 h1        1 RO2      0.071667
     55 H251       -0.5060    3.8350    8.6660 h1        1 RO2      0.071667
@<TRIPOS>BOND
     1    1    7 1   
     2    1   33 1   
     3    2    3 1   
     4    2    4 1   
     5    3   34 1   
     6    4   35 1   
     7    5    6 1   
     8    6   36 1   
     9    7   37 1   
    10    8    9 1   
    11    8   12 1   
    12    9   10 1   
    13   10   16 1   
    14   11   13 1   
    15   13   39 1   
    16   14   15 1   
    17   14   40 1   
    18   16   41 1   
    19   17   18 1   
    20   17   21 1   
    21   18   19 1   
    22   19   25 1   
    23   20   22 1   
    24   22   43 1   
    25   23   24 1   
    26   23   44 1   
    27   24   26 1   
    28   26   27 1   
    29   26   31 1   
    30   27   28 1   
    31   27   45 1   
    32   27   46 1   
    33   28   29 1   
    34   28   47 1   
    35   28   48 1   
    36   29   30 1   
    37   29   32 1   
    38   30   31 1   
    39   30   49 1   
    40   30   50 1   
    41   31   51 1   
    42   31   52 1   
    43   32   53 1   
    44   32   54 1   
    45   32   55 1   
@<TRIPOS>SUBSTRUCTURE
     1 RO2         1 TEMP              0 ****  ****    0 ROOT
