@<TRIPOS>MOLECULE
RO2
   55    60     1     0     0
SMALL
bcc


@<TRIPOS>ATOM
      1 C1          0.1130   -0.0990   -0.2880 ca        1 RO2     -0.141000
      2 C3          1.5090   -0.2520   -0.2420 ca        1 RO2      0.122100
      3 O3          2.1510   -0.3770   -1.4520 oh        1 RO2     -0.494100
      4 C4          2.1970   -0.2670    0.9790 ca        1 RO2     -0.169000
      5 C2          1.4720   -0.1310    2.1680 ca        1 RO2     -0.079900
      6 C6          0.0800    0.0130    2.1330 ca        1 RO2     -0.152000
      7 C5         -0.5870    0.0290    0.9070 ca        1 RO2     -0.100000
      8 C7          2.1910   -0.1480    3.4460 cc        1 RO2      0.475400
      9 N1          1.7400    0.5900    4.5660 na        1 RO2     -0.271300
     10 C8          2.6510    0.3500    5.5960 ca        1 RO2     -0.081200
     11 C9          3.6470   -0.5520    5.0420 ca        1 RO2      0.081400
     12 N2          3.3300   -0.8370    3.7040 nd        1 RO2     -0.561100
     13 C10         4.7020   -0.9890    5.8590 ca        1 RO2     -0.073000
     14 C11         4.7600   -0.5330    7.1640 ca        1 RO2     -0.141000
     15 C12         3.7930    0.3550    7.6880 ca        1 RO2     -0.108900
     16 C13         2.7230    0.8050    6.9170 ca        1 RO2     -0.079000
     17 C14         3.9010    0.8160    9.0780 cc        1 RO2      0.480400
     18 N3          2.8540    1.1040    9.8880 nd        1 RO2     -0.626700
     19 C15         3.4330    1.5180   11.1170 ca        1 RO2      0.548300
     20 C16         4.8920    1.4590   10.9920 ca        1 RO2     -0.206500
     21 N4          5.1550    1.0110    9.7010 na        1 RO2     -0.269300
     22 C17         5.6920    1.8170   12.0820 ca        1 RO2     -0.083000
     23 C18         5.0420    2.2130   13.2360 ca        1 RO2     -0.234300
     24 C19         3.6020    2.2540   13.2960 ca        1 RO2      0.598200
     25 N7          2.8020    1.9230   12.2490 nb        1 RO2     -0.650000
     26 N5          3.0270    2.6050   14.5630 nh        1 RO2     -0.727300
     27 C21         1.6250    2.2540   14.7570 c3        1 RO2      0.178800
     28 C22         1.1630    2.5360   16.2020 c3        1 RO2      0.166300
     29 N6          1.4540    3.8940   16.6400 n3        1 RO2     -0.733600
     30 C23         2.8410    4.2670   16.4040 c3        1 RO2      0.166300
     31 C24         3.3040    3.9810   14.9610 c3        1 RO2      0.178800
     32 C25         1.0420    4.1360   18.0030 c3        1 RO2      0.158100
     33 H1         -0.4010   -0.0880   -1.2590 ha        1 RO2      0.155000
     34 HO3         3.0950   -0.5070   -1.2800 ho        1 RO2      0.424000
     35 H4          3.2900   -0.3930    1.0010 ha        1 RO2      0.158000
     36 H6         -0.5020    0.0940    3.0620 ha        1 RO2      0.134000
     37 H5         -1.6820    0.1410    0.8850 ha        1 RO2      0.141000
     38 HN1         0.9410    1.1640    4.6070 hn        1 RO2      0.312700
     39 H10         5.4580   -1.6830    5.4630 ha        1 RO2      0.152000
     40 H11         5.5730   -0.8960    7.8130 ha        1 RO2      0.132000
     41 H13         1.9630    1.4840    7.3320 ha        1 RO2      0.164000
     42 HN4         6.0400    0.8840    9.2890 hn        1 RO2      0.309700
     43 H17         6.7880    1.7810   12.0290 ha        1 RO2      0.140000
     44 H18         5.6290    2.4830   14.1260 ha        1 RO2      0.150000
     45 H211        1.5080    1.1520   14.5640 h1        1 RO2      0.051700
     46 H212        0.9490    2.8120   14.0470 h1        1 RO2      0.051700
     47 H221        0.0450    2.4000   16.2320 h1        1 RO2      0.037450
     48 H222        1.6240    1.7680   16.8890 h1        1 RO2      0.037450
     49 H231        2.9320    5.3760   16.5760 h1        1 RO2      0.037450
     50 H232        3.5430    3.7470   17.1190 h1        1 RO2      0.037450
     51 H241        2.8060    4.7180   14.2670 h1        1 RO2      0.051700
     52 H242        4.4150    4.1530   14.9150 h1        1 RO2      0.051700
     53 H253        1.2110    5.2180   18.2450 h1        1 RO2      0.032033
     54 H252        1.5970    3.5100   18.7560 h1        1 RO2      0.032033
     55 H251       -0.0530    3.9120   18.0930 h1        1 RO2      0.032033
@<TRIPOS>BOND
     1    1    2 ar  
     2    1    7 ar  
     3    1   33 1   
     4    2    3 1   
     5    2    4 ar  
     6    3   34 1   
     7    4    5 ar  
     8    4   35 1   
     9    5    6 ar  
    10    5    8 1   
    11    6    7 ar  
    12    6   36 1   
    13    7   37 1   
    14    8    9 1   
    15    8   12 2   
    16    9   10 1   
    17    9   38 1   
    18   10   11 ar  
    19   10   16 ar  
    20   11   12 1   
    21   11   13 ar  
    22   13   14 ar  
    23   13   39 1   
    24   14   15 ar  
    25   14   40 1   
    26   15   16 ar  
    27   15   17 1   
    28   16   41 1   
    29   17   18 2   
    30   17   21 1   
    31   18   19 1   
    32   19   20 ar  
    33   19   25 ar  
    34   20   21 1   
    35   20   22 ar  
    36   21   42 1   
    37   22   23 ar  
    38   22   43 1   
    39   23   24 ar  
    40   23   44 1   
    41   24   25 ar  
    42   24   26 1   
    43   26   27 1   
    44   26   31 1   
    45   27   28 1   
    46   27   45 1   
    47   27   46 1   
    48   28   29 1   
    49   28   47 1   
    50   28   48 1   
    51   29   30 1   
    52   29   32 1   
    53   30   31 1   
    54   30   49 1   
    55   30   50 1   
    56   31   51 1   
    57   31   52 1   
    58   32   53 1   
    59   32   54 1   
    60   32   55 1   
@<TRIPOS>SUBSTRUCTURE
     1 RO2         1 TEMP              0 ****  ****    0 ROOT
