@<TRIPOS>MOLECULE
RO3
   31    31     1     0     0
SMALL
bcc


@<TRIPOS>ATOM
      1 C5          0.1190   -0.9290   -0.1120 ca        1 RO3     -0.166500
      2 C6          1.4600   -0.6510    0.0660 ca        1 RO3      0.037500
      3 C9         -2.2480   -0.9110    0.7020 c3        1 RO3     -0.097800
      4 C10        -0.8180   -0.5940    0.8850 ca        1 RO3      0.087700
      5 C1          3.3340    3.2200    2.2230 c         1 RO3      0.753500
      6 O1          2.2950    3.0590    2.9080 o         1 RO3     -0.624100
      7 N1          4.4250    4.0230    2.4940 ne        1 RO3     -0.771100
      8 C4          4.4650    4.7300    3.6350 cd        1 RO3      0.639100
      9 O3          4.3000   -0.0980    0.4430 o         1 RO3     -0.441900
     10 C15         5.4470    6.2020    5.1340 cc        1 RO3      0.075000
     11 C14         4.2750    5.9230    5.8000 cd        1 RO3     -0.173700
     12 C12         0.9760    0.3130    2.2350 ca        1 RO3      0.037500
     13 O2          3.9190    0.3330    2.7550 o         1 RO3     -0.441900
     14 BR2         3.7680    6.6000    7.4150 br        1 RO3      0.067300
     15 S16         3.3140    4.8400    4.9240 ss        1 RO3      0.172200
     16 N17         5.5660    5.5400    3.9190 na        1 RO3     -0.636000
     17 N5          3.4040    2.4190    0.9940 n         1 RO3     -0.694000
     18 S2          3.4680    0.2200    1.4760 s4        1 RO3      1.667300
     19 C11         1.9380   -0.0320    1.2510 ca        1 RO3     -0.611500
     20 C8         -0.3680    0.0350    2.0580 ca        1 RO3     -0.166500
     21 H5         -0.2250   -1.4180   -1.0390 ha        1 RO3      0.175000
     22 H6          2.1860   -0.9240   -0.7250 ha        1 RO3      0.177000
     23 H91C       -2.5390   -0.8580   -0.3780 hc        1 RO3      0.081700
     24 H92C       -2.4470   -1.9550    1.0630 hc        1 RO3      0.081700
     25 H93C       -2.8990   -0.2110    1.2840 hc        1 RO3      0.081700
     26 H8         -1.0930    0.3140    2.8420 ha        1 RO3      0.175000
     27 HA          4.2150    2.6430    0.4350 hn        1 RO3      0.314500
     28 H17         6.3540    5.6330    3.3150 hn        1 RO3      0.494800
     29 H15         6.2610    6.8700    5.4570 h4        1 RO3      0.217000
     30 H12         1.3140    0.8320    3.1550 ha        1 RO3      0.177000
     31 H52         2.5680    2.5890    0.4540 hn        1 RO3      0.314500
@<TRIPOS>BOND
     1    1    2 ar  
     2    1    4 ar  
     3    1   21 1   
     4    2   19 ar  
     5    2   22 1   
     6    3    4 1   
     7    3   23 1   
     8    3   24 1   
     9    3   25 1   
    10    4   20 ar  
    11    5    6 2   
    12    5    7 1   
    13    5   17 1   
    14    7    8 2   
    15    8   15 1   
    16    8   16 1   
    17    9   18 1   
    18   10   11 2   
    19   10   16 1   
    20   10   29 1   
    21   11   14 1   
    22   11   15 1   
    23   12   19 ar  
    24   12   20 ar  
    25   12   30 1   
    26   13   18 1   
    27   16   28 1   
    28   17   27 1   
    29   17   31 1   
    30   18   19 1   
    31   20   26 1   
@<TRIPOS>SUBSTRUCTURE
     1 RO3         1 TEMP              0 ****  ****    0 ROOT
