@<TRIPOS>MOLECULE
RO3
   31    31     1     0     0
SMALL
bcc


@<TRIPOS>ATOM
      1 C5          0.0980   -0.9010   -0.1260 ca        1 RO3     -0.166500
      2 C6          1.4350   -0.5880   -0.0010 ca        1 RO3      0.037500
      3 C9         -2.2270   -0.9920    0.7990 c3        1 RO3     -0.097800
      4 C10        -0.8000   -0.6370    0.9280 ca        1 RO3      0.087700
      5 C1          3.2940    3.2550    2.2230 c         1 RO3      0.753500
      6 O1          2.2950    3.0320    2.9490 o         1 RO3     -0.624100
      7 N1          4.3710    4.0810    2.4740 ne        1 RO3     -0.771100
      8 C4          4.4440    4.7430    3.6410 cd        1 RO3      0.639100
      9 O3          4.2730    0.0430    0.2640 o         1 RO3     -0.441900
     10 C15         5.4530    6.1860    5.1510 cc        1 RO3      0.075000
     11 C14         4.3240    5.8420    5.8590 cd        1 RO3     -0.173700
     12 C12         1.0290    0.2740    2.2270 ca        1 RO3      0.037500
     13 O2          3.9920    0.3690    2.6060 o         1 RO3     -0.441900
     14 Br2         3.8760    6.4380    7.5240 br        1 RO3      0.067300
     15 S16         3.3550    4.7640    4.9860 ss        1 RO3      0.172200
     16 N17         5.5340    5.5770    3.9050 na        1 RO3     -0.636000
     17 N5          3.3280    2.5060    0.9600 nt        1 RO3     -0.694000
     18 S2          3.4830    0.2930    1.3480 s4        1 RO3      1.667300
     19 C11         1.9520   -0.0000    1.1850 ca        1 RO3     -0.611500
     20 C8         -0.3130   -0.0400    2.1020 ca        1 RO3     -0.166500
     21 H5         -0.2770   -1.3640   -1.0550 ha        1 RO3      0.175000
     22 H6          2.1300   -0.8050   -0.8350 ha        1 RO3      0.177000
     23 H91C       -2.5720   -0.9040   -0.2620 hc        1 RO3      0.081700
     24 H92C       -2.3760   -2.0560    1.1250 hc        1 RO3      0.081700
     25 H93C       -2.8700   -0.3390    1.4410 hc        1 RO3      0.081700
     26 H8         -1.0070    0.1830    2.9310 ha        1 RO3      0.175000
     27 HA          4.1040    2.7770    0.3730 hn        1 RO3      0.314500
     28 H17         6.2880    5.7190    3.2690 hn        1 RO3      0.494800
     29 H15         6.2610    6.8660    5.4630 h4        1 RO3      0.217000
     30 H12         1.3950    0.7660    3.1510 ha        1 RO3      0.177000
     31 H52         2.4620    2.6700    0.4680 hn        1 RO3      0.314500
@<TRIPOS>BOND
     1    1    2 ar  
     2    1    4 ar  
     3    1   21 1   
     4    2   19 ar  
     5    2   22 1   
     6    3    4 1   
     7    3   23 1   
     8    3   24 1   
     9    3   25 1   
    10    4   20 ar  
    11    5    6 2   
    12    5    7 1   
    13    5   17 1   
    14    7    8 2   
    15    8   15 1   
    16    8   16 1   
    17    9   18 1   
    18   10   11 2   
    19   10   16 1   
    20   10   29 1   
    21   11   14 1   
    22   11   15 1   
    23   12   19 ar  
    24   12   20 ar  
    25   12   30 1   
    26   13   18 1   
    27   16   28 1   
    28   17   27 1   
    29   17   31 1   
    30   18   19 1   
    31   20   26 1   
@<TRIPOS>SUBSTRUCTURE
     1 RO3         1 TEMP              0 ****  ****    0 ROOT
