@<TRIPOS>MOLECULE
RO3
   30    31     1     0     0
SMALL
bcc


@<TRIPOS>ATOM
      1 C5          4.8630    1.8170    1.0720 ca        1 RO3     -0.167000
      2 C6          4.5510    0.4930    0.7900 ca        1 RO3      0.002000
      3 C9          4.5240    4.2670    0.7090 c3        1 RO3     -0.068800
      4 C10         4.1820    2.8560    0.4220 ca        1 RO3     -0.002300
      5 C1          0.5910   -1.2990    0.2150 c         1 RO3      0.832500
      6 O1          0.3660   -0.4030   -0.6440 o         1 RO3     -0.653100
      7 N1         -0.4310   -1.8380    1.0370 ne        1 RO3     -0.744100
      8 C4         -1.6580   -1.3790    0.8500 cd        1 RO3      0.647100
      9 O3          4.2590   -2.2470    0.0080 o         1 RO3     -0.642300
     10 C15        -3.9450   -1.2390    1.2490 cc        1 RO3      0.066000
     11 C14        -3.8220   -0.3120    0.2440 cd        1 RO3     -0.182700
     12 C12         2.8780    1.2120   -0.7850 ca        1 RO3      0.002000
     13 O2          2.9750   -1.5660   -1.8880 o         1 RO3     -0.642300
     14 BR2        -5.1810    0.6750   -0.4720 br        1 RO3      0.019300
     15 S16        -2.2160   -0.1710   -0.2890 ss        1 RO3      0.109200
     16 N17        -2.7460   -1.8450    1.6040 na        1 RO3     -0.675000
     17 N5          1.8890   -1.7890    0.3820 n         1 RO3     -0.641300
     18 S2          3.2340   -1.4280   -0.5190 sy        1 RO3      1.525900
     19 C11         3.5560    0.1670   -0.1440 ca        1 RO3     -0.411500
     20 C8          3.1850    2.5410   -0.5090 ca        1 RO3     -0.167000
     21 H5          5.6480    2.0530    1.8060 ha        1 RO3      0.141500
     22 H6          5.1020   -0.3220    1.2950 ha        1 RO3      0.164500
     23 H91C        5.3550    4.5970    0.0340 hc        1 RO3      0.053367
     24 H92C        3.6460    4.9370    0.5360 hc        1 RO3      0.053367
     25 H93C        4.8640    4.3910    1.7670 hc        1 RO3      0.053367
     26 H8          2.6410    3.3470   -1.0240 ha        1 RO3      0.141500
     27 HA          1.9910   -2.4580    1.1190 hn        1 RO3      0.348500
     28 H17        -2.6660   -2.5410    2.3060 hn        1 RO3      0.479800
     29 H15        -4.8590   -1.5360    1.7800 h4        1 RO3      0.192000
     30 H12         2.0820    0.9690   -1.5150 ha        1 RO3      0.164500
@<TRIPOS>BOND
     1    1    2 ar  
     2    1    4 ar  
     3    1   21 1   
     4    2   19 ar  
     5    2   22 1   
     6    3    4 1   
     7    3   23 1   
     8    3   24 1   
     9    3   25 1   
    10    4   20 ar  
    11    5    6 2   
    12    5    7 1   
    13    5   17 1   
    14    7    8 2   
    15    8   15 1   
    16    8   16 1   
    17    9   18 2   
    18   10   11 2   
    19   10   16 1   
    20   10   29 1   
    21   11   14 1   
    22   11   15 1   
    23   12   19 ar  
    24   12   20 ar  
    25   12   30 1   
    26   13   18 2   
    27   16   28 1   
    28   17   18 1   
    29   17   27 1   
    30   18   19 1   
    31   20   26 1   
@<TRIPOS>SUBSTRUCTURE
     1 RO3         1 TEMP              0 ****  ****    0 ROOT
