@<TRIPOS>MOLECULE
RO3
   31    31     1     0     0
SMALL
bcc


@<TRIPOS>ATOM
      1 C5          0.1160   -0.9050   -0.1360 ca        1 RO3     -0.166500
      2 C6          1.4540   -0.5990    0.0060 ca        1 RO3      0.037500
      3 C9         -2.2220   -0.9780    0.7540 c3        1 RO3     -0.097800
      4 C10        -0.7950   -0.6290    0.9020 ca        1 RO3      0.087700
      5 C1          3.3010    3.2480    2.2300 c         1 RO3      0.753500
      6 O1          2.2910    3.0350    2.9440 o         1 RO3     -0.624100
      7 N1          4.3780    4.0710    2.4910 ne        1 RO3     -0.771100
      8 C4          4.4380    4.7420    3.6540 cd        1 RO3      0.639100
      9 O3          4.2910    0.0170    0.3080 o         1 RO3     -0.441900
     10 C15         5.4310    6.1910    5.1680 cc        1 RO3      0.075000
     11 C14         4.2900    5.8570    5.8630 cd        1 RO3     -0.173700
     12 C12         1.0200    0.2790    2.2220 ca        1 RO3      0.037500
     13 O2          3.9770    0.3610    2.6440 o         1 RO3     -0.441900
     14 BR2         3.8210    6.4670    7.5160 br        1 RO3      0.067300
     15 S16         3.3290    4.7770    4.9840 ss        1 RO3      0.172200
     16 N17         5.5270    5.5730    3.9280 na        1 RO3     -0.636000
     17 N5          3.3500    2.4900    0.9730 n         1 RO3     -0.694000
     18 S2          3.4860    0.2780    1.3790 s4        1 RO3      1.667300
     19 C11         1.9560   -0.0070    1.1950 ca        1 RO3     -0.611500
     20 C8         -0.3220   -0.0280    2.0800 ca        1 RO3     -0.166500
     21 H5         -0.2470   -1.3720   -1.0680 ha        1 RO3      0.175000
     22 H6          2.1590   -0.8250   -0.8170 ha        1 RO3      0.177000
     23 H91C       -2.5540   -0.8830   -0.3110 hc        1 RO3      0.081700
     24 H92C       -2.3800   -2.0420    1.0730 hc        1 RO3      0.081700
     25 H93C       -2.8700   -0.3240    1.3910 hc        1 RO3      0.081700
     26 H8         -1.0260    0.2040    2.8970 ha        1 RO3      0.175000
     27 HA          4.1370    2.7530    0.3960 hn        1 RO3      0.314500
     28 H17         6.2900    5.7070    3.3020 hn        1 RO3      0.494800
     29 H15         6.2370    6.8700    5.4870 h4        1 RO3      0.217000
     30 H12         1.3760    0.7750    3.1480 ha        1 RO3      0.177000
     31 H52         2.4930    2.6550    0.4670 hn        1 RO3      0.314500
@<TRIPOS>BOND
     1    1    2 ar  
     2    1    4 ar  
     3    1   21 1   
     4    2   19 ar  
     5    2   22 1   
     6    3    4 1   
     7    3   23 1   
     8    3   24 1   
     9    3   25 1   
    10    4   20 ar  
    11    5    6 2   
    12    5    7 1   
    13    5   17 1   
    14    7    8 2   
    15    8   15 1   
    16    8   16 1   
    17    9   18 1   
    18   10   11 2   
    19   10   16 1   
    20   10   29 1   
    21   11   14 1   
    22   11   15 1   
    23   12   19 ar  
    24   12   20 ar  
    25   12   30 1   
    26   13   18 1   
    27   16   28 1   
    28   17   27 1   
    29   17   31 1   
    30   18   19 1   
    31   20   26 1   
@<TRIPOS>SUBSTRUCTURE
     1 RO3         1 TEMP              0 ****  ****    0 ROOT
