@<TRIPOS>MOLECULE
RO4
   63    57     1     0     0
SMALL
bcc


@<TRIPOS>ATOM
      1 O1          0.9980    3.3130    2.0730 o         1 RO4     -0.325000
      2 O3          3.1910   -2.4050    5.5500 o         1 RO4     -0.421000
      3 O4         -0.1130    0.9710    6.6360 o         1 RO4     -0.394000
      4 O29         2.1090   -1.0430   10.0090 o         1 RO4     -0.361000
      5 O30        -0.0110   -1.4080   10.5310 oh        1 RO4     -0.322000
      6 O2         -0.0920    3.4120   -0.3520 oh        1 RO4     -0.241000
      7 N6         -0.5170    2.4950    0.5200 n         1 RO4     -0.191000
      8 N7          1.3390   -0.7220    7.2300 n         1 RO4     -0.370000
      9 N5          2.3490   -1.5850    3.5920 n         1 RO4     -0.442000
     10 C8          0.2900    2.3650    1.6930 c2        1 RO4      0.249000
     11 C11         2.8450   -2.5890    4.3630 c2        1 RO4      0.259000
     12 C13         1.0010    0.4040    6.5090 c2        1 RO4      0.263000
     13 C28         0.9640   -1.2360    9.5950 c2        1 RO4      0.288000
     14 C10        -1.1770    0.4390    2.6590 cu        1 RO4     -0.078000
     15 C12         1.9300    0.8660    5.4720 c1        1 RO4      0.007000
     16 C14         0.4330   -1.3300    8.1670 c3        1 RO4      0.045000
     17 C9          0.1410    1.1230    2.5120 cx        1 RO4     -0.137000
     18 C31         1.9320   -0.9190   13.3540 c2        1 RO4     -0.229500
     19 C15        -0.2900   -0.1710    1.8930 cu        1 RO4     -0.076000
     20 C19         2.8500    1.9700    5.7060 c3        1 RO4     -0.163000
     21 C32         1.1320   -1.8820   13.7920 c2        1 RO4     -0.229500
     22 C17         0.4880   -2.1250    0.4210 c1        1 RO4     -0.162000
     23 C18        -1.9570   -2.8390    4.5600 c3        1 RO4     -0.270000
     24 C21         2.1110    3.2530    5.3190 c3        1 RO4     -0.206000
     25 C22         4.9560    0.6590    5.3540 c3        1 RO4     -0.229000
     26 C27         0.1540   -2.8070    7.8760 c3        1 RO4     -0.233000
     27 HO2        -0.2780    4.2790    0.0610 ho        1 RO4      0.234000
     28 HN6        -0.6200    1.6190    0.0180 hn        1 RO4      0.215000
     29 HN7         2.1960   -1.2000    7.0440 hn        1 RO4      0.268000
     30 HN5         2.0010   -1.7710    2.6840 hn        1 RO4      0.237500
     31 H10         2.9330   -3.5830    3.8650 h5        1 RO4      0.119000
     32 H12         2.2160   -0.6680    3.9680 hn        1 RO4      0.237500
     33 H14        -0.5490   -0.7600    8.1440 h1        1 RO4      0.158000
     34 H16        -2.3000   -2.7070    5.6090 hc        1 RO4      0.067250
     35 H20         3.1560    2.0540    6.7910 hc        1 RO4      0.105000
     36 H91        -2.1370    0.5030    3.1320 ha        1 RO4      0.213000
     37 H92         0.8660    1.1250    3.3620 hc        1 RO4      0.167000
     38 H311        2.4460   -0.9660   12.3800 ha        1 RO4      0.115750
     39 H312        0.3740   -1.3370   11.4250 ho        1 RO4      0.249000
     40 H151        1.1600   -4.1420    5.5760 ha        1 RO4      0.000750
     41 H152        0.9160   -4.6100    5.1510 ha        1 RO4      0.000750
     42 H191        1.1620    3.3440    5.9010 hc        1 RO4      0.104000
     43 H192        3.8220    1.6410    3.7920 hc        1 RO4      0.091500
     44 H321        2.1350   -0.0100   13.9350 ha        1 RO4      0.115750
     45 H322        0.6210   -1.8360   14.7630 ha        1 RO4      0.115750
     46 H323        0.9330   -2.7970   13.2160 ha        1 RO4      0.115750
     47 H171        0.7840   -4.1170    2.9590 ha        1 RO4      0.000750
     48 H172        0.7400   -3.8550    2.3340 ha        1 RO4      0.000750
     49 H173        0.8050   -2.9320   -0.1910 ha        1 RO4      0.235000
     50 H181       -1.8470   -1.8410    4.0790 hc        1 RO4      0.067250
     51 H182       -2.7040   -3.4410    3.9980 hc        1 RO4      0.067250
     52 H183       -0.9750   -3.3640    4.5520 hc        1 RO4      0.067250
     53 H211        1.8750    3.2600    4.2260 hc        1 RO4      0.104000
     54 H212        4.6970    2.7630    4.9120 hc        1 RO4      0.091500
     55 H213        2.7680    4.1250    5.5520 hc        1 RO4      0.104000
     56 H221        5.3060    0.8410    6.3990 hc        1 RO4      0.083333
     57 H222        5.8530    0.5350    4.7010 hc        1 RO4      0.083333
     58 H223        4.3710   -0.2960    5.3410 hc        1 RO4      0.083333
     59 H271       -0.3750   -2.9090    6.8970 hc        1 RO4      0.096333
     60 H272        1.1000   -3.3980    7.8330 hc        1 RO4      0.096333
     61 H273       -0.4970   -3.2160    8.6870 hc        1 RO4      0.096333
     62 C16         0.1210   -1.2090    1.1020 c1        1 RO4     -0.099000
     63 C20         4.1120    1.8070    4.8620 c3        1 RO4     -0.139000
@<TRIPOS>BOND
     1    1   10 1   
     2    2   11 1   
     3    3   12 1   
     4    4   13 1   
     5    5   13 1   
     6    5   39 1   
     7    6    7 1   
     8    6   27 1   
     9    7   10 1   
    10    7   28 1   
    11    8   12 1   
    12    8   16 1   
    13    8   29 1   
    14    9   11 1   
    15    9   30 1   
    16    9   32 1   
    17   10   17 1   
    18   11   31 1   
    19   12   15 1   
    20   13   16 1   
    21   14   17 1   
    22   14   19 1   
    23   14   36 1   
    24   15   20 1   
    25   16   26 1   
    26   16   33 1   
    27   17   19 1   
    28   17   37 1   
    29   18   21 1   
    30   18   38 1   
    31   18   44 1   
    32   19   62 1   
    33   20   24 1   
    34   20   35 1   
    35   20   63 1   
    36   21   45 1   
    37   21   46 1   
    38   22   49 1   
    39   22   62 1   
    40   23   34 1   
    41   23   50 1   
    42   23   51 1   
    43   23   52 1   
    44   24   42 1   
    45   24   53 1   
    46   24   55 1   
    47   25   56 1   
    48   25   57 1   
    49   25   58 1   
    50   25   63 1   
    51   26   59 1   
    52   26   60 1   
    53   26   61 1   
    54   40   41 1   
    55   43   63 1   
    56   47   48 1   
    57   54   63 1   
@<TRIPOS>SUBSTRUCTURE
     1 RO4         1 TEMP              0 ****  ****    0 ROOT
