@<TRIPOS>MOLECULE
RO4
   63    62     1     0     0
SMALL
bcc


@<TRIPOS>ATOM
      1 O1          0.0710   -0.8380   -5.7590 o         1 RO4     -0.567100
      2 O3         -1.1260    1.7000   -1.7780 o         1 RO4     -0.620100
      3 O4          1.0370   -0.6630    1.5210 o         1 RO4     -0.610100
      4 O29        -1.0140    0.6200    5.3150 o         1 RO4     -0.548000
      5 O30         1.0570    0.0540    5.9480 os        1 RO4     -0.434900
      6 O2          0.2970    0.7710   -7.8590 oh        1 RO4     -0.437100
      7 N6          0.4800    1.2660   -6.6310 n         1 RO4     -0.353400
      8 N7         -0.0170    1.0440    2.6390 n         1 RO4     -0.553900
      9 N5         -0.5790   -0.2680   -0.7330 n         1 RO4     -0.548900
     10 C8          0.0910    0.3890   -5.5690 c         1 RO4      0.592100
     11 C11        -0.5520    0.5920   -1.8160 c         1 RO4      0.660100
     12 C13         0.0760    0.1260    1.6110 c         1 RO4      0.637100
     13 C28         0.1850    0.5690    5.0370 c         1 RO4      0.605100
     14 C10         0.1530    0.0860   -3.0750 c3        1 RO4     -0.126700
     15 C12        -1.0650    0.1460    0.5570 c3        1 RO4      0.036700
     16 C14         0.8870    1.0350    3.7600 c3        1 RO4      0.059700
     17 C9         -0.1710    1.0280   -4.2260 c3        1 RO4     -0.148400
     18 C31         0.4910   -0.4050    7.1920 c3        1 RO4      0.138400
     19 C15         1.6550   -0.0340   -2.8360 c3        1 RO4     -0.078400
     20 C19        -2.1820   -0.7510    1.1170 c3        1 RO4     -0.084400
     21 C32         1.6450   -0.9340    8.0080 c3        1 RO4     -0.101100
     22 C17         3.7100   -1.3610   -3.2750 c3        1 RO4     -0.094600
     23 C18         1.7650   -2.4580   -2.1870 c3        1 RO4     -0.094600
     24 C21        -4.4510   -1.7120    0.8720 c3        1 RO4     -0.097600
     25 C22        -4.0110    0.5830    0.0180 c3        1 RO4     -0.097600
     26 C27         1.4980    2.4070    4.0520 c3        1 RO4     -0.104100
     27 HO2         0.9760    0.0760   -7.9700 ho        1 RO4      0.435000
     28 HN6         0.0090    2.1630   -6.5900 hn        1 RO4      0.298500
     29 HN7        -0.8580    1.5620    2.7510 hn        1 RO4      0.324500
     30 HN5         0.0090   -1.0730   -0.7450 hn        1 RO4      0.330500
     31 H10        -0.2710   -0.9310   -3.3320 hc        1 RO4      0.100700
     32 H12        -1.4680    1.2020    0.4550 h1        1 RO4      0.105700
     33 H14         1.7250    0.3010    3.5420 h1        1 RO4      0.122700
     34 H16         1.7920   -1.6990   -4.2080 hc        1 RO4      0.070700
     35 H20        -3.1400   -1.2240   -0.7650 hc        1 RO4      0.055700
     36 H91        -1.2640    1.2960   -4.1920 hc        1 RO4      0.088200
     37 H92         0.4070    1.9830   -4.1040 hc        1 RO4      0.088200
     38 H311       -0.2660   -1.2000    6.9680 h1        1 RO4      0.052700
     39 H312       -0.0190    0.4590    7.6920 h1        1 RO4      0.052700
     40 H151        2.1910    0.7330   -3.4580 hc        1 RO4      0.052700
     41 H152        1.9090    0.1910   -1.7670 hc        1 RO4      0.052700
     42 H191       -1.7920   -1.7940    1.2540 hc        1 RO4      0.055700
     43 H192       -2.4620   -0.3550    2.1290 hc        1 RO4      0.055700
     44 H321        1.2560   -1.3100    8.9840 hc        1 RO4      0.049700
     45 H322        2.1550   -1.7700    7.4710 hc        1 RO4      0.049700
     46 H323        2.3950   -0.1300    8.1970 hc        1 RO4      0.049700
     47 H171        4.1150   -2.3660   -3.5460 hc        1 RO4      0.036700
     48 H172        4.0360   -0.6270   -4.0500 hc        1 RO4      0.036700
     49 H173        4.1450   -1.0580   -2.2920 hc        1 RO4      0.036700
     50 H181        2.0600   -2.1590   -1.1510 hc        1 RO4      0.036700
     51 H182        0.6580   -2.6030   -2.2180 hc        1 RO4      0.036700
     52 H183        2.2480   -3.4380   -2.4210 hc        1 RO4      0.036700
     53 H211       -5.3480   -1.7970    0.2120 hc        1 RO4      0.038367
     54 H212       -4.0240   -2.7330    1.0230 hc        1 RO4      0.038367
     55 H213       -4.7760   -1.3130    1.8620 hc        1 RO4      0.038367
     56 H221       -4.1780    1.1010    0.9930 hc        1 RO4      0.038367
     57 H222       -3.3270    1.2070   -0.6090 hc        1 RO4      0.038367
     58 H223       -4.9920    0.5010   -0.5080 hc        1 RO4      0.038367
     59 H271        0.7080    3.1640    4.2760 hc        1 RO4      0.056033
     60 H272        2.1730    2.3140    4.9370 hc        1 RO4      0.056033
     61 H273        2.0920    2.7570    3.1750 hc        1 RO4      0.056033
     62 C16         2.1970   -1.4130   -3.1940 c3        1 RO4     -0.076700
     63 C20        -3.4220   -0.7950    0.2380 c3        1 RO4     -0.062700
@<TRIPOS>BOND
     1    1   10 2   
     2    2   11 2   
     3    3   12 2   
     4    4   13 2   
     5    5   13 1   
     6    5   18 1   
     7    6    7 1   
     8    6   27 1   
     9    7   10 1   
    10    7   28 1   
    11    8   12 1   
    12    8   16 1   
    13    8   29 1   
    14    9   11 1   
    15    9   15 1   
    16    9   30 1   
    17   10   17 1   
    18   11   14 1   
    19   12   15 1   
    20   13   16 1   
    21   14   17 1   
    22   14   19 1   
    23   14   31 1   
    24   15   20 1   
    25   15   32 1   
    26   16   26 1   
    27   16   33 1   
    28   17   36 1   
    29   17   37 1   
    30   18   21 1   
    31   18   38 1   
    32   18   39 1   
    33   19   40 1   
    34   19   41 1   
    35   19   62 1   
    36   20   42 1   
    37   20   43 1   
    38   20   63 1   
    39   21   44 1   
    40   21   45 1   
    41   21   46 1   
    42   22   47 1   
    43   22   48 1   
    44   22   49 1   
    45   22   62 1   
    46   23   50 1   
    47   23   51 1   
    48   23   52 1   
    49   23   62 1   
    50   24   53 1   
    51   24   54 1   
    52   24   55 1   
    53   24   63 1   
    54   25   56 1   
    55   25   57 1   
    56   25   58 1   
    57   25   63 1   
    58   26   59 1   
    59   26   60 1   
    60   26   61 1   
    61   34   62 1   
    62   35   63 1   
@<TRIPOS>SUBSTRUCTURE
     1 RO4         1 TEMP              0 ****  ****    0 ROOT
