@<TRIPOS>MOLECULE
RO4
   63    62     1     0     0
SMALL
bcc


@<TRIPOS>ATOM
      1 O1         -3.2860    1.9680   -3.1860 o         1 RO4     -0.565100
      2 O3         -0.1370   -1.6700   -1.5940 o         1 RO4     -0.615100
      3 O4          0.3320    1.9750    1.2410 o         1 RO4     -0.610100
      4 O29         2.8550    1.1510    4.1670 o         1 RO4     -0.548000
      5 O30         1.4860    0.7430    5.9590 os        1 RO4     -0.434900
      6 O2         -4.0090    2.5650   -5.7550 oh        1 RO4     -0.437100
      7 N6         -3.1640    1.5300   -5.4400 n         1 RO4     -0.352400
      8 N7          1.2810    0.1300    2.2870 n         1 RO4     -0.553900
      9 N5          0.1490    0.6110   -1.1470 n         1 RO4     -0.539900
     10 C8         -2.7690    1.3170   -4.0800 c         1 RO4      0.590100
     11 C11        -0.6030   -0.5610   -1.6860 c         1 RO4      0.659100
     12 C13         0.9170    0.9070    1.1120 c         1 RO4      0.635100
     13 C28         1.7730    0.7720    4.5550 c         1 RO4      0.605100
     14 C10        -1.9290   -0.3400   -2.4610 c3        1 RO4     -0.123700
     15 C12         1.2680    0.4060   -0.2580 c3        1 RO4      0.031700
     16 C14         0.6860    0.4270    3.5510 c3        1 RO4      0.059700
     17 C16        -3.6160   -1.9820   -1.6370 c3        1 RO4     -0.073700
     18 C20         3.4250    0.1850   -1.5090 c3        1 RO4     -0.062700
     19 C9         -1.6410    0.3470   -3.7590 c3        1 RO4     -0.148400
     20 C31         2.4900    1.3460    6.7660 c3        1 RO4      0.138400
     21 C15        -2.5910   -1.6820   -2.7360 c3        1 RO4     -0.077400
     22 C19         2.4780    1.1650   -0.7810 c3        1 RO4     -0.082400
     23 C32         2.1880    1.0830    8.2350 c3        1 RO4     -0.101100
     24 C17        -5.0120   -1.6260   -2.1330 c3        1 RO4     -0.091100
     25 C18        -3.5640   -3.4660   -1.2860 c3        1 RO4     -0.091100
     26 C21         4.6830   -0.0480   -0.6520 c3        1 RO4     -0.097100
     27 C22         3.8300    0.7760   -2.8540 c3        1 RO4     -0.097100
     28 C27        -0.0810   -0.7660    4.0370 c3        1 RO4     -0.104100
     29 HO2        -4.2550    2.4980   -6.6050 ho        1 RO4      0.436000
     30 HN6        -2.8190    1.0030   -6.1050 hn        1 RO4      0.299500
     31 HN7         1.8520   -0.5780    2.2070 hn        1 RO4      0.324500
     32 HN5        -0.1200    1.4690   -1.3600 hn        1 RO4      0.325500
     33 H10        -2.5210    0.2080   -1.9330 hc        1 RO4      0.093700
     34 H12         1.4780   -0.5550   -0.2110 h1        1 RO4      0.107700
     35 H14         0.0720    1.1950    3.4530 h1        1 RO4      0.122700
     36 H16        -3.4070   -1.4500   -0.8400 hc        1 RO4      0.057700
     37 H20         2.9690   -0.6600   -1.6510 hc        1 RO4      0.056700
     38 H91        -1.5700   -0.3180   -4.4720 hc        1 RO4      0.084700
     39 H92        -0.8040    0.8360   -3.6880 hc        1 RO4      0.084700
     40 H311        2.5050    2.3130    6.6030 h1        1 RO4      0.052700
     41 H312        3.3660    0.9620    6.5390 h1        1 RO4      0.052700
     42 H151       -1.9090   -2.3860   -2.7480 hc        1 RO4      0.057200
     43 H152       -3.0460   -1.6510   -3.6090 hc        1 RO4      0.057200
     44 H191        2.9560    1.5830   -0.0250 hc        1 RO4      0.055700
     45 H192        2.1840    1.8580   -1.4040 hc        1 RO4      0.055700
     46 H321        2.2560    0.1180    8.4160 hc        1 RO4      0.049700
     47 H322        1.2780    1.3920    8.4430 hc        1 RO4      0.049700
     48 H323        2.8370    1.5710    8.7970 hc        1 RO4      0.049700
     49 H171       -5.1340   -1.9720   -3.0420 hc        1 RO4      0.036533
     50 H172       -5.6820   -2.0260   -1.5400 hc        1 RO4      0.036533
     51 H173       -5.1190   -0.6550   -2.1370 hc        1 RO4      0.036533
     52 H181       -4.1490   -3.6420   -0.5140 hc        1 RO4      0.036533
     53 H182       -2.6380   -3.7190   -1.0610 hc        1 RO4      0.036533
     54 H183       -3.8710   -3.9970   -2.0580 hc        1 RO4      0.036533
     55 H211        5.0350    0.8150   -0.3480 hc        1 RO4      0.038033
     56 H212        4.4510   -0.5980    0.1250 hc        1 RO4      0.038033
     57 H213        5.3650   -0.5100   -1.1900 hc        1 RO4      0.038033
     58 H221        4.3110    1.6180   -2.7090 hc        1 RO4      0.038033
     59 H222        4.4130    0.1430   -3.3270 hc        1 RO4      0.038033
     60 H223        3.0280    0.9460   -3.3920 hc        1 RO4      0.038033
     61 H271       -0.5770   -0.5270    4.8540 hc        1 RO4      0.056033
     62 H272       -0.7130   -1.0540    3.3420 hc        1 RO4      0.056033
     63 H273        0.5390   -1.4930    4.2340 hc        1 RO4      0.056033
@<TRIPOS>BOND
     1    1   10 2   
     2    2   11 2   
     3    3   12 2   
     4    4   13 2   
     5    5   13 1   
     6    5   20 1   
     7    6    7 1   
     8    6   29 1   
     9    7   10 1   
    10    7   30 1   
    11    8   12 1   
    12    8   16 1   
    13    8   31 1   
    14    9   11 1   
    15    9   15 1   
    16    9   32 1   
    17   10   19 1   
    18   11   14 1   
    19   12   15 1   
    20   13   16 1   
    21   14   19 1   
    22   14   21 1   
    23   14   33 1   
    24   15   22 1   
    25   15   34 1   
    26   16   28 1   
    27   16   35 1   
    28   17   21 1   
    29   17   24 1   
    30   17   25 1   
    31   17   36 1   
    32   18   22 1   
    33   18   26 1   
    34   18   27 1   
    35   18   37 1   
    36   19   38 1   
    37   19   39 1   
    38   20   23 1   
    39   20   40 1   
    40   20   41 1   
    41   21   42 1   
    42   21   43 1   
    43   22   44 1   
    44   22   45 1   
    45   23   46 1   
    46   23   47 1   
    47   23   48 1   
    48   24   49 1   
    49   24   50 1   
    50   24   51 1   
    51   25   52 1   
    52   25   53 1   
    53   25   54 1   
    54   26   55 1   
    55   26   56 1   
    56   26   57 1   
    57   27   58 1   
    58   27   59 1   
    59   27   60 1   
    60   28   61 1   
    61   28   62 1   
    62   28   63 1   
@<TRIPOS>SUBSTRUCTURE
     1 RO4         1 TEMP              0 ****  ****    0 ROOT
