@<TRIPOS>MOLECULE
RO5
   34    34     1     0     0
SMALL
bcc


@<TRIPOS>ATOM
      1 C5         -0.5280    2.3760    1.7960 c2        1 RO5     -0.156000
      2 C6          3.2270   -0.2520    1.4400 c2        1 RO5     -1.015000
      3 C10        -0.3500    1.1870    2.2750 c1        1 RO5     -0.111000
      4 C1          5.5540    2.8550    2.0080 c2        1 RO5      0.483000
      5 O1          4.6110    1.9320    1.9400 os        1 RO5     -0.654000
      6 N1          5.2350    4.0430    2.6350 n3        1 RO5     -0.229000
      7 C4          3.9420    4.3000    3.1220 c2        1 RO5     -0.366000
      8 O3          5.7150   -0.0570    1.3460 o         1 RO5     -0.897000
      9 C15         1.6320    4.3860    3.1070 c1        1 RO5     -0.093000
     10 C14         1.9730    4.9000    4.3800 c2        1 RO5     -0.621000
     11 C12         0.9200   -0.8730    2.5150 c2        1 RO5     -0.009000
     12 O2          4.6910    0.0750    3.4800 o         1 RO5     -0.897000
     13 BR2         0.7500    5.4880    5.5940 br        1 RO5      0.193000
     14 S16         3.6130    4.9130    4.6360 ss        1 RO5      0.844000
     15 N17         2.7540    4.0680    2.4090 n3        1 RO5     -0.105000
     16 N5          6.7720    2.6000    1.4650 n3        1 RO5     -0.355000
     17 C11         2.0670   -0.5210    2.0020 c1        1 RO5      0.083000
     18 C8         -0.2200   -0.0170    2.7910 c2        1 RO5     -0.076000
     19 C20        -1.2570   -0.5950    3.7030 c3        1 RO5     -0.117000
     20 C21        -2.0610   -1.6850    3.0370 c3        1 RO5     -0.215000
     21 H5          3.2320   -0.3270    0.3210 h4        1 RO5      0.228000
     22 H6         -0.1500    3.2850    2.3130 ha        1 RO5      0.182000
     23 H10        -1.0620    2.5540    0.8490 ha        1 RO5      0.182000
     24 H1          5.8320    4.8380    2.5210 hn        1 RO5      0.278000
     25 HA          6.9510    1.6960    1.0660 hn        1 RO5      0.289000
     26 H15         2.7390    3.6580    1.5030 hn        1 RO5      0.270000
     27 H12         0.7880   -1.9440    2.8020 ha        1 RO5      0.206000
     28 H201       -0.7500   -1.0020    4.6190 hc        1 RO5      0.102000
     29 H202       -1.9480    0.2230    4.0430 hc        1 RO5      0.102000
     30 H211       -1.4040   -2.5260    2.7070 hc        1 RO5      0.083000
     31 H212       -2.8160   -2.0890    3.7550 hc        1 RO5      0.083000
     32 H213       -2.6020   -1.2890    2.1430 hc        1 RO5      0.083000
     33 S2          4.5980    0.1170    2.1220 s6        1 RO5      2.935000
     34 H52         7.5120    3.2630    1.4930 hn        1 RO5      0.289000
@<TRIPOS>BOND
     1    1    3 1   
     2    1   22 1   
     3    1   23 1   
     4    2   17 1   
     5    2   21 1   
     6    2   33 1   
     7    3   18 1   
     8    4    5 1   
     9    4    6 1   
    10    4   16 1   
    11    5   33 1   
    12    6    7 1   
    13    6   24 1   
    14    7   14 1   
    15    7   15 1   
    16    8   33 1   
    17    9   10 1   
    18    9   15 1   
    19   10   13 1   
    20   10   14 1   
    21   11   17 1   
    22   11   18 1   
    23   11   27 1   
    24   12   33 1   
    25   15   26 1   
    26   16   25 1   
    27   16   34 1   
    28   18   19 1   
    29   19   20 1   
    30   19   28 1   
    31   19   29 1   
    32   20   30 1   
    33   20   31 1   
    34   20   32 1   
@<TRIPOS>SUBSTRUCTURE
     1 RO5         1 TEMP              0 ****  ****    0 ROOT
