@<TRIPOS>MOLECULE
RO5
   33    27     1     0     0
SMALL
bcc


@<TRIPOS>ATOM
      1 C5         -3.5590    0.5940   -1.7350 c1        1 RO5     -0.104000
      2 C6         -2.1570    0.5850   -1.7810 c1        1 RO5     -0.015000
      3 C10        -4.2130    0.6610   -0.5060 c1        1 RO5     -0.104000
      4 C1          2.4500   -0.8240   -0.9140 c1        1 RO5      0.404000
      5 O1          2.7200   -0.6670   -2.0610 o         1 RO5     -0.336000
      6 N1          3.4480   -1.2420   -0.0080 n2        1 RO5     -0.273000
      7 C4          4.7740   -1.4740   -0.4750 c2        1 RO5     -0.203000
      8 O3          0.8200    1.7960    0.2610 o         1 RO5     -0.532900
      9 C15         6.9380   -2.0400   -1.4450 c1        1 RO5     -0.084000
     10 C14         7.0710   -2.2840   -0.0310 c1        1 RO5     -0.550000
     11 C12        -2.0870    0.7090    0.6190 c1        1 RO5     -0.007000
     12 O2          0.7640    1.4220   -1.9300 o         1 RO5     -0.532900
     13 BR2         8.2950   -3.0620    1.1950 br        1 RO5      0.140000
     14 S16         5.7310   -1.9430    0.6320 ss        1 RO5      0.634000
     15 N17         5.4810   -1.5260   -1.7230 n2        1 RO5     -0.113000
     16 N5          1.0750   -0.6170   -0.4530 n3        1 RO5     -0.861000
     17 S2          0.3530    0.8240   -0.6820 s4        1 RO5      2.072800
     18 C11        -1.4270    0.6420   -0.6110 c1        1 RO5     -0.848000
     19 C8         -3.4840    0.7180    0.6640 c1        1 RO5     -0.092000
     20 C20        -4.2090    0.6420    2.0220 c3        1 RO5     -0.126000
     21 C21        -4.7180    2.0530    2.4060 c3        1 RO5     -0.210000
     22 H5         -4.0560    0.5540   -2.5320 ha        1 RO5      0.143500
     23 H6         -1.6940    0.5370   -2.6470 ha        1 RO5      0.156000
     24 H10        -5.2270    0.6670   -0.4720 ha        1 RO5      0.143500
     25 H1          3.2530   -1.3640    0.8370 hn        1 RO5      0.256000
     26 HA          0.5720   -1.3570   -0.0850 hn        1 RO5      0.271000
     27 H15         7.6480   -2.1750   -2.1290 DU        1 RO5      0.196000
     28 H12        -1.5640    0.7490    1.4600 ha        1 RO5      0.153000
     29 H201       -4.9490    0.0410    1.9530 hc        1 RO5      0.091500
     30 H202       -3.5700    0.3090    2.7280 hc        1 RO5      0.091500
     31 H211       -4.7830    2.1270    3.3850 hc        1 RO5      0.079333
     32 H212       -5.6180    2.2070    1.9960 hc        1 RO5      0.079333
     33 H213       -4.0770    2.7400    2.0630 hc        1 RO5      0.079333
@<TRIPOS>BOND
     1    1    3 1   
     2    1   22 1   
     3    2   18 1   
     4    2   23 1   
     5    3   24 1   
     6    4    5 1   
     7    4   16 1   
     8    6    7 1   
     9    6   25 1   
    10    7   14 1   
    11    7   15 1   
    12    8   17 1   
    13    9   10 1   
    14    9   15 1   
    15   10   14 1   
    16   11   19 1   
    17   11   28 1   
    18   12   17 1   
    19   16   17 1   
    20   16   26 1   
    21   19   20 1   
    22   20   21 1   
    23   20   29 1   
    24   20   30 1   
    25   21   31 1   
    26   21   32 1   
    27   21   33 1   
@<TRIPOS>SUBSTRUCTURE
     1 RO5         1 TEMP              0 ****  ****    0 ROOT
