@<TRIPOS>MOLECULE
RO5
   34    33     1     0     0
SMALL
bcc


@<TRIPOS>ATOM
      1 C5         -1.8930   -1.1420    0.5620 c2        1 RO5     -0.135000
      2 C6          1.8850    1.3120    0.8120 c2        1 RO5     -1.073000
      3 C10        -1.2240   -0.8650    1.6350 c1        1 RO5     -0.116000
      4 C1          4.5420    3.3020    1.5860 c2        1 RO5      0.353000
      5 O1          3.3780    3.7290    1.4180 o         1 RO5     -0.358000
      6 N1          5.3720    3.7090    2.6180 ns        1 RO5     -0.278000
      7 C4          4.9880    4.6080    3.6220 c2        1 RO5     -0.281000
      8 O3          3.1980    1.3950   -1.2990 o         1 RO5     -0.425900
      9 C15         3.6860    6.1340    4.7750 c1        1 RO5     -0.064000
     10 C14         4.8080    6.0060    5.6040 c2        1 RO5     -0.600000
     11 C12         0.6070    0.2090    2.8200 c2        1 RO5     -0.006000
     12 O2          3.7590   -0.2630    0.2890 o         1 RO5     -0.425900
     13 Br2         5.0650    6.8880    7.1720 br        1 RO5      0.178000
     14 S16         5.9350    4.9230    4.9750 ss        1 RO5      0.674000
     15 N17         3.8050    5.3480    3.6630 n7        1 RO5     -0.109000
     16 N5          4.9780    2.2810    0.6530 nt        1 RO5     -0.452000
     17 C11         1.2590    0.7150    1.8110 c1        1 RO5      0.111000
     18 C8         -0.5940   -0.6060    2.7620 c2        1 RO5     -0.057000
     19 C20        -1.0950   -1.1200    4.0760 c3        1 RO5     -0.122000
     20 C21        -0.1600   -2.1320    4.6890 c3        1 RO5     -0.216000
     21 H5          1.4900    2.3530    0.6010 h4        1 RO5      0.268000
     22 H6         -2.7110   -0.4980    0.1950 ha        1 RO5      0.166500
     23 H10        -1.6950   -2.0430   -0.0430 ha        1 RO5      0.166500
     24 H1          6.3170    3.3900    2.6600 hn        1 RO5      0.264000
     25 HA          5.1940    2.7050   -0.2380 hn        1 RO5      0.224500
     26 H15         3.1100    5.3100    2.9470 hn        1 RO5      0.284000
     27 H12         1.0040    0.3980    3.8470 ha        1 RO5      0.218000
     28 H201       -1.2290   -0.2500    4.7760 hc        1 RO5      0.109500
     29 H202       -2.1070   -1.5870    3.9310 hc        1 RO5      0.109500
     30 H211       -0.0490   -3.0250    4.0270 hc        1 RO5      0.085000
     31 H212       -0.5660   -2.4730    5.6730 hc        1 RO5      0.085000
     32 H213        0.8530   -1.6930    4.8610 hc        1 RO5      0.085000
     33 S2          3.0500    0.8310   -0.0770 s4        1 RO5      2.111800
     34 H52         5.7570    1.7320    0.9710 hn        1 RO5      0.224500
@<TRIPOS>BOND
     1    1    3 1   
     2    1   22 1   
     3    1   23 1   
     4    2   17 1   
     5    2   21 1   
     6    2   33 1   
     7    3   18 1   
     8    4    5 1   
     9    4    6 1   
    10    4   16 1   
    11    6    7 1   
    12    6   24 1   
    13    7   14 1   
    14    7   15 1   
    15    8   33 1   
    16    9   10 1   
    17    9   15 1   
    18   10   13 1   
    19   10   14 1   
    20   11   17 1   
    21   11   18 1   
    22   11   27 1   
    23   12   33 1   
    24   15   26 1   
    25   16   25 1   
    26   16   34 1   
    27   18   19 1   
    28   19   20 1   
    29   19   28 1   
    30   19   29 1   
    31   20   30 1   
    32   20   31 1   
    33   20   32 1   
@<TRIPOS>SUBSTRUCTURE
     1 RO5         1 TEMP              0 ****  ****    0 ROOT
