@<TRIPOS>MOLECULE
RO5
   33    34     1     0     0
SMALL
bcc


@<TRIPOS>ATOM
      1 C5          4.8890    1.1120    1.9290 ca        1 RO5     -0.159000
      2 C6          4.4850   -0.1450    1.4940 ca        1 RO5     -0.017000
      3 C10         4.5320    2.2490    1.2040 ca        1 RO5     -0.055000
      4 C1          0.5820   -1.3190   -0.1370 c         1 RO5      0.787100
      5 O1          0.7010   -0.3820   -0.9560 o         1 RO5     -0.605100
      6 N1         -0.7000   -1.7810    0.2750 n         1 RO5     -0.493400
      7 C4         -1.7980   -0.9090    0.1580 cc        1 RO5      0.446300
      8 O3          4.0240   -2.7840    0.4790 o         1 RO5     -0.636800
      9 C15        -3.5650    0.3010    0.7600 cd        1 RO5      0.384200
     10 C14        -3.6710    0.3970   -0.6340 cc        1 RO5     -0.227300
     11 C12         3.3680    0.8630   -0.3900 ca        1 RO5      0.008000
     12 O2          3.3380   -1.8600   -1.6160 o         1 RO5     -0.636800
     13 BR2        -4.9590    1.3200   -1.5400 br        1 RO5     -0.000100
     14 S16        -2.4380   -0.4490   -1.3680 ss        1 RO5      0.104700
     15 N17        -2.5040   -0.4310    1.2200 nd        1 RO5     -0.667000
     16 N5          1.7230   -1.9910    0.3230 n         1 RO5     -0.659300
     17 C11         3.7190   -0.2870    0.3280 ca        1 RO5     -0.409500
     18 C8          3.7690    2.1320    0.0360 ca        1 RO5     -0.103300
     19 C20         3.3820    3.3470   -0.7350 c3        1 RO5     -0.040100
     20 C21         4.5550    3.9440   -1.4760 c3        1 RO5     -0.092100
     21 H5          5.4910    1.2110    2.8450 ha        1 RO5      0.143000
     22 H6          4.7790   -1.0470    2.0610 ha        1 RO5      0.157000
     23 H10         4.8520    3.2460    1.5470 ha        1 RO5      0.139000
     24 H1         -0.7240   -2.3520    1.0980 hn        1 RO5      0.317500
     25 HA          1.5720   -2.6880    1.0210 hn        1 RO5      0.334500
     26 H15        -4.2450    0.7610    1.4890 h4        1 RO5      0.057100
     27 H12         2.7550    0.7580   -1.3060 ha        1 RO5      0.173000
     28 H201        2.5700    3.0910   -1.4670 hc        1 RO5      0.054200
     29 H202        2.9600    4.1100   -0.0270 hc        1 RO5      0.054200
     30 H211        4.2340    4.8650   -2.0190 hc        1 RO5      0.038700
     31 H212        5.3720    4.2170   -0.7650 hc        1 RO5      0.038700
     32 H213        4.9640    3.2180   -2.2200 hc        1 RO5      0.038700
     33 S2          3.2900   -1.8020   -0.2200 sy        1 RO5      1.525900
@<TRIPOS>BOND
     1    1    2 ar  
     2    1    3 ar  
     3    1   21 1   
     4    2   17 ar  
     5    2   22 1   
     6    3   18 ar  
     7    3   23 1   
     8    4    5 2   
     9    4    6 1   
    10    4   16 1   
    11    6    7 1   
    12    6   24 1   
    13    7   14 1   
    14    7   15 2   
    15    8   33 2   
    16    9   10 2   
    17    9   15 1   
    18    9   26 1   
    19   10   13 1   
    20   10   14 1   
    21   11   17 ar  
    22   11   18 ar  
    23   11   27 1   
    24   12   33 2   
    25   16   25 1   
    26   16   33 1   
    27   17   33 1   
    28   18   19 1   
    29   19   20 1   
    30   19   28 1   
    31   19   29 1   
    32   20   30 1   
    33   20   31 1   
    34   20   32 1   
@<TRIPOS>SUBSTRUCTURE
     1 RO5         1 TEMP              0 ****  ****    0 ROOT
