@<TRIPOS>MOLECULE
RO5
   33    33     1     0     0
SMALL
bcc


@<TRIPOS>ATOM
      1 C5         -1.3120    0.4720    0.4840 c1        1 RO5     -0.141500
      2 C6          1.8840   -0.7530   -0.1000 c2        1 RO5     -0.019000
      3 C10        -0.5290    0.2550    1.3660 cg        1 RO5     -0.167300
      4 C1          3.8420    2.4240    2.4940 c         1 RO5      0.813100
      5 O1          3.4270    1.8440    3.5200 o         1 RO5     -0.599100
      6 N1          4.0490    3.8190    2.4680 n         1 RO5     -0.460500
      7 C4          3.8180    4.6630    3.5470 c2        1 RO5      0.100000
      8 O3          4.6660   -0.2060   -0.1020 o         1 RO5     -0.628300
      9 C15         3.2350    5.3670    5.6760 c1        1 RO5     -0.020900
     10 C14         3.5670    6.5680    5.0630 c2        1 RO5     -0.295800
     11 C12         1.6800   -0.2290    2.2880 cf        1 RO5     -0.111000
     12 O2          4.6570   -0.6050    2.2560 o         1 RO5     -0.628300
     13 BR2         3.5260    8.2190    5.8220 br        1 RO5      0.009300
     14 S16         4.0460    6.3410    3.4420 ss        1 RO5      0.078200
     15 N17         3.3810    4.3050    4.8150 nh        1 RO5     -0.207500
     16 N5          4.1090    1.6870    1.3300 n         1 RO5     -0.656300
     17 C11         2.4310   -0.3280    1.0510 cf        1 RO5     -0.362100
     18 C8          0.3620    0.0210    2.4330 ce        1 RO5      0.057100
     19 C20        -0.2460    0.0980    3.8010 c3        1 RO5     -0.044200
     20 C21        -1.1090   -1.1040    4.1000 c3        1 RO5     -0.091100
     21 H5          2.4760   -0.8330   -1.0290 ha        1 RO5      0.143000
     22 H6         -2.0080    0.6640   -0.2920 ha        1 RO5      0.169500
     23 H10         0.8290   -1.0560   -0.1810 ha        1 RO5      0.143000
     24 H1          4.4090    4.2520    1.6460 hn        1 RO5      0.339500
     25 HA          4.3780    2.2120    0.5260 hn        1 RO5      0.334500
     26 H15         3.1910    3.3600    5.0790 hn        1 RO5      0.340700
     27 H12         2.2960   -0.3640    3.2040 ha        1 RO5      0.166000
     28 H201        0.5670    0.1780    4.5730 hc        1 RO5      0.058200
     29 H202       -0.8650    1.0330    3.8710 hc        1 RO5      0.058200
     30 H211       -0.5020   -2.0410    4.0850 hc        1 RO5      0.039700
     31 H212       -1.9270   -1.2010    3.3450 hc        1 RO5      0.039700
     32 H213       -1.5710   -0.9970    5.1120 hc        1 RO5      0.039700
     33 S2          4.0730    0.0270    1.1580 sy        1 RO5      1.502500
@<TRIPOS>BOND
     1    1    3 3   
     2    1   22 1   
     3    2   17 2   
     4    2   21 1   
     5    2   23 1   
     6    3   18 1   
     7    4    5 2   
     8    4    6 1   
     9    4   16 1   
    10    6    7 2   
    11    6   24 1   
    12    7   14 1   
    13    7   15 1   
    14    8   33 2   
    15    9   10 2   
    16    9   15 2   
    17   10   13 1   
    18   10   14 1   
    19   11   17 1   
    20   11   18 2   
    21   11   27 1   
    22   12   33 2   
    23   15   26 1   
    24   16   25 1   
    25   16   33 1   
    26   17   33 1   
    27   18   19 1   
    28   19   20 1   
    29   19   28 1   
    30   19   29 1   
    31   20   30 1   
    32   20   31 1   
    33   20   32 1   
@<TRIPOS>SUBSTRUCTURE
     1 RO5         1 TEMP              0 ****  ****    0 ROOT
