@<TRIPOS>MOLECULE
RO6
   46    49     1     0     0
SMALL
bcc


@<TRIPOS>ATOM
      1 C1         -2.1090   -0.8010   -0.0370 ca        1 RO6      0.904900
      2 N11        -1.1030   -1.3840    0.7220 nb        1 RO6     -0.804000
      3 C12         0.1780   -1.0550    0.3870 ca        1 RO6      0.624200
      4 N15         1.2340   -1.6110    1.1060 n         1 RO6     -0.546400
      5 C16         2.5850   -1.3480    0.7830 c         1 RO6      0.828500
      6 O19         3.4650   -1.9120    1.4680 o         1 RO6     -0.634500
      7 N17         2.8860   -0.5160   -0.3060 n         1 RO6     -0.392000
      8 C20         4.2340   -0.1140   -0.5140 ca        1 RO6      0.054600
      9 C21         5.0550   -0.8640   -1.3820 ca        1 RO6     -0.096000
     10 C22         6.3710   -0.4770   -1.6170 ca        1 RO6     -0.128000
     11 C23         6.8960    0.6550   -0.9970 ca        1 RO6     -0.112000
     12 C24         6.1050    1.4060   -0.1310 ca        1 RO6     -0.123000
     13 C25         4.7830    1.0280    0.1150 ca        1 RO6      0.018400
     14 CL26        3.8540    1.9640    1.1880 cl        1 RO6     -0.082400
     15 C18         1.8700    0.2230   -1.0300 c3        1 RO6      0.181300
     16 C14         0.4730   -0.1420   -0.6730 ca        1 RO6     -0.440900
     17 N10        -1.9010    0.1170   -1.0660 nb        1 RO6     -0.761000
     18 C13        -0.6260    0.4070   -1.3510 ca        1 RO6      0.497200
     19 N2         -3.4120   -1.2490    0.2270 nh        1 RO6     -0.819900
     20 C3         -4.5680   -0.4610   -0.1660 c3        1 RO6      0.210500
     21 C4         -4.7520    0.8280    0.6550 c3        1 RO6     -0.092900
     22 C5         -5.9370    1.6180    0.1470 c3        1 RO6     -0.092900
     23 C6         -7.2100    0.7800    0.2060 c3        1 RO6      0.139100
     24 O9         -8.2430    1.5770   -0.3610 oh        1 RO6     -0.597800
     25 C7         -7.0380   -0.5240   -0.5670 c3        1 RO6     -0.092900
     26 C8         -5.8510   -1.3080   -0.0550 c3        1 RO6     -0.092900
     27 HN15        1.0670   -2.2560    1.8470 hn        1 RO6      0.360500
     28 H21         4.6550   -1.7670   -1.8690 ha        1 RO6      0.151000
     29 H22         6.9990   -1.0750   -2.2950 ha        1 RO6      0.141000
     30 H23         7.9380    0.9550   -1.1840 ha        1 RO6      0.141000
     31 H24         6.5220    2.2950    0.3660 ha        1 RO6      0.151000
     32 H18         2.0160    1.3310   -0.8520 h1        1 RO6      0.052200
     33 H18A        2.0370    0.0310   -2.1320 h1        1 RO6      0.052200
     34 H13        -0.4750    1.1310   -2.1740 h4        1 RO6      0.029100
     35 HN2        -3.5220   -1.7450    1.0880 hn        1 RO6      0.426800
     36 H3         -4.4410   -0.1720   -1.2520 h1        1 RO6      0.090700
     37 H4         -4.9020    0.5720    1.7360 hc        1 RO6      0.050450
     38 H4A        -3.8300    1.4610    0.5770 hc        1 RO6      0.050450
     39 H5         -6.0760    2.5410    0.7670 hc        1 RO6      0.056200
     40 H5A        -5.7620    1.9470   -0.9100 hc        1 RO6      0.056200
     41 H6         -7.4680    0.5510    1.2790 h1        1 RO6      0.032700
     42 HO9        -9.0380    1.0300   -0.3780 ho        1 RO6      0.399000
     43 H7         -7.9660   -1.1450   -0.4660 hc        1 RO6      0.056200
     44 H7A        -6.9070   -0.2890   -1.6560 hc        1 RO6      0.056200
     45 H8         -5.7400   -2.2480   -0.6560 hc        1 RO6      0.050450
     46 H8A        -6.0250   -1.6020    1.0130 hc        1 RO6      0.050450
@<TRIPOS>BOND
     1    1    2 ar  
     2    1   17 ar  
     3    1   19 1   
     4    2    3 ar  
     5    3    4 1   
     6    3   16 ar  
     7    4    5 1   
     8    4   27 1   
     9    5    6 2   
    10    5    7 1   
    11    7    8 1   
    12    7   15 1   
    13    8    9 ar  
    14    8   13 ar  
    15    9   10 ar  
    16    9   28 1   
    17   10   11 ar  
    18   10   29 1   
    19   11   12 ar  
    20   11   30 1   
    21   12   13 ar  
    22   12   31 1   
    23   13   14 1   
    24   15   16 1   
    25   15   32 1   
    26   15   33 1   
    27   16   18 ar  
    28   17   18 ar  
    29   18   34 1   
    30   19   20 1   
    31   19   35 1   
    32   20   21 1   
    33   20   26 1   
    34   20   36 1   
    35   21   22 1   
    36   21   37 1   
    37   21   38 1   
    38   22   23 1   
    39   22   39 1   
    40   22   40 1   
    41   23   24 1   
    42   23   25 1   
    43   23   41 1   
    44   24   42 1   
    45   25   26 1   
    46   25   43 1   
    47   25   44 1   
    48   26   45 1   
    49   26   46 1   
@<TRIPOS>SUBSTRUCTURE
     1 RO6         1 TEMP              0 ****  ****    0 ROOT
