@<TRIPOS>MOLECULE
RO6
   46    45     1     0     0
SMALL
bcc


@<TRIPOS>ATOM
      1 C1         -0.6890   -0.7230   -1.1360 c1        1 RO6      0.186000
      2 N11         0.6510   -0.9380   -1.1070 n1        1 RO6     -0.276000
      3 C12         1.3250   -0.8930    0.0800 c1        1 RO6      0.212000
      4 N15         2.7540   -1.2080    0.1250 n         1 RO6     -0.311000
      5 C16         3.4950   -0.9870    1.3220 c2        1 RO6      0.412000
      6 O19         4.7070   -1.0190    1.2980 o         1 RO6     -0.362000
      7 N17         2.8120   -0.7190    2.5480 n         1 RO6     -0.285000
      8 C20         3.5450   -0.7170    3.7990 c2        1 RO6      0.063000
      9 C21         3.6710   -1.8830    4.5290 c2        1 RO6     -0.111000
     10 C22         4.3510   -1.8750    5.7470 c1        1 RO6     -0.122000
     11 C23         4.8970   -0.7030    6.2220 c1        1 RO6     -0.120500
     12 C24         4.7680    0.4770    5.4820 c1        1 RO6     -0.120500
     13 C25         4.0950    0.4650    4.2770 c1        1 RO6     -0.057000
     14 CL26        3.8970    1.9580    3.3660 cl        1 RO6     -0.002000
     15 C18         1.4090   -0.5430    2.5510 c3        1 RO6      0.054000
     16 C14         0.6520   -0.6330    1.2290 c2        1 RO6     -0.301000
     17 N10        -1.3710   -0.4590    0.0350 n1        1 RO6     -0.235000
     18 C13        -0.7140   -0.4150    1.1970 c2        1 RO6      0.034000
     19 N2         -1.3570   -0.6560   -2.3900 n3        1 RO6     -0.265000
     20 C3         -2.3380    0.3610   -2.6250 c3        1 RO6      0.013000
     21 C4         -3.6890   -0.2960   -2.8240 c3        1 RO6     -0.171500
     22 C5         -4.7660    0.6990   -3.2630 c3        1 RO6     -0.171500
     23 C6         -4.3460    1.5160   -4.4600 c3        1 RO6      0.028000
     24 O9         -5.3190    2.5210   -4.6920 oh        1 RO6     -0.325000
     25 C7         -2.9850    2.1800   -4.2650 c3        1 RO6     -0.171500
     26 C8         -1.9110    1.1870   -3.8300 c3        1 RO6     -0.171500
     27 HN15        3.1820   -1.5580   -0.6330 hn        1 RO6      0.272000
     28 H21         3.2830   -2.7160    4.1900 ha        1 RO6      0.151000
     29 H22         4.4420   -2.7240    6.2790 ha        1 RO6      0.141000
     30 H23         5.3720   -0.6950    7.0720 ha        1 RO6      0.145500
     31 H24         5.1600    1.3210    5.8230 ha        1 RO6      0.145500
     32 H18         1.2210    0.3430    2.9380 h1        1 RO6      0.094000
     33 H18A        1.0340   -1.2100    3.1460 h1        1 RO6      0.094000
     34 H13        -1.2130   -0.2220    2.0520 h4        1 RO6      0.167000
     35 HN2        -1.1190   -1.2230   -3.0610 hn        1 RO6      0.223000
     36 H3         -2.3850    0.9610   -1.8170 h1        1 RO6      0.131000
     37 H4         -3.9630   -0.7070   -1.9920 hc        1 RO6      0.090000
     38 H4A        -3.6020   -1.0060   -3.5250 hc        1 RO6      0.090000
     39 H5         -4.9590    1.3190   -2.5020 hc        1 RO6      0.095500
     40 H5A        -5.6010    0.1950   -3.4890 hc        1 RO6      0.095500
     41 H6         -4.3050    0.9370   -5.2310 h1        1 RO6      0.071000
     42 HO9        -5.5050    2.5580   -5.5660 ho        1 RO6      0.198000
     43 H7         -2.7040    2.6040   -5.1270 hc        1 RO6      0.095500
     44 H7A        -3.0660    2.8620   -3.5950 hc        1 RO6      0.095500
     45 H8         -1.7180    0.5860   -4.5730 hc        1 RO6      0.090000
     46 H8A        -1.0980    1.6800   -3.6040 hc        1 RO6      0.090000
@<TRIPOS>BOND
     1    1    2 1   
     2    1   19 1   
     3    3    4 1   
     4    3   16 1   
     5    4    5 1   
     6    4   27 1   
     7    5    6 1   
     8    5    7 1   
     9    7    8 1   
    10    7   15 1   
    11    8    9 1   
    12    8   13 1   
    13    9   10 1   
    14    9   28 1   
    15   10   29 1   
    16   11   12 1   
    17   11   30 1   
    18   12   31 1   
    19   13   14 1   
    20   15   16 1   
    21   15   32 1   
    22   15   33 1   
    23   16   18 1   
    24   17   18 1   
    25   18   34 1   
    26   19   20 1   
    27   19   35 1   
    28   20   21 1   
    29   20   26 1   
    30   20   36 1   
    31   21   22 1   
    32   21   37 1   
    33   21   38 1   
    34   22   23 1   
    35   22   39 1   
    36   22   40 1   
    37   23   24 1   
    38   23   25 1   
    39   23   41 1   
    40   24   42 1   
    41   25   26 1   
    42   25   43 1   
    43   25   44 1   
    44   26   45 1   
    45   26   46 1   
@<TRIPOS>SUBSTRUCTURE
     1 RO6         1 TEMP              0 ****  ****    0 ROOT
