@<TRIPOS>MOLECULE
RO6
   46    49     1     0     0
SMALL
bcc


@<TRIPOS>ATOM
      1 C1         -0.0750    0.2150    0.0320 ca        1 RO6      0.904900
      2 N11         1.3060    0.0960   -0.0690 nb        1 RO6     -0.804000
      3 C12         2.0020    0.0900    1.1050 ca        1 RO6      0.624200
      4 N15         3.3900   -0.0200    1.0730 ns        1 RO6     -0.546400
      5 C16         4.1750    0.0150    2.2470 c         1 RO6      0.828500
      6 O19         5.4150   -0.0630    2.1180 o         1 RO6     -0.634500
      7 N17         3.5490    0.1820    3.4920 n         1 RO6     -0.392000
      8 C20         4.3230    0.0370    4.6770 ca        1 RO6      0.054600
      9 C21         4.8980    1.1790    5.2720 ca        1 RO6     -0.096000
     10 C22         5.6410    1.0640    6.4440 ca        1 RO6     -0.128000
     11 C23         5.8280   -0.1800    7.0430 ca        1 RO6     -0.112000
     12 C24         5.2740   -1.3210    6.4680 ca        1 RO6     -0.123000
     13 C25         4.5270   -1.2200    5.2910 ca        1 RO6      0.018400
     14 Cl26        3.8780   -2.6390    4.6150 cl        1 RO6     -0.082400
     15 C18         2.1080    0.1600    3.6510 c3        1 RO6      0.181300
     16 C14         1.3480    0.1780    2.3740 ca        1 RO6     -0.440900
     17 N10        -0.7830    0.2780    1.2310 nb        1 RO6     -0.761000
     18 C13        -0.0520    0.2640    2.3520 ca        1 RO6      0.497200
     19 N2         -0.7670    0.3550   -1.1790 nu        1 RO6     -0.819900
     20 C3         -2.1890    0.0720   -1.2670 c3        1 RO6      0.210500
     21 C4         -2.5370   -1.4220   -1.1430 c3        1 RO6     -0.092900
     22 C5         -4.0340   -1.6260   -1.1820 c3        1 RO6     -0.092900
     23 C6         -4.6220   -1.0620   -2.4720 c3        1 RO6      0.139100
     24 O9         -6.0310   -1.2300   -2.3800 oh        1 RO6     -0.597800
     25 C7         -4.2550    0.4100   -2.6390 c3        1 RO6     -0.092900
     26 C8         -2.7570    0.6060   -2.5960 c3        1 RO6     -0.092900
     27 HN15        3.8810   -0.0770    0.2060 hn        1 RO6      0.360500
     28 H21         4.7680    2.1670    4.8020 ha        1 RO6      0.151000
     29 H22         6.0860    1.9650    6.8940 ha        1 RO6      0.141000
     30 H23         6.4180   -0.2660    7.9680 ha        1 RO6      0.141000
     31 H24         5.4280   -2.3050    6.9360 ha        1 RO6      0.151000
     32 H18         1.8120   -0.7580    4.2420 h1        1 RO6      0.052200
     33 H18A        1.8260    1.0660    4.2680 h1        1 RO6      0.052200
     34 H13        -0.6270    0.3220    3.2960 h4        1 RO6      0.029100
     35 HN2        -0.2450    0.1080   -1.9950 hn        1 RO6      0.427800
     36 H3         -2.7070    0.6250   -0.4260 h1        1 RO6      0.090700
     37 H4         -2.1380   -1.8230   -0.1740 hc        1 RO6      0.050450
     38 H4A        -2.0530   -1.9950   -1.9760 hc        1 RO6      0.050450
     39 H5         -4.5200   -1.1210   -0.3070 hc        1 RO6      0.056200
     40 H5A        -4.2740   -2.7180   -1.1170 hc        1 RO6      0.056200
     41 H6         -4.2380   -1.6480   -3.3560 h1        1 RO6      0.032700
     42 HO9        -6.4110   -0.8240   -3.1680 ho        1 RO6      0.399000
     43 H7         -4.7470    1.0030   -1.8240 hc        1 RO6      0.056200
     44 H7A        -4.6530    0.7860   -3.6170 hc        1 RO6      0.056200
     45 H8         -2.5230    1.6980   -2.7010 hc        1 RO6      0.050450
     46 H8A        -2.2810    0.0700   -3.4580 hc        1 RO6      0.050450
@<TRIPOS>BOND
     1    1    2 ar  
     2    1   17 ar  
     3    1   19 1   
     4    2    3 ar  
     5    3    4 1   
     6    3   16 ar  
     7    4    5 1   
     8    4   27 1   
     9    5    6 2   
    10    5    7 1   
    11    7    8 1   
    12    7   15 1   
    13    8    9 ar  
    14    8   13 ar  
    15    9   10 ar  
    16    9   28 1   
    17   10   11 ar  
    18   10   29 1   
    19   11   12 ar  
    20   11   30 1   
    21   12   13 ar  
    22   12   31 1   
    23   13   14 1   
    24   15   16 1   
    25   15   32 1   
    26   15   33 1   
    27   16   18 ar  
    28   17   18 ar  
    29   18   34 1   
    30   19   20 1   
    31   19   35 1   
    32   20   21 1   
    33   20   26 1   
    34   20   36 1   
    35   21   22 1   
    36   21   37 1   
    37   21   38 1   
    38   22   23 1   
    39   22   39 1   
    40   22   40 1   
    41   23   24 1   
    42   23   25 1   
    43   23   41 1   
    44   24   42 1   
    45   25   26 1   
    46   25   43 1   
    47   25   44 1   
    48   26   45 1   
    49   26   46 1   
@<TRIPOS>SUBSTRUCTURE
     1 RO6         1 TEMP              0 ****  ****    0 ROOT
