@<TRIPOS>MOLECULE
RO6
   47    50     1     0     0
SMALL
bcc


@<TRIPOS>ATOM
      1 C1         -0.0920    1.0020   -0.0290 ca        1 RO6      0.746900
      2 N11         1.0370    0.2340   -0.1050 nb        1 RO6     -0.748000
      3 C12         1.7730    0.1530    1.0580 ca        1 RO6      0.625200
      4 N15         2.9220   -0.6000    1.0920 n         1 RO6     -0.531400
      5 C16         3.7610   -0.6560    2.2530 c         1 RO6      0.817500
      6 O19         4.7940   -1.3380    2.1500 o         1 RO6     -0.566500
      7 N17         3.4160    0.1000    3.3810 n         1 RO6     -0.369000
      8 C20         4.1200   -0.1430    4.6000 ca        1 RO6      0.013600
      9 C21         5.1890    0.7030    4.9540 ca        1 RO6     -0.087000
     10 C22         5.8810    0.4940    6.1440 ca        1 RO6     -0.121000
     11 C23         5.5280   -0.5520    6.9940 ca        1 RO6     -0.094000
     12 C24         4.4770   -1.4030    6.6570 ca        1 RO6     -0.113000
     13 C25         3.7730   -1.2050    5.4660 ca        1 RO6      0.017400
     14 CL26        2.5030   -2.2680    5.0770 cl        1 RO6     -0.085400
     15 C18         2.1250    0.7450    3.5130 c3        1 RO6      0.147300
     16 C14         1.3450    0.8480    2.2470 ca        1 RO6     -0.327900
     17 N10        -0.5740    1.6970    1.0450 nb        1 RO6     -0.701000
     18 C13         0.1700    1.5990    2.1720 ca        1 RO6      0.480200
     19 N2         -0.8880    1.1000   -1.2930 n4        1 RO6     -0.746700
     20 C3         -2.1440    0.2560   -1.2430 c3        1 RO6      0.127500
     21 C4         -1.8280   -1.2340   -1.4030 c3        1 RO6     -0.096900
     22 C5         -3.1060   -2.0360   -1.2750 c3        1 RO6     -0.100900
     23 C6         -4.1390   -1.5950   -2.3100 c3        1 RO6      0.141100
     24 O9         -5.3210   -2.3190   -2.0090 oh        1 RO6     -0.580800
     25 C7         -4.4030   -0.0930   -2.2190 c3        1 RO6     -0.100900
     26 C8         -3.1210    0.7040   -2.3390 c3        1 RO6     -0.096900
     27 HN15        3.2500   -1.0930    0.2850 hn        1 RO6      0.373500
     28 H21         5.4890    1.5260    4.2860 ha        1 RO6      0.153000
     29 H22         6.7180    1.1610    6.4080 ha        1 RO6      0.154000
     30 H23         6.0830   -0.7150    7.9320 ha        1 RO6      0.156000
     31 H24         4.2030   -2.2360    7.3250 ha        1 RO6      0.163000
     32 H18         1.4940    0.1910    4.2760 h1        1 RO6      0.083700
     33 H18A        2.3150    1.7850    3.9190 h1        1 RO6      0.083700
     34 H13        -0.2180    2.1640    3.0440 h4        1 RO6      0.069100
     35 HN2        -0.3070    0.7950   -2.0850 hn        1 RO6      0.469300
     36 H3         -2.6200    0.4340   -0.2310 hx        1 RO6      0.125700
     37 H4         -1.1040   -1.5690   -0.6140 hc        1 RO6      0.067700
     38 H4A        -1.3600   -1.4240   -2.4050 hc        1 RO6      0.067700
     39 H5         -2.8790   -3.1240   -1.4250 hc        1 RO6      0.078700
     40 H5A        -3.5420   -1.9240   -0.2480 hc        1 RO6      0.078700
     41 H6         -3.7800   -1.8540   -3.3450 h1        1 RO6      0.044700
     42 HO9        -5.9470   -2.1520   -2.7250 ho        1 RO6      0.416000
     43 H7         -5.1010    0.2150   -3.0420 hc        1 RO6      0.078700
     44 H7A        -4.9130    0.1320   -1.2460 hc        1 RO6      0.078700
     45 H8         -2.6680    0.5390   -3.3520 hc        1 RO6      0.067700
     46 H8A        -3.3580    1.7960   -2.2340 hc        1 RO6      0.067700
     47 H221       -1.1540    2.0840   -1.4310 hn        1 RO6      0.469300
@<TRIPOS>BOND
     1    1    2 ar  
     2    1   17 ar  
     3    1   19 1   
     4    2    3 ar  
     5    3    4 1   
     6    3   16 ar  
     7    4    5 1   
     8    4   27 1   
     9    5    6 2   
    10    5    7 1   
    11    7    8 1   
    12    7   15 1   
    13    8    9 ar  
    14    8   13 ar  
    15    9   10 ar  
    16    9   28 1   
    17   10   11 ar  
    18   10   29 1   
    19   11   12 ar  
    20   11   30 1   
    21   12   13 ar  
    22   12   31 1   
    23   13   14 1   
    24   15   16 1   
    25   15   32 1   
    26   15   33 1   
    27   16   18 ar  
    28   17   18 ar  
    29   18   34 1   
    30   19   20 1   
    31   19   35 1   
    32   19   47 1   
    33   20   21 1   
    34   20   26 1   
    35   20   36 1   
    36   21   22 1   
    37   21   37 1   
    38   21   38 1   
    39   22   23 1   
    40   22   39 1   
    41   22   40 1   
    42   23   24 1   
    43   23   25 1   
    44   23   41 1   
    45   24   42 1   
    46   25   26 1   
    47   25   43 1   
    48   25   44 1   
    49   26   45 1   
    50   26   46 1   
@<TRIPOS>SUBSTRUCTURE
     1 RO6         1 TEMP              0 ****  ****    0 ROOT
