@<TRIPOS>MOLECULE
RO7
   53    56     1     0     0
SMALL
bcc


@<TRIPOS>ATOM
      1 C25         2.6160   -0.0140   -2.1170 c3        1 RO7     -0.134400
      2 C7          3.5880    0.1450   -1.0360 cc        1 RO7      0.175700
      3 O3          4.8490   -0.4290   -1.2200 os        1 RO7     -0.382800
      4 C2          5.5640   -0.1340   -0.0380 cc        1 RO7      0.531900
      5 C16         6.9290   -0.6230    0.0440 ca        1 RO7     -0.122500
      6 C26         7.4780   -1.3680   -1.0100 ca        1 RO7     -0.094500
      7 C29         8.7880   -1.8340   -0.9220 ca        1 RO7     -0.140000
      8 C31         9.5560   -1.5620    0.2100 ca        1 RO7     -0.119000
      9 C30         9.0110   -0.8210    1.2590 ca        1 RO7     -0.140000
     10 C27         7.7020   -0.3500    1.1830 ca        1 RO7     -0.094500
     11 N1          4.8290    0.5680    0.8300 nd        1 RO7     -0.654000
     12 C4          3.5760    0.7560    0.2190 cd        1 RO7      0.239300
     13 C20         2.4640    1.5100    0.8400 c3        1 RO7     -0.111700
     14 C23         1.2450    0.6140    1.0270 c3        1 RO7      0.129400
     15 O22         0.1680    1.4870    1.3890 os        1 RO7     -0.341900
     16 C13        -1.0960    0.9980    1.0890 ca        1 RO7      0.124100
     17 C19        -1.4070   -0.3570    1.0050 ca        1 RO7     -0.197000
     18 C17        -2.7170   -0.7630    0.7180 ca        1 RO7     -0.084000
     19 C5         -2.1060    1.9610    0.9040 ca        1 RO7     -0.113800
     20 C15        -2.0180    3.3980    0.9660 cc        1 RO7     -0.110200
     21 C12        -3.2270    3.9880    0.7340 cd        1 RO7     -0.184400
     22 C6         -3.4310    1.5280    0.6190 ca        1 RO7     -0.043100
     23 S9         -4.4570    2.8680    0.4420 ss        1 RO7      0.003500
     24 C8         -3.7390    0.1640    0.5160 ca        1 RO7     -0.041300
     25 C11        -5.1200   -0.3000    0.2200 c3        1 RO7     -0.036100
     26 C14        -5.2300   -0.9320   -1.1680 c3        1 RO7      0.027100
     27 O24        -6.6010   -0.7260   -1.5500 os        1 RO7     -0.438600
     28 C28        -6.8560   -1.0300   -2.9080 c3        1 RO7      0.116700
     29 C10        -4.8480   -2.4370   -1.1810 c         1 RO7      0.898600
     30 O21        -4.6580   -3.0310   -0.0820 o         1 RO7     -0.837300
     31 O18        -4.7070   -2.9860   -2.3100 o         1 RO7     -0.837300
     32 H25         3.1290   -0.0610   -3.1100 hc        1 RO7      0.067700
     33 H25A        2.0340   -0.9610   -1.9740 hc        1 RO7      0.067700
     34 H25B        1.9020    0.8480   -2.1100 hc        1 RO7      0.067700
     35 H26         6.8680   -1.5830   -1.9010 ha        1 RO7      0.153000
     36 H29         9.2150   -2.4200   -1.7490 ha        1 RO7      0.133000
     37 H31        10.5890   -1.9320    0.2760 ha        1 RO7      0.129000
     38 H30         9.6150   -0.6070    2.1530 ha        1 RO7      0.133000
     39 H27         7.2740    0.2330    2.0140 ha        1 RO7      0.153000
     40 H20         2.7670    1.9380    1.8310 hc        1 RO7      0.071200
     41 H20A        2.1880    2.3710    0.1720 hc        1 RO7      0.071200
     42 H23         1.0100    0.0630    0.0780 h1        1 RO7      0.046200
     43 H23A        1.4040   -0.1200    1.8590 h1        1 RO7      0.046200
     44 H19        -0.6320   -1.1210    1.1610 ha        1 RO7      0.130000
     45 H17        -2.9680   -1.8420    0.6320 ha        1 RO7      0.206000
     46 H15        -1.0760    3.9070    1.1790 ha        1 RO7      0.149000
     47 H12        -3.4230    5.0580    0.7260 h4        1 RO7      0.154000
     48 H11        -5.4180   -1.0810    0.9740 hc        1 RO7      0.063700
     49 H11A       -5.8410    0.5580    0.2960 hc        1 RO7      0.063700
     50 H14        -4.5710   -0.3910   -1.9020 h1        1 RO7      0.023700
     51 H28        -7.9690   -0.9760   -3.0040 h1        1 RO7      0.027700
     52 H28A       -6.3760   -0.2620   -3.5670 h1        1 RO7      0.027700
     53 H28B       -6.4780   -2.0490   -3.1750 h1        1 RO7      0.027700
@<TRIPOS>BOND
     1    1    2 1   
     2    1   32 1   
     3    1   33 1   
     4    1   34 1   
     5    2    3 1   
     6    2   12 2   
     7    3    4 1   
     8    4    5 1   
     9    4   11 2   
    10    5    6 ar  
    11    5   10 ar  
    12    6    7 ar  
    13    6   35 1   
    14    7    8 ar  
    15    7   36 1   
    16    8    9 ar  
    17    8   37 1   
    18    9   10 ar  
    19    9   38 1   
    20   10   39 1   
    21   11   12 1   
    22   12   13 1   
    23   13   14 1   
    24   13   40 1   
    25   13   41 1   
    26   14   15 1   
    27   14   42 1   
    28   14   43 1   
    29   15   16 1   
    30   16   17 ar  
    31   16   19 ar  
    32   17   18 ar  
    33   17   44 1   
    34   18   24 ar  
    35   18   45 1   
    36   19   20 1   
    37   19   22 ar  
    38   20   21 2   
    39   20   46 1   
    40   21   23 1   
    41   21   47 1   
    42   22   23 1   
    43   22   24 ar  
    44   24   25 1   
    45   25   26 1   
    46   25   48 1   
    47   25   49 1   
    48   26   27 1   
    49   26   29 1   
    50   26   50 1   
    51   27   28 1   
    52   28   51 1   
    53   28   52 1   
    54   28   53 1   
    55   29   30 1   
    56   29   31 1   
@<TRIPOS>SUBSTRUCTURE
     1 RO7         1 TEMP              0 ****  ****    0 ROOT
