@<TRIPOS>MOLECULE
RO7
   53    56     1     0     0
SMALL
bcc


@<TRIPOS>ATOM
      1 C25         0.7860    1.4740   -0.6420 c3        1 RO7     -0.134400
      2 C7          2.1200    0.8870   -0.5280 cc        1 RO7      0.175700
      3 O3          2.6480    0.7420    0.7580 os        1 RO7     -0.382800
      4 C2          3.9260    0.1710    0.5700 cc        1 RO7      0.531900
      5 C16         4.7120   -0.0910    1.7630 ca        1 RO7     -0.122500
      6 C26         4.2060    0.2390    3.0290 ca        1 RO7     -0.094500
      7 C29         4.9660   -0.0150    4.1680 ca        1 RO7     -0.140000
      8 C31         6.2300   -0.5950    4.0540 ca        1 RO7     -0.119000
      9 C30         6.7350   -0.9220    2.7960 ca        1 RO7     -0.140000
     10 C27         5.9830   -0.6730    1.6490 ca        1 RO7     -0.094500
     11 N1          4.1980   -0.0330   -0.7230 nd        1 RO7     -0.654000
     12 C4          3.0700    0.4120   -1.4350 cd        1 RO7      0.240300
     13 C20         2.9480    0.3440   -2.9080 c3        1 RO7     -0.111700
     14 C23         2.7680    1.7370   -3.4990 c3        1 RO7      0.129400
     15 O22         2.4120    1.5390   -4.8720 os        1 RO7     -0.341900
     16 C13         1.6980    2.5850   -5.4400 ca        1 RO7      0.124100
     17 C19         1.7860    3.9090   -5.0140 ca        1 RO7     -0.197000
     18 C17         1.0460    4.9070   -5.6600 ca        1 RO7     -0.084000
     19 C5          0.8770    2.2550   -6.5350 ca        1 RO7     -0.113800
     20 C15         0.6520    0.9720   -7.1510 cc        1 RO7     -0.110200
     21 C12        -0.2170    1.0620   -8.2010 cd        1 RO7     -0.184400
     22 C6          0.1360    3.2840   -7.1800 ca        1 RO7     -0.043100
     23 S9         -0.7680    2.6370   -8.4600 ss        1 RO7      0.003500
     24 C8          0.2120    4.6130   -6.7390 ca        1 RO7     -0.041300
     25 C11        -0.5560    5.6970   -7.4060 c3        1 RO7     -0.036100
     26 C14        -1.6710    6.2460   -6.5160 c3        1 RO7      0.027100
     27 O24        -2.6560    6.7440   -7.4370 os        1 RO7     -0.438600
     28 C28        -3.8810    7.0840   -6.8170 c3        1 RO7      0.116700
     29 C10        -1.1800    7.3540   -5.5430 c         1 RO7      0.898600
     30 O21        -0.0100    7.8120   -5.6770 o         1 RO7     -0.837300
     31 O18        -1.9770    7.7140   -4.6310 o         1 RO7     -0.837300
     32 H25         0.1620    1.2200    0.2510 hc        1 RO7      0.067700
     33 H25A        0.2840    1.0890   -1.5650 hc        1 RO7      0.067700
     34 H25B        0.8610    2.5900   -0.7160 hc        1 RO7      0.067700
     35 H26         3.2090    0.6990    3.1150 ha        1 RO7      0.153000
     36 H29         4.5680    0.2460    5.1590 ha        1 RO7      0.133000
     37 H31         6.8280   -0.7920    4.9550 ha        1 RO7      0.129000
     38 H30         7.7320   -1.3780    2.7040 ha        1 RO7      0.133000
     39 H27         6.3860   -0.9310    0.6570 ha        1 RO7      0.153000
     40 H20         3.8490   -0.1420   -3.3690 hc        1 RO7      0.071200
     41 H20A        2.0550   -0.2860   -3.1720 hc        1 RO7      0.071200
     42 H23         1.9610    2.2960   -2.9540 h1        1 RO7      0.046200
     43 H23A        3.7230    2.3220   -3.4600 h1        1 RO7      0.046200
     44 H19         2.4340    4.1850   -4.1710 ha        1 RO7      0.130000
     45 H17         1.0970    5.9620   -5.3150 ha        1 RO7      0.206000
     46 H15         1.1420    0.0670   -6.7890 ha        1 RO7      0.149000
     47 H12        -0.5470    0.2370   -8.8270 h4        1 RO7      0.154000
     48 H11         0.1390    6.5500   -7.6460 hc        1 RO7      0.063700
     49 H11A       -0.9990    5.3220   -8.3680 hc        1 RO7      0.063700
     50 H14        -2.1350    5.4210   -5.9090 h1        1 RO7      0.023700
     51 H28        -3.7210    7.7640   -5.9420 h1        1 RO7      0.027700
     52 H28A       -4.4110    6.1550   -6.4840 h1        1 RO7      0.027700
     53 H28B       -4.4710    7.5930   -7.6200 h1        1 RO7      0.027700
@<TRIPOS>BOND
     1    1    2 1   
     2    1   32 1   
     3    1   33 1   
     4    1   34 1   
     5    2    3 1   
     6    2   12 2   
     7    3    4 1   
     8    4    5 1   
     9    4   11 2   
    10    5    6 ar  
    11    5   10 ar  
    12    6    7 ar  
    13    6   35 1   
    14    7    8 ar  
    15    7   36 1   
    16    8    9 ar  
    17    8   37 1   
    18    9   10 ar  
    19    9   38 1   
    20   10   39 1   
    21   11   12 1   
    22   12   13 1   
    23   13   14 1   
    24   13   40 1   
    25   13   41 1   
    26   14   15 1   
    27   14   42 1   
    28   14   43 1   
    29   15   16 1   
    30   16   17 ar  
    31   16   19 ar  
    32   17   18 ar  
    33   17   44 1   
    34   18   24 ar  
    35   18   45 1   
    36   19   20 1   
    37   19   22 ar  
    38   20   21 2   
    39   20   46 1   
    40   21   23 1   
    41   21   47 1   
    42   22   23 1   
    43   22   24 ar  
    44   24   25 1   
    45   25   26 1   
    46   25   48 1   
    47   25   49 1   
    48   26   27 1   
    49   26   29 1   
    50   26   50 1   
    51   27   28 1   
    52   28   51 1   
    53   28   52 1   
    54   28   53 1   
    55   29   30 1   
    56   29   31 1   
@<TRIPOS>SUBSTRUCTURE
     1 RO7         1 TEMP              0 ****  ****    0 ROOT
