@<TRIPOS>MOLECULE
RO7
   53    46     1     0     0
SMALL
bcc


@<TRIPOS>ATOM
      1 C25        -1.3710   -3.8420    3.8760 c3        1 RO7     -0.172000
      2 C7         -0.0190   -3.1930    3.6690 c2        1 RO7      0.007000
      3 O3          0.9380   -3.0480    4.6000 os        1 RO7     -0.122000
      4 C2          1.9950   -2.4120    4.0220 c2        1 RO7      0.000000
      5 C16         3.1840   -2.0710    4.6500 c1        1 RO7      0.000000
      6 C26         4.3110   -2.8590    4.4730 c1        1 RO7     -0.099000
      7 C29         5.4920   -2.5340    5.1220 c1        1 RO7     -0.128250
      8 C31         5.5470   -1.4220    5.9470 c1        1 RO7     -0.128250
      9 C30         4.4200   -0.6350    6.1240 c1        1 RO7     -0.128250
     10 C27         3.2390   -0.9590    5.4750 c1        1 RO7     -0.128250
     11 N1          1.6780   -2.1650    2.7240 n2        1 RO7     -0.129000
     12 C4          0.4410   -2.6420    2.4990 c1        1 RO7     -0.169000
     13 C20        -0.2730   -2.6700    1.1600 c2        1 RO7     -0.112000
     14 C23        -0.3620   -1.2620    0.6050 c3        1 RO7     -0.012000
     15 O22        -0.6230   -1.3190   -0.7830 os        1 RO7     -0.230000
     16 C13        -0.7740   -0.0550   -1.3880 c2        1 RO7      0.078000
     17 C19        -1.5880    0.9530   -0.8570 c2        1 RO7     -0.187000
     18 C17        -1.8680    2.1110   -1.6170 c1        1 RO7     -0.084000
     19 C5         -0.2430    0.0820   -2.6600 c1        1 RO7     -0.098000
     20 C15         0.6950   -0.8850   -3.5360 c1        1 RO7     -0.120000
     21 C12         0.9390   -0.2470   -4.8110 c1        1 RO7     -0.421000
     22 C6         -0.5270    1.2550   -3.4310 c1        1 RO7     -0.269000
     23 S9          0.1960    1.1090   -4.8140 s         1 RO7      0.460000
     24 C8         -1.3330    2.2510   -2.9030 c1        1 RO7     -0.033000
     25 C11        -1.4210    3.5840   -3.6180 c3        1 RO7     -0.145000
     26 C14        -2.7780    3.7150   -4.2750 c3        1 RO7     -0.034000
     27 O24        -2.6150    4.1350   -5.6060 os        1 RO7     -0.294000
     28 C28        -3.7740    3.9910   -6.3960 c3        1 RO7     -0.063000
     29 C10        -3.6060    4.7330   -3.5230 c2        1 RO7      0.314000
     30 O21        -3.2420    5.9370   -3.4860 o         1 RO7     -0.575000
     31 O18        -4.6790    4.3820   -2.9640 o         1 RO7     -0.575000
     32 H25        -1.5120   -4.5290    3.1900 hc        1 RO7      0.130667
     33 H25A       -2.0740   -3.1630    3.8070 hc        1 RO7      0.130667
     34 H25B       -1.4020   -4.2570    4.7640 hc        1 RO7      0.130667
     35 H26         4.2730   -3.6420    3.8920 ha        1 RO7      0.152000
     36 H29         6.2860   -3.0890    4.9970 ha        1 RO7      0.134250
     37 H31         6.3780   -1.1940    6.4040 ha        1 RO7      0.134250
     38 H30         4.4530    0.1380    6.7190 ha        1 RO7      0.134250
     39 H27         2.4450   -0.4050    5.5990 ha        1 RO7      0.134250
     40 H20         0.2250   -3.2360    0.5370 ha        1 RO7      0.110000
     41 H20A       -1.1750   -3.0310    1.2790 ha        1 RO7      0.110000
     42 H23         0.4860   -0.7960    0.7580 h1        1 RO7      0.092000
     43 H23A       -1.0860   -0.7790    1.0540 h1        1 RO7      0.092000
     44 H19        -1.9610    0.8560    0.0390 ha        1 RO7      0.136000
     45 H17        -2.4350    2.8120   -1.2460 ha        1 RO7      0.190000
     46 H15         1.0400   -1.7530   -3.2560 DU        1 RO7      0.153000
     47 H12         1.4660   -0.6150   -5.5450 DU        1 RO7      0.153000
     48 H11        -1.3000    4.3090   -2.9730 hc        1 RO7      0.090000
     49 H11A       -0.7220    3.6340   -4.3010 hc        1 RO7      0.090000
     50 H14        -3.2320    2.8500   -4.2600 h1        1 RO7      0.101000
     51 H28        -4.3930    4.7300   -6.2070 h1        1 RO7      0.065667
     52 H28A       -4.2100    3.1370   -6.1850 h1        1 RO7      0.065667
     53 H28B       -3.5270    4.0070   -7.3460 h1        1 RO7      0.065667
@<TRIPOS>BOND
     1    1    2 1   
     2    1   32 1   
     3    1   33 1   
     4    1   34 1   
     5    2    3 1   
     6    2   12 1   
     7    3    4 1   
     8    4    5 1   
     9    4   11 1   
    10    5    6 1   
    11    6   35 1   
    12    7    8 1   
    13    7   36 1   
    14    8   37 1   
    15    9   10 1   
    16    9   38 1   
    17   10   39 1   
    18   11   12 1   
    19   13   14 1   
    20   13   40 1   
    21   13   41 1   
    22   14   15 1   
    23   14   42 1   
    24   14   43 1   
    25   15   16 1   
    26   16   17 1   
    27   16   19 1   
    28   17   18 1   
    29   17   44 1   
    30   18   45 1   
    31   20   21 1   
    32   21   23 1   
    33   22   24 1   
    34   24   25 1   
    35   25   26 1   
    36   25   48 1   
    37   25   49 1   
    38   26   27 1   
    39   26   29 1   
    40   26   50 1   
    41   27   28 1   
    42   28   51 1   
    43   28   52 1   
    44   28   53 1   
    45   29   30 1   
    46   29   31 1   
@<TRIPOS>SUBSTRUCTURE
     1 RO7         1 TEMP              0 ****  ****    0 ROOT
