@<TRIPOS>MOLECULE
RO7
   53    56     1     0     0
SMALL
bcc


@<TRIPOS>ATOM
      1 C25         0.7850    1.4640   -0.6550 c3        1 RO7     -0.134400
      2 C7          2.1180    0.8750   -0.5410 cc        1 RO7      0.175700
      3 O3          2.6420    0.7220    0.7460 os        1 RO7     -0.382800
      4 C2          3.9210    0.1510    0.5580 cc        1 RO7      0.531900
      5 C16         4.7030   -0.1180    1.7520 ca        1 RO7     -0.122500
      6 C26         4.1940    0.2050    3.0180 ca        1 RO7     -0.094500
      7 C29         4.9510   -0.0550    4.1580 ca        1 RO7     -0.140000
      8 C31         6.2140   -0.6370    4.0440 ca        1 RO7     -0.119000
      9 C30         6.7210   -0.9590    2.7850 ca        1 RO7     -0.140000
     10 C27         5.9730   -0.7030    1.6370 ca        1 RO7     -0.094500
     11 N1          4.1950   -0.0470   -0.7350 nd        1 RO7     -0.654000
     12 C4          3.0700    0.4040   -1.4480 cd        1 RO7      0.239300
     13 C20         2.9520    0.3440   -2.9210 c3        1 RO7     -0.111700
     14 C23         2.7740    1.7410   -3.5050 c3        1 RO7      0.129400
     15 O22         2.4210    1.5510   -4.8800 os        1 RO7     -0.341900
     16 C13         1.7050    2.5990   -5.4420 ca        1 RO7      0.123100
     17 C19         1.7940    3.9210   -5.0100 ca        1 RO7     -0.197000
     18 C17         1.0520    4.9220   -5.6500 ca        1 RO7     -0.084000
     19 C5          0.8830    2.2740   -6.5370 ca        1 RO7     -0.113800
     20 C15         0.6580    0.9940   -7.1600 cc        1 RO7     -0.110200
     21 C12        -0.2110    1.0890   -8.2080 cd        1 RO7     -0.184400
     22 C6          0.1410    3.3060   -7.1770 ca        1 RO7     -0.043100
     23 S9         -0.7640    2.6650   -8.4600 ss        1 RO7      0.003500
     24 C8          0.2170    4.6330   -6.7290 ca        1 RO7     -0.041300
     25 C11        -0.5520    5.7200   -7.3910 c3        1 RO7     -0.036100
     26 C14        -1.6670    6.2640   -6.4960 c3        1 RO7      0.027100
     27 O24        -2.6530    6.7660   -7.4130 os        1 RO7     -0.438600
     28 C28        -3.8780    7.1020   -6.7910 c3        1 RO7      0.117700
     29 C10        -1.1750    7.3670   -5.5180 c         1 RO7      0.898600
     30 O21        -0.0060    7.8270   -5.6510 o         1 RO7     -0.837300
     31 O18        -1.9720    7.7220   -4.6040 o         1 RO7     -0.837300
     32 H25         0.1590    1.2060    0.2350 hc        1 RO7      0.067700
     33 H25A        0.8610    2.5800   -0.7230 hc        1 RO7      0.067700
     34 H25B        0.2850    1.0840   -1.5820 hc        1 RO7      0.067700
     35 H26         3.1980    0.6660    3.1040 ha        1 RO7      0.153000
     36 H29         4.5500    0.2010    5.1490 ha        1 RO7      0.133000
     37 H31         6.8090   -0.8400    4.9460 ha        1 RO7      0.129000
     38 H30         7.7180   -1.4160    2.6940 ha        1 RO7      0.133000
     39 H27         6.3780   -0.9560    0.6450 ha        1 RO7      0.153000
     40 H20         2.0590   -0.2830   -3.1920 hc        1 RO7      0.071200
     41 H20A        3.8530   -0.1400   -3.3830 hc        1 RO7      0.071200
     42 H23         1.9680    2.2980   -2.9580 h1        1 RO7      0.046700
     43 H23A        3.7310    2.3240   -3.4620 h1        1 RO7      0.046700
     44 H19         2.4420    4.1930   -4.1660 ha        1 RO7      0.131000
     45 H17         1.1030    5.9760   -5.3000 ha        1 RO7      0.206000
     46 H15         1.1500    0.0870   -6.8030 ha        1 RO7      0.149000
     47 H12        -0.5420    0.2670   -8.8390 h4        1 RO7      0.154000
     48 H11        -0.9960    5.3500   -8.3540 hc        1 RO7      0.063700
     49 H11A        0.1420    6.5740   -7.6260 hc        1 RO7      0.063700
     50 H14        -2.1300    5.4350   -5.8930 h1        1 RO7      0.023700
     51 H28        -3.7160    7.7780   -5.9130 h1        1 RO7      0.027700
     52 H28A       -4.4680    7.6160   -7.5910 h1        1 RO7      0.027700
     53 H28B       -4.4070    6.1710   -6.4620 h1        1 RO7      0.027700
@<TRIPOS>BOND
     1    1    2 1   
     2    1   32 1   
     3    1   33 1   
     4    1   34 1   
     5    2    3 1   
     6    2   12 2   
     7    3    4 1   
     8    4    5 1   
     9    4   11 2   
    10    5    6 ar  
    11    5   10 ar  
    12    6    7 ar  
    13    6   35 1   
    14    7    8 ar  
    15    7   36 1   
    16    8    9 ar  
    17    8   37 1   
    18    9   10 ar  
    19    9   38 1   
    20   10   39 1   
    21   11   12 1   
    22   12   13 1   
    23   13   14 1   
    24   13   40 1   
    25   13   41 1   
    26   14   15 1   
    27   14   42 1   
    28   14   43 1   
    29   15   16 1   
    30   16   17 ar  
    31   16   19 ar  
    32   17   18 ar  
    33   17   44 1   
    34   18   24 ar  
    35   18   45 1   
    36   19   20 1   
    37   19   22 ar  
    38   20   21 2   
    39   20   46 1   
    40   21   23 1   
    41   21   47 1   
    42   22   23 1   
    43   22   24 ar  
    44   24   25 1   
    45   25   26 1   
    46   25   48 1   
    47   25   49 1   
    48   26   27 1   
    49   26   29 1   
    50   26   50 1   
    51   27   28 1   
    52   28   51 1   
    53   28   52 1   
    54   28   53 1   
    55   29   30 1   
    56   29   31 1   
@<TRIPOS>SUBSTRUCTURE
     1 RO7         1 TEMP              0 ****  ****    0 ROOT
