@<TRIPOS>MOLECULE
RO8
   28    27     1     0     0
SMALL
bcc


@<TRIPOS>ATOM
      1 Cl         -1.1710    1.4280   -1.5280 cl        1 RO8      0.158600
      2 S1          9.8660   -4.8100   -3.7030 s         1 RO8     -0.131400
      3 C2          7.5040   -4.5690   -0.4300 c2        1 RO8      0.677100
      4 N3          8.6480   -5.4100   -0.3600 nu        1 RO8     -0.480000
      5 C4          9.2900   -5.8960   -1.3870 cg        1 RO8      0.000800
      6 C5          9.1450   -5.7940   -2.7950 c         1 RO8      0.082200
      7 Br6         8.1170   -7.3140   -3.3410 br        1 RO8     -0.064600
      8 N7          6.9360   -4.0840    0.6400 ne        1 RO8     -0.703100
      9 N9          5.4340   -2.4090    1.5930 nt        1 RO8     -0.674000
     10 C10         5.7690   -3.2830    0.5000 c         1 RO8      0.771500
     11 O11         5.0230   -3.2620   -0.5020 o         1 RO8     -0.583100
     12 O12         5.9680    0.3810    2.0730 o         1 RO8     -0.455900
     13 O13         6.6900   -0.4280   -0.0400 o         1 RO8     -0.455900
     14 C14         4.3030    0.1290    0.2870 c2        1 RO8     -0.880300
     15 C15         1.0600    1.5000    0.2850 cc        1 RO8     -0.059000
     16 C16         3.7730   -0.2990   -0.9350 cf        1 RO8      0.243000
     17 C17         0.2350    1.2550   -0.7770 cd        1 RO8      0.040400
     18 C18         2.4960   -0.0400   -1.4140 cf        1 RO8     -0.273000
     19 C19         1.5500    0.7040   -0.7760 cc        1 RO8      0.112000
     20 HN3         7.1570   -4.3690   -1.4780 h5        1 RO8      0.045800
     21 H4          9.0000   -5.6560    0.5520 hn        1 RO8      0.494800
     22 HN9         6.0100   -2.5440    2.4080 hn        1 RO8      0.310000
     23 H15         1.2250    1.9660    1.2420 ha        1 RO8      0.237000
     24 H16         3.5580    0.6590    0.9250 h4        1 RO8      0.217000
     25 H18         4.4290   -0.9200   -1.5890 ha        1 RO8      0.172000
     26 H19         2.2200   -0.4710   -2.3970 ha        1 RO8      0.188000
     27 H92         4.4620   -2.5070    1.8310 hn        1 RO8      0.310000
     28 S8          5.6980   -0.0430    0.8090 s4        1 RO8      1.699100
@<TRIPOS>BOND
     1    1   17 1   
     2    2    6 2   
     3    3    4 1   
     4    3    8 2   
     5    3   20 1   
     6    4    5 3   
     7    4   21 1   
     8    5    6 1   
     9    6    7 1   
    10    8   10 1   
    11    9   10 1   
    12    9   22 1   
    13    9   27 1   
    14   10   11 2   
    15   12   28 1   
    16   13   28 1   
    17   14   16 2   
    18   14   24 1   
    19   14   28 1   
    20   15   17 2   
    21   15   19 1   
    22   15   23 1   
    23   16   18 1   
    24   16   25 1   
    25   17   19 1   
    26   18   19 2   
    27   18   26 1   
@<TRIPOS>SUBSTRUCTURE
     1 RO8         1 TEMP              0 ****  ****    0 ROOT
