@<TRIPOS>MOLECULE
RO8
   28    27     1     0     0
SMALL
bcc


@<TRIPOS>ATOM
      1 CL         -1.2840    1.2190   -1.5060 cl        1 RO8      0.158600
      2 S1          9.8920   -4.7580   -3.7100 s         1 RO8     -0.131400
      3 C2          7.5750   -4.5030   -0.4060 c2        1 RO8      0.677100
      4 N3          8.7420   -5.3110   -0.3350 nh        1 RO8     -0.480000
      5 C4          9.3820   -5.8040   -1.3600 cg        1 RO8      0.000800
      6 C5          9.2120   -5.7390   -2.7670 c         1 RO8      0.082200
      7 BR6         8.2190   -7.3000   -3.2610 br        1 RO8     -0.064600
      8 N7          7.0100   -4.0080    0.6610 ne        1 RO8     -0.703100
      9 N9          5.4770   -2.3520    1.5980 n         1 RO8     -0.674000
     10 C10         5.8180   -3.2440    0.5210 c         1 RO8      0.771500
     11 O11         5.0570   -3.2680   -0.4680 o         1 RO8     -0.583100
     12 O12         5.9390    0.4640    2.0000 o         1 RO8     -0.455900
     13 O13         6.6500   -0.3780   -0.1050 o         1 RO8     -0.455900
     14 C14         4.2540    0.1200    0.2480 c2        1 RO8     -0.880300
     15 C15         0.9730    1.3990    0.2670 cc        1 RO8     -0.059000
     16 C16         3.7160   -0.3530   -0.9540 cf        1 RO8      0.243000
     17 C17         0.1390    1.1040   -0.7740 cd        1 RO8      0.040400
     18 C18         2.4250   -0.1420   -1.4170 cf        1 RO8     -0.273000
     19 C19         1.4680    0.5910   -0.7820 cc        1 RO8      0.112000
     20 HN3         7.2060   -4.3390   -1.4520 h5        1 RO8      0.045800
     21 H4          9.1150   -5.5250    0.5780 hn        1 RO8      0.494800
     22 HN9         6.0700   -2.4500    2.4050 hn        1 RO8      0.310000
     23 H15         1.1410    1.8940    1.2100 ha        1 RO8      0.237000
     24 H16         3.5040    0.6450    0.8850 h4        1 RO8      0.217000
     25 H18         4.3790   -0.9720   -1.6030 ha        1 RO8      0.172000
     26 H19         2.1450   -0.6060   -2.3850 ha        1 RO8      0.188000
     27 H92         4.5120   -2.4710    1.8540 hn        1 RO8      0.310000
     28 S8          5.6610   -0.0000    0.7510 s4        1 RO8      1.699100
@<TRIPOS>BOND
     1    1   17 1   
     2    2    6 2   
     3    3    4 1   
     4    3    8 2   
     5    3   20 1   
     6    4    5 3   
     7    4   21 1   
     8    5    6 1   
     9    6    7 1   
    10    8   10 1   
    11    9   10 1   
    12    9   22 1   
    13    9   27 1   
    14   10   11 2   
    15   12   28 1   
    16   13   28 1   
    17   14   16 2   
    18   14   24 1   
    19   14   28 1   
    20   15   17 2   
    21   15   19 1   
    22   15   23 1   
    23   16   18 1   
    24   16   25 1   
    25   17   19 1   
    26   18   19 2   
    27   18   26 1   
@<TRIPOS>SUBSTRUCTURE
     1 RO8         1 TEMP              0 ****  ****    0 ROOT
