@<TRIPOS>MOLECULE
RO8
   27    28     1     0     0
SMALL
bcc


@<TRIPOS>ATOM
      1 CL         -5.9660   -2.1610    1.1610 cl        1 RO8     -0.082400
      2 S1          2.5810    0.1160   -0.2470 ss        1 RO8      0.107200
      3 C2          1.9850    1.1050    1.0690 cc        1 RO8      0.649100
      4 N3          3.0270    1.3430    1.9790 na        1 RO8     -0.674000
      5 C4          4.2210    0.7460    1.5970 cc        1 RO8      0.068000
      6 C5          4.1410    0.0470    0.4180 cd        1 RO8     -0.180700
      7 BR6         5.5080   -0.8610   -0.3830 br        1 RO8      0.021300
      8 N7          0.7700    1.5950    1.2600 nf        1 RO8     -0.744100
      9 N9         -1.4920    1.8360    0.4640 n         1 RO8     -0.644300
     10 C10        -0.2110    1.3020    0.2820 c         1 RO8      0.833500
     11 O11         0.0250    0.5830   -0.7280 o         1 RO8     -0.653100
     12 O12        -3.7980    2.5140    0.0350 o         1 RO8     -0.638300
     13 O13        -2.4040    2.1480   -1.8710 o         1 RO8     -0.638300
     14 C14        -3.2070    0.1380   -0.5660 ca        1 RO8     -0.386500
     15 C15        -4.2780   -0.3010    0.2230 ca        1 RO8     -0.011000
     16 C16        -2.5370   -0.7880   -1.3750 ca        1 RO8      0.005000
     17 C17        -4.6660   -1.6400    0.1980 ca        1 RO8     -0.018600
     18 C18        -2.9280   -2.1250   -1.4020 ca        1 RO8     -0.153000
     19 C19        -3.9930   -2.5600   -0.6160 ca        1 RO8     -0.057000
     20 HN3         2.9200    1.8880    2.8010 hn        1 RO8      0.480800
     21 H4          5.1010    0.8740    2.2430 h4        1 RO8      0.194000
     22 HN9        -1.6140    2.3440    1.3170 hn        1 RO8      0.350500
     23 H15        -4.8230    0.4260    0.8550 ha        1 RO8      0.172000
     24 H16        -1.6830   -0.4460   -1.9920 ha        1 RO8      0.178000
     25 H18        -2.3930   -2.8400   -2.0460 ha        1 RO8      0.149000
     26 H19        -4.3030   -3.6160   -0.6350 ha        1 RO8      0.151000
     27 S8         -2.7740    1.7610   -0.5790 sy        1 RO8      1.522900
@<TRIPOS>BOND
     1    1   17 1   
     2    2    3 1   
     3    2    6 1   
     4    3    4 1   
     5    3    8 2   
     6    4    5 1   
     7    4   20 1   
     8    5    6 2   
     9    5   21 1   
    10    6    7 1   
    11    8   10 1   
    12    9   10 1   
    13    9   22 1   
    14    9   27 1   
    15   10   11 2   
    16   12   27 2   
    17   13   27 2   
    18   14   15 ar  
    19   14   16 ar  
    20   14   27 1   
    21   15   17 ar  
    22   15   23 1   
    23   16   18 ar  
    24   16   24 1   
    25   17   19 ar  
    26   18   19 ar  
    27   18   25 1   
    28   19   26 1   
@<TRIPOS>SUBSTRUCTURE
     1 RO8         1 TEMP              0 ****  ****    0 ROOT
