@<TRIPOS>MOLECULE
RO9
   44    45     1     0     0
SMALL
bcc


@<TRIPOS>ATOM
      1 C5         -0.2540    0.1240    0.3770 c2        1 RO9     -0.028000
      2 C6          0.6850   -0.6810   -0.1990 c2        1 RO9     -0.011000
      3 C10         3.4920    1.1950    3.5750 c2        1 RO9     -0.498000
      4 C15        -0.4030    1.0240    5.1130 c2        1 RO9      0.031000
      5 C14        -1.0130    0.8420    6.3810 c2        1 RO9     -0.212000
      6 C12         2.0500   -2.4770    1.0840 c1        1 RO9     -0.090000
      7 N17        -0.9710    1.0840   -0.5480 n4        1 RO9      0.068000
      8 C11         4.5060    0.8700    4.3590 c1        1 RO9      0.298000
      9 C8          1.2010    1.0110    2.7260 c2        1 RO9     -0.255000
     10 C21        -4.1350   -0.5660   -1.5820 c2        1 RO9     -0.002000
     11 C23        -5.4690   -1.1660   -1.4470 c3        1 RO9     -0.195000
     12 C22        -3.3620    0.0050   -0.3950 c3        1 RO9     -0.173000
     13 N20        -3.4160   -0.4330   -2.7100 n2        1 RO9     -0.069000
     14 N19        -2.2390    0.1560   -2.4740 n2        1 RO9      0.022000
     15 C18        -2.1210    0.4560   -1.1690 c2        1 RO9     -0.199000
     16 N4         -0.8110    0.0730    1.6550 n2        1 RO9     -0.270000
     17 C7          1.4140   -1.6350    0.5150 c1        1 RO9     -0.185000
     18 C9          2.1570    0.6550    3.6020 c2        1 RO9      0.017000
     19 C3         -0.1570    0.4370    2.7410 c2        1 RO9      0.208000
     20 C16        -0.8000    0.2700    4.0400 c2        1 RO9     -0.207000
     21 C29        -1.9110   -0.7200    4.1530 c3        1 RO9     -0.065000
     22 C32        -2.4420   -0.8870    5.5290 c2        1 RO9     -0.147000
     23 C43        -2.0310   -0.1530    6.5780 c2        1 RO9     -0.128000
     24 C25        -1.0050    1.6840    8.5670 c2        1 RO9     -0.112000
     25 H1          0.9120   -0.6360   -1.2830 ha        1 RO9      0.166000
     26 H2          3.7010    1.9740    2.8060 ha        1 RO9      0.201000
     27 H3          0.3840    1.7930    5.0240 ha        1 RO9      0.143000
     28 H4          1.4080    1.7390    1.9240 ha        1 RO9      0.132000
     29 H5         -0.3080    1.4050   -1.2670 hn        1 RO9      0.260500
     30 H6          2.6160   -3.2280    1.5810 ha        1 RO9      0.245000
     31 H7         -5.8430   -1.0550   -0.4000 hc        1 RO9      0.126667
     32 H8         -6.1950   -0.6780   -2.1490 hc        1 RO9      0.126667
     33 H9         -5.4290   -2.2580   -1.7060 hc        1 RO9      0.126667
     34 H10        -3.1220   -0.7770    0.3700 hc        1 RO9      0.181000
     35 H11        -3.9030    0.8510    0.0940 hc        1 RO9      0.181000
     36 H12         1.9460   -0.0920    4.3900 ha        1 RO9      0.147000
     37 H13        -1.5550   -1.7210    3.7760 hc        1 RO9      0.095000
     38 H14        -2.7630   -0.4080    3.4820 hc        1 RO9      0.095000
     39 H15        -3.2140   -1.6630    5.6470 ha        1 RO9      0.140000
     40 H16        -2.4510   -0.3080    7.5820 ha        1 RO9      0.134000
     41 H17        -0.4950    2.4240    9.2060 h4        1 RO9      0.178500
     42 H18        -1.8020    1.0260    8.9250 h4        1 RO9      0.178500
     43 H172       -1.3100    1.8960   -0.0140 hn        1 RO9      0.260500
     44 O24        -0.5480    1.6810    7.3480 os        1 RO9      0.081000
@<TRIPOS>BOND
     1    1    2 1   
     2    1    7 1   
     3    1   16 1   
     4    2   17 1   
     5    2   25 1   
     6    3    8 1   
     7    3   18 1   
     8    3   26 1   
     9    4    5 1   
    10    4   20 1   
    11    4   27 1   
    12    5   23 1   
    13    5   44 1   
    14    6   17 1   
    15    6   30 1   
    16    7   15 1   
    17    7   29 1   
    18    7   43 1   
    19    9   18 1   
    20    9   19 1   
    21    9   28 1   
    22   10   11 1   
    23   10   12 1   
    24   10   13 1   
    25   11   31 1   
    26   11   32 1   
    27   11   33 1   
    28   12   15 1   
    29   12   34 1   
    30   12   35 1   
    31   13   14 1   
    32   14   15 1   
    33   16   19 1   
    34   18   36 1   
    35   19   20 1   
    36   20   21 1   
    37   21   22 1   
    38   21   37 1   
    39   21   38 1   
    40   22   23 1   
    41   22   39 1   
    42   23   40 1   
    43   24   41 1   
    44   24   42 1   
    45   24   44 1   
@<TRIPOS>SUBSTRUCTURE
     1 RO9         1 TEMP              0 ****  ****    0 ROOT
