@<TRIPOS>MOLECULE
RO9
   43    45     1     0     0
SMALL
bcc


@<TRIPOS>ATOM
      1 C5         -0.0760   -0.4480    0.3420 c2        1 RO9      0.122000
      2 C6          1.2900   -0.4830    0.0850 c2        1 RO9     -0.212000
      3 C10         3.9200   -1.0530    2.6500 c2        1 RO9     -0.385000
      4 C15        -0.6710    0.2920    4.6650 c2        1 RO9     -0.153000
      5 C14        -1.8750    0.5550    5.2450 c2        1 RO9     -0.001000
      6 C12         3.5540   -0.8040    1.2400 c2        1 RO9     -0.112000
      7 N17        -0.9550   -0.2550   -0.7360 nu        1 RO9     -0.232000
      8 C11         5.1480   -1.1970    3.1300 c1        1 RO9      0.352000
      9 C8          1.6230   -0.9040    2.5240 c2        1 RO9     -0.132000
     10 C21        -4.5010    0.4400   -0.0990 c2        1 RO9     -0.137000
     11 C23        -5.7450    0.6130    0.6670 c3        1 RO9     -0.159000
     12 C22        -3.1840    0.0770    0.5790 c3        1 RO9     -0.159000
     13 N20        -4.3250    0.5630   -1.4160 n2        1 RO9     -0.047000
     14 N19        -3.0550    0.3390   -1.7720 n2        1 RO9     -0.159000
     15 C18        -2.2980    0.0430   -0.6780 c2        1 RO9      0.038000
     16 N4         -0.6200   -0.6310    1.6370 n2        1 RO9     -0.156000
     17 C7          2.1830   -0.7150    1.1680 c2        1 RO9     -0.022000
     18 C9          2.6540   -1.1050    3.4080 c2        1 RO9     -0.053000
     19 C3          0.1810   -0.8440    2.6510 c2        1 RO9      0.088000
     20 C16        -0.4050   -1.0310    4.0390 c3        1 RO9     -0.045000
     21 C29        -1.5740   -1.9550    4.0300 c2        1 RO9     -0.052000
     22 C32        -2.7480   -1.6300    4.6200 c2        1 RO9     -0.208000
     23 C43        -2.9950   -0.3490    5.1960 c1        1 RO9     -0.075000
     24 C25        -3.3060    2.0240    6.4230 c3        1 RO9     -0.056000
     25 H1          1.7060   -0.3390   -0.9210 ha        1 RO9      0.152000
     26 H2          3.6550    4.9620    2.8830 ha        1 RO9      0.000000
     27 H3          0.1450    1.0280    4.6430 ha        1 RO9      0.154000
     28 H4          3.2690    5.5100    2.7850 ha        1 RO9      0.000000
     29 H5         -0.5150   -0.1870   -1.6310 hn        1 RO9      0.257000
     30 H6          4.2830   -0.7140    0.4390 ha        1 RO9      0.161000
     31 H7         -5.6080    1.4250    1.4250 hc        1 RO9      0.095667
     32 H8         -5.9870   -0.3380    1.2070 hc        1 RO9      0.095667
     33 H9         -6.6080    0.8790    0.0090 hc        1 RO9      0.095667
     34 H10        -3.2350   -0.9160    1.0830 hc        1 RO9      0.151500
     35 H11        -2.8570    0.8580    1.3050 hc        1 RO9      0.151500
     36 H12         2.6140   -1.2720    4.4830 ha        1 RO9      0.155000
     37 H13         0.3880   -1.5400    4.6780 hc        1 RO9      0.148000
     38 H14        -1.4150   -2.9180    3.5200 ha        1 RO9      0.140000
     39 H15        -3.5850   -2.3500    4.6410 ha        1 RO9      0.154000
     40 H16        -3.5340    1.2660    7.2090 h1        1 RO9      0.086333
     41 H17        -3.2070    3.0490    6.8600 h1        1 RO9      0.086333
     42 H18        -4.0850    1.9940    5.6250 h1        1 RO9      0.086333
     43 O24        -2.0120    1.7840    5.8630 os        1 RO9     -0.216000
@<TRIPOS>BOND
     1    1    2 1   
     2    1    7 1   
     3    1   16 1   
     4    2   17 1   
     5    2   25 1   
     6    3    6 1   
     7    3    8 1   
     8    3   18 1   
     9    4    5 1   
    10    4   20 1   
    11    4   27 1   
    12    5   23 1   
    13    5   43 1   
    14    6   17 1   
    15    6   30 1   
    16    7   15 1   
    17    7   29 1   
    18    9   17 1   
    19    9   18 1   
    20    9   19 1   
    21   10   11 1   
    22   10   12 1   
    23   10   13 1   
    24   11   31 1   
    25   11   32 1   
    26   11   33 1   
    27   12   15 1   
    28   12   34 1   
    29   12   35 1   
    30   13   14 1   
    31   14   15 1   
    32   16   19 1   
    33   18   36 1   
    34   19   20 1   
    35   20   21 1   
    36   20   37 1   
    37   21   22 1   
    38   21   38 1   
    39   22   23 1   
    40   22   39 1   
    41   24   40 1   
    42   24   41 1   
    43   24   42 1   
    44   24   43 1   
    45   26   28 1   
@<TRIPOS>SUBSTRUCTURE
     1 RO9         1 TEMP              0 ****  ****    0 ROOT
