@<TRIPOS>MOLECULE
RO9
   43    45     1     0     0
SMALL
bcc


@<TRIPOS>ATOM
      1 C5         -0.0890    0.0340    0.4290 c2        1 RO9      0.191000
      2 C6          1.3140    0.1740    0.2010 c2        1 RO9     -0.261000
      3 C10         3.8730   -0.4010    3.7330 c1        1 RO9     -0.586000
      4 C15        -0.5940    0.4990    4.8180 c2        1 RO9     -0.167000
      5 C14        -1.8120    0.7080    5.3910 c2        1 RO9      0.007000
      6 C12         3.6490    0.2040    1.0050 c3        1 RO9     -0.203000
      7 N17        -0.9460    0.1970   -0.6560 nh        1 RO9     -0.227000
      8 C11         5.1350   -0.5500    3.8150 c1        1 RO9      0.176000
      9 C8          1.6970   -0.2070    2.5670 c2        1 RO9     -0.219000
     10 C21        -4.5760    0.0950   -0.1120 c2        1 RO9     -0.119000
     11 C23        -5.8460    0.0030    0.6250 c3        1 RO9     -0.163000
     12 C22        -3.2280    0.0140    0.5980 c3        1 RO9     -0.161000
     13 N20        -4.3990    0.2500   -1.4250 n2        1 RO9     -0.051000
     14 N19        -3.1010    0.2940   -1.7510 n2        1 RO9     -0.134000
     15 C18        -2.3280    0.1670   -0.6400 c2        1 RO9      0.022000
     16 N4         -0.5800   -0.2630    1.6760 n2        1 RO9     -0.214000
     17 C7          2.2010    0.0500    1.2670 c2        1 RO9      0.086000
     18 C9          2.5540   -0.2610    3.7240 c2        1 RO9      0.218000
     19 C3          0.2860   -0.3840    2.6960 c2        1 RO9      0.097000
     20 C16        -0.3190   -0.7420    4.0450 c3        1 RO9     -0.047000
     21 C29        -1.4920   -1.6560    3.9180 c2        1 RO9     -0.046000
     22 C32        -2.6790   -1.3900    4.5120 c2        1 RO9     -0.212000
     23 C43        -2.9400   -0.1660    5.1930 c1        1 RO9     -0.070000
     24 C25        -3.2610    2.0410    6.7020 c3        1 RO9     -0.057000
     25 H1          1.6990    0.3830   -0.8090 ha        1 RO9      0.158000
     26 H2          4.1810   -0.7570    1.2280 hc        1 RO9      0.110000
     27 H3          0.2250    1.2280    4.9060 ha        1 RO9      0.153000
     28 H4          4.0860    0.9940    1.6690 hc        1 RO9      0.110000
     29 H5         -0.5030    0.3490   -1.5410 hn        1 RO9      0.265000
     30 H6          3.8450    0.4840   -0.0590 hc        1 RO9      0.110000
     31 H7         -5.9150   -0.9930    1.1290 hc        1 RO9      0.099667
     32 H8         -6.7300    0.1240   -0.0500 hc        1 RO9      0.099667
     33 H9         -5.8820    0.8010    1.4090 hc        1 RO9      0.099667
     34 H10        -3.0820    0.8450    1.3280 hc        1 RO9      0.155500
     35 H11        -3.0840   -0.9680    1.1070 hc        1 RO9      0.155500
     36 H12         2.0440   -0.1580    4.7080 ha        1 RO9      0.125000
     37 H13         0.4460   -1.3470    4.6310 hc        1 RO9      0.153000
     38 H14        -1.3240   -2.5640    3.3160 ha        1 RO9      0.141000
     39 H15        -3.5130   -2.1100    4.4500 ha        1 RO9      0.155000
     40 H16        -4.0210    2.1140    5.8880 h1        1 RO9      0.088000
     41 H17        -3.1640    3.0050    7.2610 h1        1 RO9      0.088000
     42 H18        -3.5130    1.1960    7.3860 h1        1 RO9      0.088000
     43 O24        -1.9560    1.8550    6.1460 os        1 RO9     -0.213000
@<TRIPOS>BOND
     1    1    2 1   
     2    1    7 1   
     3    1   16 1   
     4    2   17 1   
     5    2   25 1   
     6    3    8 1   
     7    3   18 1   
     8    4    5 1   
     9    4   20 1   
    10    4   27 1   
    11    5   23 1   
    12    5   43 1   
    13    6   17 1   
    14    6   26 1   
    15    6   28 1   
    16    6   30 1   
    17    7   15 1   
    18    7   29 1   
    19    9   17 1   
    20    9   18 1   
    21    9   19 1   
    22   10   11 1   
    23   10   12 1   
    24   10   13 1   
    25   11   31 1   
    26   11   32 1   
    27   11   33 1   
    28   12   15 1   
    29   12   34 1   
    30   12   35 1   
    31   13   14 1   
    32   14   15 1   
    33   16   19 1   
    34   18   36 1   
    35   19   20 1   
    36   20   21 1   
    37   20   37 1   
    38   21   22 1   
    39   21   38 1   
    40   22   23 1   
    41   22   39 1   
    42   24   40 1   
    43   24   41 1   
    44   24   42 1   
    45   24   43 1   
@<TRIPOS>SUBSTRUCTURE
     1 RO9         1 TEMP              0 ****  ****    0 ROOT
