@<TRIPOS>MOLECULE
ROA
   41    36     1     0     0
SMALL
bcc


@<TRIPOS>ATOM
      1 CAU         1.8000   -3.5450   -0.9860 c1        1 ROA     -0.139000
      2 CAV         3.0460   -3.8390   -1.5180 c1        1 ROA      0.044000
      3 OAY         3.1490   -4.6410   -2.6690 oh        1 ROA     -0.264000
      4 CAW         4.1930   -3.3760   -0.8920 c1        1 ROA     -0.029000
      5 OAZ         5.4600   -3.7210   -1.3990 o         1 ROA     -0.296000
      6 CAX         4.0940   -2.6200    0.2660 c2        1 ROA     -0.172000
      7 CAT         2.8480   -2.3270    0.7980 c1        1 ROA     -0.118000
      8 CAS         1.7010   -2.7890    0.1720 c1        1 ROA     -0.053000
      9 CAO         0.3460   -2.5500    0.8050 c3        1 ROA     -0.122000
     10 CAN        -0.1740   -1.1930    0.3850 c3        1 ROA     -0.043000
     11 CAP        -0.2610   -0.2910    1.5960 c2        1 ROA      0.337000
     12 OAR         0.4940    0.7120    1.6900 o         1 ROA     -0.566000
     13 OAQ        -1.0920   -0.5410    2.5090 o         1 ROA     -0.566000
     14 OAM        -1.4500   -1.3370   -0.1860 os        1 ROA     -0.250000
     15 CAK        -1.9760   -0.1450   -0.7110 c2        1 ROA      0.341000
     16 OAL        -1.2470    0.6400   -1.2830 o         1 ROA     -0.367000
     17 CAJ        -3.4590    0.1380   -0.6080 c2        1 ROA     -0.178000
     18 CAI        -3.8900    1.3880   -0.3500 c1        1 ROA     -0.056000
     19 CAC        -2.8920    2.5100   -0.1650 c1        1 ROA     -0.075000
     20 CAD        -2.3460    2.7520    1.0870 c2        1 ROA     -0.148000
     21 CAE        -1.4900    3.8260    1.2740 c1        1 ROA      0.041000
     22 OAG        -0.9160    4.0550    2.5380 o         1 ROA     -0.296000
     23 CAF        -1.1800    4.6580    0.2110 c2        1 ROA      0.041000
     24 OAH        -0.2960    5.7370    0.3970 oh        1 ROA     -0.270000
     25 CAB        -1.7250    4.4170   -1.0400 c1        1 ROA     -0.153000
     26 CAA        -2.5810    3.3430   -1.2280 c1        1 ROA     -0.135000
     27 HAU         0.9920   -3.8710   -1.4260 ha        1 ROA      0.142000
     28 HOAY        3.1020   -5.4990   -2.4370 ho        1 ROA      0.223000
     29 HOAZ        5.7920   -3.0370   -1.8590 ho        1 ROA      0.259500
     30 HAX         4.9020   -2.2940    0.7070 ha        1 ROA      0.128000
     31 HAT         2.7780   -1.7940    1.6130 ha        1 ROA      0.209000
     32 HAO         0.4320   -2.5800    1.7790 hc        1 ROA      0.099000
     33 HAOA       -0.2780   -3.2440    0.5110 hc        1 ROA      0.099000
     34 HAN         0.4340   -0.8000   -0.2710 h1        1 ROA      0.123000
     35 HAJ        -4.1030   -0.5860   -0.7270 ha        1 ROA      0.136000
     36 HAI        -4.8470    1.5700   -0.2840 ha        1 ROA      0.114000
     37 HAD        -2.5800    2.1770    1.8400 ha        1 ROA      0.218000
     38 HOAG       -1.5540    4.0530    3.1580 ho        1 ROA      0.259500
     39 HOAH       -0.7590    6.4680    0.6020 ho        1 ROA      0.235000
     40 HAB        -1.5060    5.0040   -1.7890 ha        1 ROA      0.133000
     41 HAA        -2.9640    3.1730   -2.1100 ha        1 ROA      0.117000
@<TRIPOS>BOND
     1    1    8 1   
     2    1   27 1   
     3    2    3 1   
     4    2    4 1   
     5    3   28 1   
     6    4    6 1   
     7    5   29 1   
     8    6    7 1   
     9    6   30 1   
    10    7   31 1   
    11    8    9 1   
    12    9   10 1   
    13    9   32 1   
    14    9   33 1   
    15   10   11 1   
    16   10   14 1   
    17   10   34 1   
    18   11   12 1   
    19   11   13 1   
    20   14   15 1   
    21   15   16 1   
    22   15   17 1   
    23   17   18 1   
    24   17   35 1   
    25   18   36 1   
    26   19   20 1   
    27   19   26 1   
    28   20   21 1   
    29   20   37 1   
    30   21   23 1   
    31   22   38 1   
    32   23   24 1   
    33   23   25 1   
    34   24   39 1   
    35   25   40 1   
    36   26   41 1   
@<TRIPOS>SUBSTRUCTURE
     1 ROA         1 TEMP              0 ****  ****    0 ROOT
