@<TRIPOS>MOLECULE
ROA
   41    42     1     0     0
SMALL
bcc


@<TRIPOS>ATOM
      1 CAU        -4.8050   -0.3360    0.0340 ca        1 ROA     -0.161000
      2 CAV        -5.9340   -1.0290    0.4690 ca        1 ROA      0.035100
      3 OAY        -6.8820   -0.4680    1.3060 oh        1 ROA     -0.538100
      4 CAW        -6.1610   -2.3600    0.0600 ca        1 ROA      0.082100
      5 OAZ        -7.2660   -3.0840    0.4580 oh        1 ROA     -0.515100
      6 CAX        -5.2420   -2.9870   -0.7890 ca        1 ROA     -0.150000
      7 CAT        -4.1150   -2.2890   -1.2190 ca        1 ROA     -0.140000
      8 CAS        -3.8890   -0.9690   -0.8160 ca        1 ROA     -0.058300
      9 CAO        -2.7040   -0.2040   -1.2940 c3        1 ROA     -0.027100
     10 CAN        -1.8600    0.3360   -0.1410 c3        1 ROA      0.019100
     11 CAP        -2.0560    1.8620    0.0930 c         1 ROA      0.912600
     12 OAR        -1.0270    2.5770    0.1940 o         1 ROA     -0.827300
     13 OAQ        -3.2450    2.2800    0.1930 o         1 ROA     -0.827300
     14 OAM        -0.4890    0.1020   -0.5450 os        1 ROA     -0.422900
     15 CAK         0.4420   -0.0460    0.4320 c         1 ROA      0.653300
     16 OAL         0.1140   -0.4240    1.5630 o         1 ROA     -0.564000
     17 CAJ         1.8090    0.2140   -0.0580 ce        1 ROA     -0.153200
     18 CAI         2.8870   -0.1010    0.6740 cf        1 ROA     -0.089200
     19 CAC         4.2580    0.1610    0.2630 ca        1 ROA     -0.043800
     20 CAD         5.2870   -0.6400    0.7750 ca        1 ROA     -0.123000
     21 CAE         6.6120   -0.4020    0.3950 ca        1 ROA      0.101100
     22 OAG         7.5820   -1.2250    0.9210 oh        1 ROA     -0.501100
     23 CAF         6.9080    0.6500   -0.4980 ca        1 ROA      0.031100
     24 OAH         8.2400    0.8210   -0.8270 oh        1 ROA     -0.524100
     25 CAB         5.8810    1.4540   -1.0000 ca        1 ROA     -0.172000
     26 CAA         4.5660    1.2080   -0.6200 ca        1 ROA     -0.113000
     27 HAU        -4.6060    0.7130    0.3450 ha        1 ROA      0.215000
     28 HOAY       -6.5660    0.4160    1.5420 ho        1 ROA      0.437000
     29 HOAZ       -7.7710   -2.5270    1.0680 ho        1 ROA      0.426000
     30 HAX        -5.4220   -4.0240   -1.1020 ha        1 ROA      0.133000
     31 HAT        -3.3940   -2.7880   -1.8830 ha        1 ROA      0.125000
     32 HAO        -2.0670   -0.8480   -1.9570 hc        1 ROA      0.057700
     33 HAOA       -3.0640    0.6690   -1.9040 hc        1 ROA      0.057700
     34 HAN        -2.0710   -0.2120    0.8150 h1        1 ROA      0.068700
     35 HAJ         1.8610    0.7010   -1.0440 ha        1 ROA      0.152000
     36 HAI         2.7650   -0.5940    1.6560 ha        1 ROA      0.148000
     37 HAD         5.0680   -1.4600    1.4750 ha        1 ROA      0.155000
     38 HOAG        8.4390   -0.9260    0.5820 ho        1 ROA      0.430000
     39 HOAH        8.2980    1.5930   -1.4070 ho        1 ROA      0.424000
     40 HAB         6.1150    2.2770   -1.6900 ha        1 ROA      0.132000
     41 HAA         3.7580    1.8490   -1.0070 ha        1 ROA      0.154000
@<TRIPOS>BOND
     1    1    2 ar  
     2    1    8 ar  
     3    1   27 1   
     4    2    3 1   
     5    2    4 ar  
     6    3   28 1   
     7    4    5 1   
     8    4    6 ar  
     9    5   29 1   
    10    6    7 ar  
    11    6   30 1   
    12    7    8 ar  
    13    7   31 1   
    14    8    9 1   
    15    9   10 1   
    16    9   32 1   
    17    9   33 1   
    18   10   11 1   
    19   10   14 1   
    20   10   34 1   
    21   11   12 1   
    22   11   13 1   
    23   14   15 1   
    24   15   16 2   
    25   15   17 1   
    26   17   18 2   
    27   17   35 1   
    28   18   19 1   
    29   18   36 1   
    30   19   20 ar  
    31   19   26 ar  
    32   20   21 ar  
    33   20   37 1   
    34   21   22 1   
    35   21   23 ar  
    36   22   38 1   
    37   23   24 1   
    38   23   25 ar  
    39   24   39 1   
    40   25   26 ar  
    41   25   40 1   
    42   26   41 1   
@<TRIPOS>SUBSTRUCTURE
     1 ROA         1 TEMP              0 ****  ****    0 ROOT
