@<TRIPOS>MOLECULE
ROA
   41    42     1     0     0
SMALL
bcc


@<TRIPOS>ATOM
      1 CAU        -0.1050    0.2320    0.5640 ca        1 ROA     -0.174000
      2 CAV         0.9670    0.9380    0.0110 ca        1 ROA      0.095100
      3 OAY         0.9710    1.3750   -1.2950 oh        1 ROA     -0.497100
      4 CAW         2.1000    1.2300    0.8030 ca        1 ROA      0.073100
      5 OAZ         3.1280    1.9380    0.2130 oh        1 ROA     -0.489100
      6 CAX         2.1400    0.8070    2.1350 ca        1 ROA     -0.198000
      7 CAT         1.0660    0.1020    2.6760 ca        1 ROA     -0.139000
      8 CAS        -0.0590   -0.1870    1.8990 ca        1 ROA     -0.053300
      9 CAO        -1.2260   -0.9120    2.4700 c3        1 ROA     -0.025100
     10 CAN        -1.5520   -2.1840    1.6940 c3        1 ROA      0.030100
     11 CAP        -2.7760   -2.0370    0.7480 c         1 ROA      0.908600
     12 OAR        -3.6240   -2.9740    0.7930 o         1 ROA     -0.826300
     13 OAQ        -2.8460   -1.0280   -0.0040 o         1 ROA     -0.826300
     14 OAM        -1.8830   -3.1660    2.7020 os        1 ROA     -0.468900
     15 CAK        -2.2220   -4.4090    2.2170 c         1 ROA      0.682300
     16 OAL        -1.4970   -4.9260    1.3650 o         1 ROA     -0.546000
     17 CAJ        -3.4090   -4.9950    2.8640 ce        1 ROA     -0.125200
     18 CAI        -3.4540   -5.7910    3.9350 cf        1 ROA     -0.130200
     19 CAC        -2.3410   -6.2520    4.7520 ca        1 ROA     -0.032800
     20 CAD        -2.4530   -7.4890    5.4020 ca        1 ROA     -0.131000
     21 CAE        -1.4070   -7.9550    6.2040 ca        1 ROA      0.097100
     22 OAG        -1.5740   -9.1750    6.8250 oh        1 ROA     -0.505100
     23 CAF        -0.2430   -7.1760    6.3620 ca        1 ROA      0.025100
     24 OAH         0.7440   -7.6970    7.1800 oh        1 ROA     -0.527100
     25 CAB        -0.1350   -5.9400    5.7190 ca        1 ROA     -0.167000
     26 CAA        -1.1800   -5.4830    4.9220 ca        1 ROA     -0.111000
     27 HAU        -1.0070   -0.0120   -0.0380 ha        1 ROA      0.213000
     28 HOAY        0.1460    1.0630   -1.7000 ho        1 ROA      0.423000
     29 HOAZ        3.8370    2.0060    0.8690 ho        1 ROA      0.399000
     30 HAX         3.0220    1.0310    2.7510 ha        1 ROA      0.117000
     31 HAT         1.1090   -0.2290    3.7240 ha        1 ROA      0.124000
     32 HAO        -1.0360   -1.1700    3.5460 hc        1 ROA      0.058200
     33 HAOA       -2.1240   -0.2360    2.4310 hc        1 ROA      0.058200
     34 HAN        -0.6710   -2.5540    1.1080 h1        1 ROA      0.058700
     35 HAJ        -4.3270   -4.6840    2.3230 ha        1 ROA      0.190000
     36 HAI        -4.4390   -6.1740    4.2640 ha        1 ROA      0.120000
     37 HAD        -3.3540   -8.1080    5.2850 ha        1 ROA      0.147000
     38 HOAG       -0.7450   -9.3870    7.2780 ho        1 ROA      0.428000
     39 HOAH        1.5300   -7.1450    7.0690 ho        1 ROA      0.423000
     40 HAB         0.7750   -5.3340    5.8400 ha        1 ROA      0.132000
     41 HAA        -1.0930   -4.5060    4.4160 ha        1 ROA      0.171000
@<TRIPOS>BOND
     1    1    2 ar  
     2    1    8 ar  
     3    1   27 1   
     4    2    3 1   
     5    2    4 ar  
     6    3   28 1   
     7    4    5 1   
     8    4    6 ar  
     9    5   29 1   
    10    6    7 ar  
    11    6   30 1   
    12    7    8 ar  
    13    7   31 1   
    14    8    9 1   
    15    9   10 1   
    16    9   32 1   
    17    9   33 1   
    18   10   11 1   
    19   10   14 1   
    20   10   34 1   
    21   11   12 1   
    22   11   13 1   
    23   14   15 1   
    24   15   16 2   
    25   15   17 1   
    26   17   18 2   
    27   17   35 1   
    28   18   19 1   
    29   18   36 1   
    30   19   20 ar  
    31   19   26 ar  
    32   20   21 ar  
    33   20   37 1   
    34   21   22 1   
    35   21   23 ar  
    36   22   38 1   
    37   23   24 1   
    38   23   25 ar  
    39   24   39 1   
    40   25   26 ar  
    41   25   40 1   
    42   26   41 1   
@<TRIPOS>SUBSTRUCTURE
     1 ROA         1 TEMP              0 ****  ****    0 ROOT
