@<TRIPOS>MOLECULE
ROA
   41    42     1     0     0
SMALL
bcc


@<TRIPOS>ATOM
      1 CAU        -0.0540    0.1870    0.5730 ca        1 ROA     -0.174000
      2 CAV         1.0440    0.8580    0.0310 ca        1 ROA      0.095100
      3 OAY         1.0770    1.2880   -1.2780 oh        1 ROA     -0.497100
      4 CAW         2.1750    1.1220    0.8350 ca        1 ROA      0.073100
      5 OAZ         3.2310    1.7960    0.2540 oh        1 ROA     -0.489100
      6 CAX         2.1860    0.7050    2.1700 ca        1 ROA     -0.198000
      7 CAT         1.0860    0.0340    2.7010 ca        1 ROA     -0.139000
      8 CAS        -0.0370   -0.2270    1.9110 ca        1 ROA     -0.053300
      9 CAO        -1.2320   -0.9150    2.4710 c3        1 ROA     -0.025100
     10 CAN        -1.5850   -2.1810    1.6970 c3        1 ROA      0.030100
     11 CAP        -2.7920   -2.0040    0.7350 c         1 ROA      0.908600
     12 OAR        -3.6670   -2.9160    0.7740 o         1 ROA     -0.826300
     13 OAQ        -2.8240   -0.9980   -0.0220 o         1 ROA     -0.826300
     14 OAM        -1.9560   -3.1480    2.7060 os        1 ROA     -0.468900
     15 CAK        -2.3250   -4.3830    2.2230 c         1 ROA      0.682300
     16 OAL        -1.6040   -4.9250    1.3820 o         1 ROA     -0.546000
     17 CAJ        -3.5370   -4.9310    2.8570 ce        1 ROA     -0.125200
     18 CAI        -3.6180   -5.7200    3.9310 cf        1 ROA     -0.130200
     19 CAC        -2.5300   -6.2080    4.7640 ca        1 ROA     -0.032800
     20 CAD        -2.6860   -7.4390    5.4200 ca        1 ROA     -0.131000
     21 CAE        -1.6630   -7.9310    6.2370 ca        1 ROA      0.097100
     22 OAG        -1.8740   -9.1420    6.8610 oh        1 ROA     -0.505100
     23 CAF        -0.4790   -7.1850    6.4050 ca        1 ROA      0.025100
     24 OAH         0.4820   -7.7300    7.2380 oh        1 ROA     -0.527100
     25 CAB        -0.3270   -5.9560    5.7580 ca        1 ROA     -0.167000
     26 CAA        -1.3490   -5.4730    4.9460 ca        1 ROA     -0.111000
     27 HAU        -0.9550   -0.0350   -0.0390 ha        1 ROA      0.213000
     28 HOAY        0.2480    0.9980   -1.6910 ho        1 ROA      0.423000
     29 HOAZ        3.9320    1.8480    0.9180 ho        1 ROA      0.399000
     30 HAX         3.0670    0.9070    2.7950 ha        1 ROA      0.117000
     31 HAT         1.1070   -0.2930    3.7500 ha        1 ROA      0.124000
     32 HAO        -2.1090   -0.2140    2.4170 hc        1 ROA      0.058200
     33 HAOA       -1.0630   -1.1720    3.5510 hc        1 ROA      0.058200
     34 HAN        -0.7070   -2.5790    1.1240 h1        1 ROA      0.058700
     35 HAJ        -4.4380   -4.5960    2.3030 ha        1 ROA      0.190000
     36 HAI        -4.6170   -6.0720    4.2500 ha        1 ROA      0.120000
     37 HAD        -3.6030   -8.0320    5.2940 ha        1 ROA      0.147000
     38 HOAG       -1.0570   -9.3760    7.3260 ho        1 ROA      0.428000
     39 HOAH        1.2850   -7.2020    7.1350 ho        1 ROA      0.423000
     40 HAB         0.5980   -5.3770    5.8870 ha        1 ROA      0.132000
     41 HAA        -1.2270   -4.5010    4.4360 ha        1 ROA      0.171000
@<TRIPOS>BOND
     1    1    2 ar  
     2    1    8 ar  
     3    1   27 1   
     4    2    3 1   
     5    2    4 ar  
     6    3   28 1   
     7    4    5 1   
     8    4    6 ar  
     9    5   29 1   
    10    6    7 ar  
    11    6   30 1   
    12    7    8 ar  
    13    7   31 1   
    14    8    9 1   
    15    9   10 1   
    16    9   32 1   
    17    9   33 1   
    18   10   11 1   
    19   10   14 1   
    20   10   34 1   
    21   11   12 1   
    22   11   13 1   
    23   14   15 1   
    24   15   16 2   
    25   15   17 1   
    26   17   18 2   
    27   17   35 1   
    28   18   19 1   
    29   18   36 1   
    30   19   20 ar  
    31   19   26 ar  
    32   20   21 ar  
    33   20   37 1   
    34   21   22 1   
    35   21   23 ar  
    36   22   38 1   
    37   23   24 1   
    38   23   25 ar  
    39   24   39 1   
    40   25   26 ar  
    41   25   40 1   
    42   26   41 1   
@<TRIPOS>SUBSTRUCTURE
     1 ROA         1 TEMP              0 ****  ****    0 ROOT
