@<TRIPOS>MOLECULE
ROB
   22    22     1     0     0
SMALL
bcc


@<TRIPOS>ATOM
      1 C1'         3.1660    1.5500   -0.3220 c3        1 ROB      0.127400
      2 O1'         1.8020    1.9260   -0.1720 os        1 ROB     -0.460600
      3 C2'         3.4500    0.3380    0.5580 c3        1 ROB      0.031100
      4 O2'         4.1590   -0.6450   -0.1600 oh        1 ROB     -0.663800
      5 C3'         2.0310   -0.1920    1.0400 c3        1 ROB      0.365800
      6 O3'         1.8290   -1.4400    0.6750 o         1 ROB     -0.865500
      7 C4'         1.0420    0.8740    0.4570 c3        1 ROB      0.048100
      8 C5'         0.0350    0.3210   -0.5590 c3        1 ROB      0.180400
      9 O5'        -1.2570    0.3680   -0.0250 os        1 ROB     -0.597200
     10 P'         -2.1110   -1.0450   -0.0040 p5        1 ROB      1.440800
     11 O1X        -1.2300   -1.8660    1.0820 oh        1 ROB     -0.815400
     12 O2X        -3.4390   -0.7490    0.5820 o         1 ROB     -0.862000
     13 O3X        -1.9530   -1.6840   -1.3320 o         1 ROB     -0.862000
     14 H1'1        3.7690    2.4480   -0.0240 h1        1 ROB     -0.000800
     15 H1'2        3.3550    1.3230   -1.4040 h1        1 ROB     -0.000800
     16 H2'         4.0940    0.6230    1.4310 h1        1 ROB      0.000700
     17 HO2'        3.5450   -1.4020   -0.2670 ho        1 ROB      0.438000
     18 H3'         2.0210   -0.0400    2.1690 h1        1 ROB     -0.081300
     19 HO3'       -0.2800   -1.8340    0.9520 ho        1 ROB      0.474000
     20 H4'         0.4850    1.3830    1.2890 h1        1 ROB      0.037700
     21 H5'1        0.0630    0.9710   -1.4810 h1        1 ROB      0.032200
     22 H5'2        0.3050   -0.7350   -0.8430 h1        1 ROB      0.032200
@<TRIPOS>BOND
     1    1    2 1   
     2    1    3 1   
     3    1   14 1   
     4    1   15 1   
     5    2    7 1   
     6    3    4 1   
     7    3    5 1   
     8    3   16 1   
     9    4   17 1   
    10    5    6 1   
    11    5    7 1   
    12    5   18 1   
    13    7    8 1   
    14    7   20 1   
    15    8    9 1   
    16    8   21 1   
    17    8   22 1   
    18    9   10 1   
    19   10   11 1   
    20   10   12 1   
    21   10   13 1   
    22   11   19 1   
@<TRIPOS>SUBSTRUCTURE
     1 ROB         1 TEMP              0 ****  ****    0 ROOT
