@<TRIPOS>MOLECULE
ROD
   33    34     1     0     0
SMALL
bcc


@<TRIPOS>ATOM
      1 OAA         3.0830    3.1800   -0.2080 o         1 ROD     -0.795800
      2 CAP         2.1990    2.3680    0.1660 c         1 ROD      0.921800
      3 OAD         1.0730    2.6550    0.6390 o         1 ROD     -0.795800
      4 CAS         2.5670    0.8590    0.0490 cc        1 ROD      0.046400
      5 NAN         3.8770    0.5480    0.3800 n         1 ROD     -0.436100
      6 CAU         4.3850   -0.7520    0.2600 c         1 ROD      0.791500
      7 OAB         5.5840   -1.0120    0.5330 o         1 ROD     -0.694500
      8 NAO         3.5100   -1.7630   -0.1580 n         1 ROD     -0.592500
      9 CAV         2.1660   -1.5060   -0.5040 c         1 ROD      0.716700
     10 OAC         1.4910   -2.4750   -0.9060 o         1 ROD     -0.657500
     11 CAT         1.7000   -0.1220   -0.3670 cd        1 ROD     -0.294400
     12 CAM         0.2830    0.1520   -0.7150 c3        1 ROD      0.012800
     13 CAL        -0.6220    0.0560    0.5080 c3        1 ROD     -0.055100
     14 CAQ        -1.9560    0.6670    0.2490 ca        1 ROD      0.001700
     15 CAJ        -2.0100    2.0670    0.1020 ca        1 ROD     -0.128000
     16 CAH        -3.2160    2.7120   -0.1340 ca        1 ROD     -0.111000
     17 CAI        -4.4000    1.9750   -0.2240 ca        1 ROD     -0.157000
     18 CAK        -4.3650    0.5950   -0.0740 ca        1 ROD     -0.105000
     19 CAR        -3.1480   -0.0610    0.1630 ca        1 ROD     -0.177300
     20 CAW        -3.1780   -1.5760    0.3280 c3        1 ROD      0.689200
     21 FAF        -2.7710   -2.0330    1.5600 f         1 ROD     -0.244633
     22 FAG        -4.4240   -2.1480    0.1860 f         1 ROD     -0.244633
     23 FAE        -2.4100   -2.2790   -0.5670 f         1 ROD     -0.244633
     24 H2          3.8740   -2.6850   -0.2340 hn        1 ROD      0.332500
     25 H4          0.2070    1.1890   -1.1430 hc        1 ROD      0.059200
     26 H5         -0.0620   -0.5840   -1.4900 hc        1 ROD      0.059200
     27 H6         -0.7200   -1.0160    0.8180 hc        1 ROD      0.072700
     28 H7         -0.1330    0.6270    1.3490 hc        1 ROD      0.072700
     29 H8         -1.0620    2.6400    0.1860 ha        1 ROD      0.207000
     30 H9         -3.2390    3.8060   -0.2480 ha        1 ROD      0.130000
     31 H10        -5.3560    2.4830   -0.4110 ha        1 ROD      0.122000
     32 H11        -5.2960    0.0110   -0.1410 ha        1 ROD      0.135000
     33 H12         4.5150    1.2960    0.5570 hn        1 ROD      0.365500
@<TRIPOS>BOND
     1    1    2 1   
     2    2    3 1   
     3    2    4 1   
     4    4    5 1   
     5    4   11 2   
     6    5    6 1   
     7    5   33 1   
     8    6    7 2   
     9    6    8 1   
    10    8    9 1   
    11    8   24 1   
    12    9   10 2   
    13    9   11 1   
    14   11   12 1   
    15   12   13 1   
    16   12   25 1   
    17   12   26 1   
    18   13   14 1   
    19   13   27 1   
    20   13   28 1   
    21   14   15 ar  
    22   14   19 ar  
    23   15   16 ar  
    24   15   29 1   
    25   16   17 ar  
    26   16   30 1   
    27   17   18 ar  
    28   17   31 1   
    29   18   19 ar  
    30   18   32 1   
    31   19   20 1   
    32   20   21 1   
    33   20   22 1   
    34   20   23 1   
@<TRIPOS>SUBSTRUCTURE
     1 ROD         1 TEMP              0 ****  ****    0 ROOT
