@<TRIPOS>MOLECULE
ROD
   33    34     1     0     0
SMALL
bcc


@<TRIPOS>ATOM
      1 OAA         0.0640   -0.0700    0.1230 o         1 ROD     -0.795800
      2 CAP         1.2420    0.3690    0.1130 c         1 ROD      0.921800
      3 OAD         1.8270    0.9580    1.0530 o         1 ROD     -0.795800
      4 CAS         2.0280    0.1790   -1.2180 cc        1 ROD      0.046400
      5 NAN         1.2830    0.3710   -2.3710 ns        1 ROD     -0.436100
      6 CAU         1.8240    0.1690   -3.6480 c         1 ROD      0.791500
      7 OAB         1.1280    0.3160   -4.6830 o         1 ROD     -0.694500
      8 NAO         3.1770   -0.1860   -3.7390 ns        1 ROD     -0.592500
      9 CAV         3.9850   -0.3910   -2.6000 c         1 ROD      0.716700
     10 OAC         5.1620   -0.7490   -2.8000 o         1 ROD     -0.657500
     11 CAT         3.3540   -0.1740   -1.2930 cd        1 ROD     -0.294400
     12 CAM         4.2020   -0.3740   -0.0920 c3        1 ROD      0.012800
     13 CAL         4.8540    0.9290    0.3550 c3        1 ROD     -0.055100
     14 CAQ         5.4040    0.8180    1.7360 ca        1 ROD      0.001700
     15 CAJ         4.4810    0.7130    2.7950 ca        1 ROD     -0.128000
     16 CAH         4.9150    0.6140    4.1100 ca        1 ROD     -0.111000
     17 CAI         6.2830    0.6220    4.4000 ca        1 ROD     -0.157000
     18 CAK         7.2050    0.7330    3.3680 ca        1 ROD     -0.105000
     19 CAR         6.7710    0.8320    2.0380 ca        1 ROD     -0.177300
     20 CAW         7.8320    0.9610    0.9520 c3        1 ROD      0.689200
     21 FAF         7.7910    2.1350    0.2360 f         1 ROD     -0.244633
     22 FAG         9.1330    0.9270    1.4080 f         1 ROD     -0.244633
     23 FAE         7.8150   -0.0230   -0.0060 f         1 ROD     -0.244633
     24 H2          3.5570   -0.3200   -4.6480 hn        1 ROD      0.332500
     25 H4          5.0020   -1.1290   -0.3190 hc        1 ROD      0.059200
     26 H5          3.5620   -0.7660    0.7450 hc        1 ROD      0.059200
     27 H6          5.6510    1.2200   -0.3770 hc        1 ROD      0.072700
     28 H7          4.0620    1.7320    0.3590 hc        1 ROD      0.072700
     29 H8          3.3990    0.7180    2.5490 ha        1 ROD      0.207000
     30 H9          4.1810    0.5300    4.9240 ha        1 ROD      0.130000
     31 H10         6.6280    0.5420    5.4400 ha        1 ROD      0.122000
     32 H11         8.2830    0.7420    3.5920 ha        1 ROD      0.135000
     33 H12         0.2970    0.5030   -2.2860 hn        1 ROD      0.365500
@<TRIPOS>BOND
     1    1    2 1   
     2    2    3 1   
     3    2    4 1   
     4    4    5 1   
     5    4   11 2   
     6    5    6 1   
     7    5   33 1   
     8    6    7 2   
     9    6    8 1   
    10    8    9 1   
    11    8   24 1   
    12    9   10 2   
    13    9   11 1   
    14   11   12 1   
    15   12   13 1   
    16   12   25 1   
    17   12   26 1   
    18   13   14 1   
    19   13   27 1   
    20   13   28 1   
    21   14   15 ar  
    22   14   19 ar  
    23   15   16 ar  
    24   15   29 1   
    25   16   17 ar  
    26   16   30 1   
    27   17   18 ar  
    28   17   31 1   
    29   18   19 ar  
    30   18   32 1   
    31   19   20 1   
    32   20   21 1   
    33   20   22 1   
    34   20   23 1   
@<TRIPOS>SUBSTRUCTURE
     1 ROD         1 TEMP              0 ****  ****    0 ROOT
