@<TRIPOS>MOLECULE
ROD
   33    34     1     0     0
SMALL
bcc


@<TRIPOS>ATOM
      1 OAA         0.0630   -0.0680    0.1260 o         1 ROD     -0.795800
      2 CAP         1.2410    0.3700    0.1170 c         1 ROD      0.921800
      3 OAD         1.8280    0.9560    1.0580 o         1 ROD     -0.795800
      4 CAS         2.0260    0.1840   -1.2160 cc        1 ROD      0.046400
      5 NAN         1.2800    0.3800   -2.3680 n         1 ROD     -0.436100
      6 CAU         1.8190    0.1820   -3.6460 c         1 ROD      0.791500
      7 OAB         1.1220    0.3330   -4.6790 o         1 ROD     -0.694500
      8 NAO         3.1720   -0.1720   -3.7390 n         1 ROD     -0.592500
      9 CAV         3.9810   -0.3820   -2.6020 c         1 ROD      0.716700
     10 OAC         5.1580   -0.7400   -2.8040 o         1 ROD     -0.657500
     11 CAT         3.3520   -0.1690   -1.2940 cd        1 ROD     -0.294400
     12 CAM         4.2010   -0.3730   -0.0950 c3        1 ROD      0.012800
     13 CAL         4.8540    0.9290    0.3570 c3        1 ROD     -0.055100
     14 CAQ         5.4060    0.8130    1.7360 ca        1 ROD      0.001700
     15 CAJ         4.4840    0.7040    2.7960 ca        1 ROD     -0.128000
     16 CAH         4.9200    0.6010    4.1100 ca        1 ROD     -0.111000
     17 CAI         6.2880    0.6080    4.3990 ca        1 ROD     -0.157000
     18 CAK         7.2090    0.7230    3.3650 ca        1 ROD     -0.105000
     19 CAR         6.7740    0.8260    2.0370 ca        1 ROD     -0.177300
     20 CAW         7.8330    0.9590    0.9490 c3        1 ROD      0.689200
     21 FAF         7.7910    2.1350    0.2370 f         1 ROD     -0.244633
     22 FAG         9.1350    0.9240    1.4040 f         1 ROD     -0.244633
     23 FAE         7.8160   -0.0220   -0.0110 f         1 ROD     -0.244633
     24 H2          3.5510   -0.3040   -4.6490 hn        1 ROD      0.332500
     25 H4          5.0000   -1.1280   -0.3240 hc        1 ROD      0.059200
     26 H5          3.5620   -0.7680    0.7420 hc        1 ROD      0.059200
     27 H6          4.0620    1.7320    0.3630 hc        1 ROD      0.072700
     28 H7          5.6500    1.2220   -0.3760 hc        1 ROD      0.072700
     29 H8          3.4020    0.7100    2.5510 ha        1 ROD      0.207000
     30 H9          4.1860    0.5150    4.9250 ha        1 ROD      0.130000
     31 H10         6.6350    0.5250    5.4380 ha        1 ROD      0.122000
     32 H11         8.2870    0.7320    3.5880 ha        1 ROD      0.135000
     33 H12         0.2940    0.5130   -2.2810 hn        1 ROD      0.365500
@<TRIPOS>BOND
     1    1    2 1   
     2    2    3 1   
     3    2    4 1   
     4    4    5 1   
     5    4   11 2   
     6    5    6 1   
     7    5   33 1   
     8    6    7 2   
     9    6    8 1   
    10    8    9 1   
    11    8   24 1   
    12    9   10 2   
    13    9   11 1   
    14   11   12 1   
    15   12   13 1   
    16   12   25 1   
    17   12   26 1   
    18   13   14 1   
    19   13   27 1   
    20   13   28 1   
    21   14   15 ar  
    22   14   19 ar  
    23   15   16 ar  
    24   15   29 1   
    25   16   17 ar  
    26   16   30 1   
    27   17   18 ar  
    28   17   31 1   
    29   18   19 ar  
    30   18   32 1   
    31   19   20 1   
    32   20   21 1   
    33   20   22 1   
    34   20   23 1   
@<TRIPOS>SUBSTRUCTURE
     1 ROD         1 TEMP              0 ****  ****    0 ROOT
