@<TRIPOS>MOLECULE
ROD
   33    27     1     0     0
SMALL
bcc


@<TRIPOS>ATOM
      1 OAA         3.3470   -0.6210    2.4740 o         1 ROD     -0.530500
      2 CAP         3.1930   -0.0570    1.3620 c1        1 ROD      0.372000
      3 OAD         3.2780    1.1940    1.2750 o         1 ROD     -0.530500
      4 CAS         2.9470   -0.8850    0.1210 c1        1 ROD      0.063000
      5 NAN         4.0430   -1.4140   -0.6080 n3        1 ROD     -0.280000
      6 CAU         3.8050   -2.2910   -1.7540 c1        1 ROD      0.382000
      7 OAB         4.7440   -2.7760   -2.3510 o         1 ROD     -0.419000
      8 NAO         2.4380   -2.5600   -2.2010 n2        1 ROD     -0.372000
      9 CAV         1.3380   -2.0380   -1.4730 c1        1 ROD      0.355000
     10 OAC         0.2020   -2.2860   -1.8270 o         1 ROD     -0.382000
     11 CAT         1.5720   -1.1820   -0.3030 c1        1 ROD     -0.271000
     12 CAM         0.4020   -0.6440    0.4880 c2        1 ROD     -0.070000
     13 CAL        -0.3590    0.3540   -0.3540 c3        1 ROD     -0.141000
     14 CAQ        -1.4710    0.9670    0.4710 c1        1 ROD      0.009000
     15 CAJ        -1.2160    1.4040    1.7620 c1        1 ROD     -0.125250
     16 CAH        -2.2140    2.0300    2.4920 c1        1 ROD     -0.125250
     17 CAI        -3.4680    2.2200    1.9310 c1        1 ROD     -0.125250
     18 CAK        -3.7230    1.7830    0.6410 c1        1 ROD     -0.125250
     19 CAR        -2.7250    1.1570   -0.0890 c1        1 ROD     -0.170000
     20 CAW        -2.9960    0.7040   -1.5070 c3        1 ROD      0.468000
     21 FAF        -2.1890    1.3630   -2.3490 f         1 ROD     -0.173333
     22 FAG        -4.2730    0.9590   -1.8210 f         1 ROD     -0.173333
     23 FAE        -2.7670   -0.6120   -1.6070 f         1 ROD     -0.173333
     24 H2          2.2920   -3.1060   -2.9160 hn        1 ROD      0.246000
     25 H4         -0.1910   -1.3820    0.7360 ha        1 ROD      0.098500
     26 H5          0.7310   -0.2050    1.2980 ha        1 ROD      0.098500
     27 H6          0.2500    1.0590   -0.6550 hc        1 ROD      0.112000
     28 H7         -0.7430   -0.1000   -1.1320 hc        1 ROD      0.112000
     29 H8         -0.3430    1.2410    2.1680 ha        1 ROD      0.148500
     30 H9         -2.0340    2.3370    3.4000 ha        1 ROD      0.148500
     31 H10        -4.1570    2.6990    2.4290 ha        1 ROD      0.148500
     32 H11        -4.6060    1.9170    0.2460 ha        1 ROD      0.148500
     33 H12         4.8950   -1.2270   -0.3480 hn        1 ROD      0.279000
@<TRIPOS>BOND
     1    1    2 1   
     2    2    3 1   
     3    4    5 1   
     4    4   11 1   
     5    5    6 1   
     6    5   33 1   
     7    6    7 1   
     8    8    9 1   
     9    8   24 1   
    10    9   10 1   
    11   12   13 1   
    12   12   25 1   
    13   12   26 1   
    14   13   14 1   
    15   13   27 1   
    16   13   28 1   
    17   14   19 1   
    18   15   16 1   
    19   15   29 1   
    20   16   30 1   
    21   17   18 1   
    22   17   31 1   
    23   18   32 1   
    24   19   20 1   
    25   20   21 1   
    26   20   22 1   
    27   20   23 1   
@<TRIPOS>SUBSTRUCTURE
     1 ROD         1 TEMP              0 ****  ****    0 ROOT
