@<TRIPOS>MOLECULE
ROD
   33    34     1     0     0
SMALL
bcc


@<TRIPOS>ATOM
      1 OAA         0.0650   -0.0780    0.1160 o         1 ROD     -0.795800
      2 CAP         1.2420    0.3630    0.1070 c         1 ROD      0.921800
      3 OAD         1.8250    0.9540    1.0480 o         1 ROD     -0.795800
      4 CAS         2.0310    0.1730   -1.2220 cc        1 ROD      0.046400
      5 NAN         1.2880    0.3630   -2.3770 n         1 ROD     -0.436100
      6 CAU         1.8310    0.1600   -3.6520 c         1 ROD      0.791500
      7 OAB         1.1370    0.3050   -4.6890 o         1 ROD     -0.694500
      8 NAO         3.1850   -0.1920   -3.7410 n         1 ROD     -0.592500
      9 CAV         3.9910   -0.3950   -2.6000 c         1 ROD      0.716700
     10 OAC         5.1700   -0.7510   -2.7980 o         1 ROD     -0.657500
     11 CAT         3.3570   -0.1780   -1.2950 cd        1 ROD     -0.294400
     12 CAM         4.2040   -0.3750   -0.0920 c3        1 ROD      0.012800
     13 CAL         4.8530    0.9300    0.3560 c3        1 ROD     -0.055100
     14 CAQ         5.4010    0.8210    1.7370 ca        1 ROD      0.001700
     15 CAJ         4.4760    0.7150    2.7950 ca        1 ROD     -0.128000
     16 CAH         4.9080    0.6180    4.1100 ca        1 ROD     -0.111000
     17 CAI         6.2760    0.6290    4.4030 ca        1 ROD     -0.157000
     18 CAK         7.1990    0.7410    3.3720 ca        1 ROD     -0.105000
     19 CAR         6.7680    0.8380    2.0420 ca        1 ROD     -0.177300
     20 CAW         7.8300    0.9680    0.9570 c3        1 ROD      0.689200
     21 FAF         7.7870    2.1410    0.2400 f         1 ROD     -0.244633
     22 FAG         9.1300    0.9380    1.4160 f         1 ROD     -0.244633
     23 FAE         7.8170   -0.0160    0.0000 f         1 ROD     -0.244633
     24 H2          3.5670   -0.3270   -4.6490 hn        1 ROD      0.332500
     25 H4          5.0060   -1.1290   -0.3160 hc        1 ROD      0.059200
     26 H5          3.5630   -0.7680    0.7440 hc        1 ROD      0.059200
     27 H6          5.6500    1.2220   -0.3760 hc        1 ROD      0.072700
     28 H7          4.0590    1.7310    0.3570 hc        1 ROD      0.072700
     29 H8          3.3940    0.7170    2.5470 ha        1 ROD      0.207000
     30 H9          4.1730    0.5330    4.9240 ha        1 ROD      0.130000
     31 H10         6.6200    0.5510    5.4440 ha        1 ROD      0.122000
     32 H11         8.2770    0.7530    3.5980 ha        1 ROD      0.135000
     33 H12         0.3010    0.4930   -2.2930 hn        1 ROD      0.365500
@<TRIPOS>BOND
     1    1    2 1   
     2    2    3 1   
     3    2    4 1   
     4    4    5 1   
     5    4   11 2   
     6    5    6 1   
     7    5   33 1   
     8    6    7 2   
     9    6    8 1   
    10    8    9 1   
    11    8   24 1   
    12    9   10 2   
    13    9   11 1   
    14   11   12 1   
    15   12   13 1   
    16   12   25 1   
    17   12   26 1   
    18   13   14 1   
    19   13   27 1   
    20   13   28 1   
    21   14   15 ar  
    22   14   19 ar  
    23   15   16 ar  
    24   15   29 1   
    25   16   17 ar  
    26   16   30 1   
    27   17   18 ar  
    28   17   31 1   
    29   18   19 ar  
    30   18   32 1   
    31   19   20 1   
    32   20   21 1   
    33   20   22 1   
    34   20   23 1   
@<TRIPOS>SUBSTRUCTURE
     1 ROD         1 TEMP              0 ****  ****    0 ROOT
