@<TRIPOS>MOLECULE
ROE
   40    42     1     0     0
SMALL
bcc


@<TRIPOS>ATOM
      1 OAB         0.2200    0.2030    0.3300 o         1 ROE     -0.794300
      2 CAQ         1.3930   -0.2470    0.2810 c         1 ROE      0.921800
      3 OAE         2.0210   -0.7950    1.2180 o         1 ROE     -0.794300
      4 CAT         2.1120   -0.1260   -1.0970 cc        1 ROE      0.044400
      5 NAN         1.2900   -0.2820   -2.2030 n         1 ROE     -0.436100
      6 CAV         1.7670   -0.1370   -3.5120 c         1 ROE      0.791500
      7 OAC         1.0040   -0.2470   -4.5030 o         1 ROE     -0.695500
      8 NAO         3.1350    0.1150   -3.6880 n         1 ROE     -0.592500
      9 CAW         4.0210    0.2720   -2.6020 c         1 ROE      0.716700
     10 OAD         5.2130    0.5210   -2.8750 o         1 ROE     -0.668500
     11 CAU         3.4520    0.1330   -1.2570 cd        1 ROE     -0.292400
     12 CAM         4.3830    0.2920   -0.1130 c3        1 ROE      0.008800
     13 CAL         5.0180   -1.0370    0.2760 c3        1 ROE     -0.036100
     14 CAR         5.6750   -0.9570    1.6100 ca        1 ROE     -0.074300
     15 CAJ         4.9020   -0.8740    2.7510 ca        1 ROE     -0.101000
     16 CAX         5.5100   -0.8110    4.0320 ca        1 ROE     -0.064000
     17 CAI         4.7310   -0.7240    5.2170 ca        1 ROE     -0.071000
     18 CAG         5.3250   -0.6650    6.4540 ca        1 ROE     -0.203000
     19 CAS         6.7420   -0.6910    6.5480 ca        1 ROE      0.103100
     20 OAP         7.4300   -0.6450    7.7540 os        1 ROE     -0.338900
     21 CAA         6.6370   -0.4730    8.9190 c3        1 ROE      0.119700
     22 CAK         7.5340   -0.7730    5.4170 ca        1 ROE     -0.161000
     23 CAY         6.9260   -0.8350    4.1370 ca        1 ROE     -0.015000
     24 CAH         7.7000   -0.9190    2.9480 ca        1 ROE     -0.153000
     25 CAF         7.0890   -0.9770    1.7200 ca        1 ROE     -0.107000
     26 H2          0.3030   -0.3490   -2.0580 hn        1 ROE      0.366500
     27 H3          3.4690    0.2060   -4.6200 hn        1 ROE      0.330500
     28 H4          3.8140    0.6920    0.7710 hc        1 ROE      0.058200
     29 H5          5.1860    1.0270   -0.3840 hc        1 ROE      0.058200
     30 H6          4.2030   -1.8130    0.3240 hc        1 ROE      0.057700
     31 H7          5.7540   -1.3460   -0.5100 hc        1 ROE      0.057700
     32 H8          3.7970   -0.8550    2.6630 ha        1 ROE      0.194000
     33 H9          3.6330   -0.7040    5.1200 ha        1 ROE      0.146000
     34 H10         4.7100   -0.5990    7.3610 ha        1 ROE      0.127000
     35 H11         5.9570   -1.3470    9.0680 h1        1 ROE      0.036033
     36 H12         7.3900   -0.4180    9.7450 h1        1 ROE      0.036033
     37 H13         6.0460    0.4740    8.8640 h1        1 ROE      0.036033
     38 H14         8.6290   -0.7910    5.5040 ha        1 ROE      0.137000
     39 H15         8.7960   -0.9340    3.0340 ha        1 ROE      0.120000
     40 H16         7.6910   -1.0380    0.8000 ha        1 ROE      0.128000
@<TRIPOS>BOND
     1    1    2 1   
     2    2    3 1   
     3    2    4 1   
     4    4    5 1   
     5    4   11 2   
     6    5    6 1   
     7    5   26 1   
     8    6    7 2   
     9    6    8 1   
    10    8    9 1   
    11    8   27 1   
    12    9   10 2   
    13    9   11 1   
    14   11   12 1   
    15   12   13 1   
    16   12   28 1   
    17   12   29 1   
    18   13   14 1   
    19   13   30 1   
    20   13   31 1   
    21   14   15 ar  
    22   14   25 ar  
    23   15   16 ar  
    24   15   32 1   
    25   16   17 ar  
    26   16   23 ar  
    27   17   18 ar  
    28   17   33 1   
    29   18   19 ar  
    30   18   34 1   
    31   19   20 1   
    32   19   22 ar  
    33   20   21 1   
    34   21   35 1   
    35   21   36 1   
    36   21   37 1   
    37   22   23 ar  
    38   22   38 1   
    39   23   24 ar  
    40   24   25 ar  
    41   24   39 1   
    42   25   40 1   
@<TRIPOS>SUBSTRUCTURE
     1 ROE         1 TEMP              0 ****  ****    0 ROOT
