@<TRIPOS>MOLECULE
ROE
   40    42     1     0     0
SMALL
bcc


@<TRIPOS>ATOM
      1 OAB         0.2160    0.1780    0.3300 o         1 ROE     -0.794300
      2 CAQ         1.3920   -0.2650    0.2810 c         1 ROE      0.921800
      3 OAE         2.0230   -0.8110    1.2170 o         1 ROE     -0.794300
      4 CAT         2.1110   -0.1380   -1.0970 cc        1 ROE      0.044400
      5 NAN         1.2900   -0.2970   -2.2040 n         1 ROE     -0.436100
      6 CAV         1.7660   -0.1470   -3.5120 c         1 ROE      0.791500
      7 OAC         1.0040   -0.2590   -4.5040 o         1 ROE     -0.695500
      8 NAO         3.1330    0.1140   -3.6870 n         1 ROE     -0.592500
      9 CAW         4.0180    0.2750   -2.6010 c         1 ROE      0.716700
     10 OAD         5.2080    0.5310   -2.8740 o         1 ROE     -0.668500
     11 CAU         3.4490    0.1300   -1.2560 cd        1 ROE     -0.292400
     12 CAM         4.3790    0.2920   -0.1120 c3        1 ROE      0.008800
     13 CAL         5.0210   -1.0340    0.2760 c3        1 ROE     -0.036100
     14 CAR         5.6770   -0.9520    1.6090 ca        1 ROE     -0.074300
     15 CAJ         4.9040   -0.8750    2.7510 ca        1 ROE     -0.101000
     16 CAX         5.5120   -0.8100    4.0320 ca        1 ROE     -0.064000
     17 CAI         4.7320   -0.7290    5.2170 ca        1 ROE     -0.071000
     18 CAG         5.3250   -0.6680    6.4530 ca        1 ROE     -0.203000
     19 CAS         6.7420   -0.6860    6.5480 ca        1 ROE      0.103100
     20 OAP         7.4300   -0.6380    7.7540 os        1 ROE     -0.338900
     21 CAA         6.6360   -0.4680    8.9190 c3        1 ROE      0.119700
     22 CAK         7.5350   -0.7620    5.4170 ca        1 ROE     -0.161000
     23 CAY         6.9280   -0.8260    4.1370 ca        1 ROE     -0.015000
     24 CAH         7.7020   -0.9040    2.9480 ca        1 ROE     -0.153000
     25 CAF         7.0920   -0.9640    1.7190 ca        1 ROE     -0.107000
     26 H2          0.3030   -0.3690   -2.0580 hn        1 ROE      0.366500
     27 H3          3.4670    0.2090   -4.6190 hn        1 ROE      0.330500
     28 H4          5.1780    1.0320   -0.3810 hc        1 ROE      0.058200
     29 H5          3.8070    0.6870    0.7730 hc        1 ROE      0.058200
     30 H6          4.2110   -1.8140    0.3220 hc        1 ROE      0.057700
     31 H7          5.7600   -1.3370   -0.5110 hc        1 ROE      0.057700
     32 H8          3.8000   -0.8620    2.6620 ha        1 ROE      0.194000
     33 H9          3.6340   -0.7160    5.1190 ha        1 ROE      0.146000
     34 H10         4.7100   -0.6070    7.3610 ha        1 ROE      0.127000
     35 H11         5.9600   -1.3450    9.0690 h1        1 ROE      0.036033
     36 H12         7.3890   -0.4090    9.7450 h1        1 ROE      0.036033
     37 H13         6.0400    0.4760    8.8630 h1        1 ROE      0.036033
     38 H14         8.6300   -0.7740    5.5040 ha        1 ROE      0.137000
     39 H15         8.7990   -0.9130    3.0340 ha        1 ROE      0.120000
     40 H16         7.6940   -1.0200    0.7990 ha        1 ROE      0.128000
@<TRIPOS>BOND
     1    1    2 1   
     2    2    3 1   
     3    2    4 1   
     4    4    5 1   
     5    4   11 2   
     6    5    6 1   
     7    5   26 1   
     8    6    7 2   
     9    6    8 1   
    10    8    9 1   
    11    8   27 1   
    12    9   10 2   
    13    9   11 1   
    14   11   12 1   
    15   12   13 1   
    16   12   28 1   
    17   12   29 1   
    18   13   14 1   
    19   13   30 1   
    20   13   31 1   
    21   14   15 ar  
    22   14   25 ar  
    23   15   16 ar  
    24   15   32 1   
    25   16   17 ar  
    26   16   23 ar  
    27   17   18 ar  
    28   17   33 1   
    29   18   19 ar  
    30   18   34 1   
    31   19   20 1   
    32   19   22 ar  
    33   20   21 1   
    34   21   35 1   
    35   21   36 1   
    36   21   37 1   
    37   22   23 ar  
    38   22   38 1   
    39   23   24 ar  
    40   24   25 ar  
    41   24   39 1   
    42   25   40 1   
@<TRIPOS>SUBSTRUCTURE
     1 ROE         1 TEMP              0 ****  ****    0 ROOT
