@<TRIPOS>MOLECULE
ROE
   40    42     1     0     0
SMALL
bcc


@<TRIPOS>ATOM
      1 OAB        -2.8610   -3.2670    0.3180 o         1 ROE     -0.794300
      2 CAQ        -2.3580   -2.1830   -0.0720 c         1 ROE      0.921800
      3 OAE        -1.2070   -2.0200   -0.5430 o         1 ROE     -0.794300
      4 CAT        -3.2840   -0.9310    0.0210 cc        1 ROE      0.044400
      5 NAN        -4.6260   -1.1740   -0.2300 n         1 ROE     -0.436100
      6 CAV        -5.5970   -0.1710   -0.1210 c         1 ROE      0.791500
      7 OAC        -6.8140   -0.4140   -0.3170 o         1 ROE     -0.695500
      8 NAO        -5.1690    1.1270    0.1940 n         1 ROE     -0.592500
      9 CAW        -3.8160    1.4360    0.4470 c         1 ROE      0.716700
     10 OAD        -3.5520    2.6190    0.7440 o         1 ROE     -0.668500
     11 CAU        -2.8540    0.3340    0.3410 cd        1 ROE     -0.292400
     12 CAM        -1.4290    0.6580    0.6020 c3        1 ROE      0.008800
     13 CAL        -0.7150    1.0890   -0.6720 c3        1 ROE     -0.036100
     14 CAR         0.7630    1.0860   -0.4950 ca        1 ROE     -0.074300
     15 CAJ         1.4400   -0.1140   -0.3990 ca        1 ROE     -0.101000
     16 CAX         2.8500   -0.1370   -0.2440 ca        1 ROE     -0.064000
     17 CAI         3.5630   -1.3630   -0.1420 ca        1 ROE     -0.071000
     18 CAG         4.9280   -1.3790    0.0060 ca        1 ROE     -0.203000
     19 CAS         5.6380   -0.1510    0.0590 ca        1 ROE      0.103100
     20 OAP         7.0180   -0.0690    0.1970 os        1 ROE     -0.338900
     21 CAA         7.7000   -1.3000    0.3860 c3        1 ROE      0.119700
     22 CAK         4.9790    1.0620   -0.0360 ca        1 ROE     -0.161000
     23 CAY         3.5700    1.0850   -0.1900 ca        1 ROE     -0.015000
     24 CAH         2.8510    2.3080   -0.2890 ca        1 ROE     -0.153000
     25 CAF         1.4860    2.3060   -0.4370 ca        1 ROE     -0.107000
     26 H2         -4.9260   -2.1210   -0.3400 hn        1 ROE      0.366500
     27 H3         -5.8620    1.8360    0.2580 hn        1 ROE      0.330500
     28 H4         -1.3660    1.4790    1.3650 hc        1 ROE      0.058200
     29 H5         -0.9140   -0.2540    1.0130 hc        1 ROE      0.058200
     30 H6         -0.9800    0.3580   -1.4860 hc        1 ROE      0.057700
     31 H7         -1.0750    2.1050   -0.9790 hc        1 ROE      0.057700
     32 H8          0.8730   -1.0660   -0.4420 ha        1 ROE      0.194000
     33 H9          2.9910   -2.3040   -0.1840 ha        1 ROE      0.146000
     34 H10         5.4650   -2.3340    0.0830 ha        1 ROE      0.127000
     35 H11         8.7680   -0.9910    0.5190 h1        1 ROE      0.036033
     36 H12         7.3270   -1.8280    1.2970 h1        1 ROE      0.036033
     37 H13         7.5930   -1.9540   -0.5140 h1        1 ROE      0.036033
     38 H14         5.5400    2.0060    0.0070 ha        1 ROE      0.137000
     39 H15         3.4120    3.2520   -0.2440 ha        1 ROE      0.120000
     40 H16         0.9310    3.2530   -0.5100 ha        1 ROE      0.128000
@<TRIPOS>BOND
     1    1    2 1   
     2    2    3 1   
     3    2    4 1   
     4    4    5 1   
     5    4   11 2   
     6    5    6 1   
     7    5   26 1   
     8    6    7 2   
     9    6    8 1   
    10    8    9 1   
    11    8   27 1   
    12    9   10 2   
    13    9   11 1   
    14   11   12 1   
    15   12   13 1   
    16   12   28 1   
    17   12   29 1   
    18   13   14 1   
    19   13   30 1   
    20   13   31 1   
    21   14   15 ar  
    22   14   25 ar  
    23   15   16 ar  
    24   15   32 1   
    25   16   17 ar  
    26   16   23 ar  
    27   17   18 ar  
    28   17   33 1   
    29   18   19 ar  
    30   18   34 1   
    31   19   20 1   
    32   19   22 ar  
    33   20   21 1   
    34   21   35 1   
    35   21   36 1   
    36   21   37 1   
    37   22   23 ar  
    38   22   38 1   
    39   23   24 ar  
    40   24   25 ar  
    41   24   39 1   
    42   25   40 1   
@<TRIPOS>SUBSTRUCTURE
     1 ROE         1 TEMP              0 ****  ****    0 ROOT
