@<TRIPOS>MOLECULE
ROE
   40    42     1     0     0
SMALL
bcc


@<TRIPOS>ATOM
      1 OAB         0.2110    0.1430    0.3300 o         1 ROE     -0.794300
      2 CAQ         1.3910   -0.2900    0.2810 c         1 ROE      0.921800
      3 OAE         2.0270   -0.8320    1.2160 o         1 ROE     -0.794300
      4 CAT         2.1090   -0.1540   -1.0970 cc        1 ROE      0.044400
      5 NAN         1.2890   -0.3180   -2.2040 ns        1 ROE     -0.436100
      6 CAV         1.7650   -0.1610   -3.5120 c         1 ROE      0.791500
      7 OAC         1.0030   -0.2790   -4.5040 o         1 ROE     -0.695500
      8 NAO         3.1290    0.1120   -3.6870 ns        1 ROE     -0.592500
      9 CAW         4.0120    0.2780   -2.6000 c         1 ROE      0.716700
     10 OAD         5.2010    0.5440   -2.8720 o         1 ROE     -0.668500
     11 CAU         3.4440    0.1250   -1.2560 cd        1 ROE     -0.292400
     12 CAM         4.3730    0.2930   -0.1110 c3        1 ROE      0.008800
     13 CAL         5.0270   -1.0270    0.2740 c3        1 ROE     -0.036100
     14 CAR         5.6820   -0.9420    1.6080 ca        1 ROE     -0.074300
     15 CAJ         4.9080   -0.8750    2.7500 ca        1 ROE     -0.101000
     16 CAX         5.5150   -0.8070    4.0310 ca        1 ROE     -0.064000
     17 CAI         4.7340   -0.7360    5.2160 ca        1 ROE     -0.071000
     18 CAG         5.3260   -0.6720    6.4530 ca        1 ROE     -0.203000
     19 CAS         6.7430   -0.6780    6.5480 ca        1 ROE      0.103100
     20 OAP         7.4300   -0.6260    7.7540 os        1 ROE     -0.338900
     21 CAA         6.6350   -0.4670    8.9190 c3        1 ROE      0.119700
     22 CAK         7.5370   -0.7450    5.4170 ca        1 ROE     -0.161000
     23 CAY         6.9310   -0.8110    4.1370 ca        1 ROE     -0.015000
     24 CAH         7.7060   -0.8800    2.9480 ca        1 ROE     -0.153000
     25 CAF         7.0970   -0.9430    1.7190 ca        1 ROE     -0.107000
     26 H2          0.3030   -0.3990   -2.0590 hn        1 ROE      0.366500
     27 H3          3.4620    0.2110   -4.6180 hn        1 ROE      0.330500
     28 H4          5.1660    1.0410   -0.3780 hc        1 ROE      0.058200
     29 H5          3.7980    0.6820    0.7750 hc        1 ROE      0.058200
     30 H6          4.2230   -1.8150    0.3190 hc        1 ROE      0.057700
     31 H7          5.7680   -1.3230   -0.5130 hc        1 ROE      0.057700
     32 H8          3.8030   -0.8710    2.6610 ha        1 ROE      0.194000
     33 H9          3.6360   -0.7310    5.1180 ha        1 ROE      0.146000
     34 H10         4.7100   -0.6180    7.3600 ha        1 ROE      0.127000
     35 H11         5.9670   -1.3510    9.0660 h1        1 ROE      0.036033
     36 H12         7.3870   -0.4040    9.7460 h1        1 ROE      0.036033
     37 H13         6.0310    0.4710    8.8660 h1        1 ROE      0.036033
     38 H14         8.6320   -0.7480    5.5040 ha        1 ROE      0.137000
     39 H15         8.8020   -0.8800    3.0340 ha        1 ROE      0.120000
     40 H16         7.6990   -0.9920    0.7990 ha        1 ROE      0.128000
@<TRIPOS>BOND
     1    1    2 1   
     2    2    3 1   
     3    2    4 1   
     4    4    5 1   
     5    4   11 2   
     6    5    6 1   
     7    5   26 1   
     8    6    7 2   
     9    6    8 1   
    10    8    9 1   
    11    8   27 1   
    12    9   10 2   
    13    9   11 1   
    14   11   12 1   
    15   12   13 1   
    16   12   28 1   
    17   12   29 1   
    18   13   14 1   
    19   13   30 1   
    20   13   31 1   
    21   14   15 ar  
    22   14   25 ar  
    23   15   16 ar  
    24   15   32 1   
    25   16   17 ar  
    26   16   23 ar  
    27   17   18 ar  
    28   17   33 1   
    29   18   19 ar  
    30   18   34 1   
    31   19   20 1   
    32   19   22 ar  
    33   20   21 1   
    34   21   35 1   
    35   21   36 1   
    36   21   37 1   
    37   22   23 ar  
    38   22   38 1   
    39   23   24 ar  
    40   24   25 ar  
    41   24   39 1   
    42   25   40 1   
@<TRIPOS>SUBSTRUCTURE
     1 ROE         1 TEMP              0 ****  ****    0 ROOT
