@<TRIPOS>MOLECULE
ROF
   40    42     1     0     0
SMALL
bcc


@<TRIPOS>ATOM
      1 O24        -0.0460   -1.0170   -0.3260 o         1 ROF     -0.559100
      2 C23        -1.9710    0.6200    6.3540 cx        1 ROF     -0.126400
      3 C22        -1.4560   -0.7410    6.7150 cx        1 ROF     -0.126400
      4 C21        -0.5400    0.2580    6.0600 cx        1 ROF     -0.132700
      5 C8          1.1200   -0.5950   -0.2640 c         1 ROF      0.680700
      6 C9          1.8980   -0.6040    1.0110 ca        1 ROF     -0.109600
      7 C10         3.2640   -0.8900    1.0390 ca        1 ROF     -0.128000
      8 C11         3.9440   -0.9050    2.2560 ca        1 ROF     -0.111000
      9 C12         3.2590   -0.6300    3.4420 ca        1 ROF      0.083100
     10 O15         3.8810   -0.7690    4.6730 os        1 ROF     -0.364900
     11 C16         4.7980    0.2210    5.0900 c3        1 ROF      0.587700
     12 F18         5.8710    0.2040    4.2460 f         1 ROF     -0.245800
     13 F17         4.2480    1.4590    4.9460 f         1 ROF     -0.245800
     14 C13         1.8720   -0.3410    3.4160 ca        1 ROF      0.136100
     15 O19         1.2950   -0.0730    4.6340 os        1 ROF     -0.306900
     16 C20        -0.1370    0.0720    4.6280 c3        1 ROF      0.153400
     17 C14         1.1950   -0.3370    2.1910 ca        1 ROF     -0.156000
     18 N7          1.7850   -0.0770   -1.3800 ns        1 ROF     -0.481100
     19 C6          1.1930    0.0550   -2.6460 ca        1 ROF      0.100600
     20 C5          0.7900   -1.0660   -3.4110 ca        1 ROF     -0.112900
     21 Cl26        0.9950   -2.6480   -2.8570 cl        1 ROF     -0.056400
     22 C4          0.2140   -0.8580   -4.6830 ca        1 ROF      0.414200
     23 N3          0.0490    0.3540   -5.2360 nb        1 ROF     -0.649000
     24 C2          0.4560    1.4230   -4.5310 ca        1 ROF      0.414200
     25 C1          1.0240    1.3300   -3.2470 ca        1 ROF     -0.112900
     26 Cl25        1.5000    2.7440   -2.4440 cl        1 ROF     -0.056400
     27 H232       -2.6810    0.7200    5.5140 hc        1 ROF      0.074200
     28 H221       -1.8000   -1.6160    6.1340 hc        1 ROF      0.074200
     29 H222       -1.2920   -0.9940    7.7770 hc        1 ROF      0.074200
     30 H21         0.2660    0.7130    6.6710 hc        1 ROF      0.102700
     31 H10         3.8120   -1.1280    0.1150 ha        1 ROF      0.148000
     32 H11         5.0220   -1.1290    2.2960 ha        1 ROF      0.161000
     33 H16         5.0590   -0.0410    6.1570 h3        1 ROF      0.128700
     34 H201       -0.6040   -0.8440    4.1780 h1        1 ROF      0.048200
     35 H202       -0.4080    0.9770    4.0210 h1        1 ROF      0.048200
     36 H14         0.1130   -0.1390    2.1360 ha        1 ROF      0.164000
     37 HN7         2.5790    0.5020   -1.2120 hn        1 ROF      0.330500
     38 H4         -0.1270   -1.7190   -5.2900 h4        1 ROF      0.042600
     39 H2          0.3150    2.4080   -5.0150 h4        1 ROF      0.042600
     40 H231       -2.1780    1.3500    7.1570 hc        1 ROF      0.074200
@<TRIPOS>BOND
     1    1    5 2   
     2    2    3 1   
     3    2    4 1   
     4    2   27 1   
     5    2   40 1   
     6    3    4 1   
     7    3   28 1   
     8    3   29 1   
     9    4   16 1   
    10    4   30 1   
    11    5    6 1   
    12    5   18 1   
    13    6    7 ar  
    14    6   17 ar  
    15    7    8 ar  
    16    7   31 1   
    17    8    9 ar  
    18    8   32 1   
    19    9   10 1   
    20    9   14 ar  
    21   10   11 1   
    22   11   12 1   
    23   11   13 1   
    24   11   33 1   
    25   14   15 1   
    26   14   17 ar  
    27   15   16 1   
    28   16   34 1   
    29   16   35 1   
    30   17   36 1   
    31   18   19 1   
    32   18   37 1   
    33   19   20 ar  
    34   19   25 ar  
    35   20   21 1   
    36   20   22 ar  
    37   22   23 ar  
    38   22   38 1   
    39   23   24 ar  
    40   24   25 ar  
    41   24   39 1   
    42   25   26 1   
@<TRIPOS>SUBSTRUCTURE
     1 ROF         1 TEMP              0 ****  ****    0 ROOT
