@<TRIPOS>MOLECULE
ROF
   40    42     1     0     0
SMALL
bcc


@<TRIPOS>ATOM
      1 O24        -0.0370   -1.0300   -0.3250 o         1 ROF     -0.559100
      2 C23        -1.9810    0.5950    6.3510 cx        1 ROF     -0.126400
      3 C22        -1.4500   -0.7590    6.7150 cx        1 ROF     -0.126400
      4 C21        -0.5460    0.2500    6.0590 cx        1 ROF     -0.132700
      5 C8          1.1250   -0.5980   -0.2640 c         1 ROF      0.680700
      6 C9          1.9020   -0.5980    1.0120 ca        1 ROF     -0.109600
      7 C10         3.2700   -0.8730    1.0420 ca        1 ROF     -0.128000
      8 C11         3.9500   -0.8810    2.2590 ca        1 ROF     -0.111000
      9 C12         3.2620   -0.6100    3.4430 ca        1 ROF      0.083100
     10 O15         3.8840   -0.7420    4.6760 os        1 ROF     -0.364900
     11 C16         4.7930    0.2570    5.0910 c3        1 ROF      0.587700
     12 F18         5.8670    0.2480    4.2480 f         1 ROF     -0.245800
     13 F17         4.2330    1.4900    4.9460 f         1 ROF     -0.245800
     14 C13         1.8730   -0.3320    3.4170 ca        1 ROF      0.136100
     15 O19         1.2930   -0.0670    4.6340 os        1 ROF     -0.306900
     16 C20        -0.1410    0.0650    4.6270 c3        1 ROF      0.153400
     17 C14         1.1960   -0.3360    2.1910 ca        1 ROF     -0.156000
     18 N7          1.7860   -0.0760   -1.3800 n         1 ROF     -0.481100
     19 C6          1.1940    0.0490   -2.6470 ca        1 ROF      0.100600
     20 C5          0.8010   -1.0770   -3.4100 ca        1 ROF     -0.112900
     21 CL26        1.0190   -2.6560   -2.8530 cl        1 ROF     -0.056400
     22 C4          0.2250   -0.8750   -4.6830 ca        1 ROF      0.414200
     23 N3          0.0500    0.3340   -5.2380 nb        1 ROF     -0.649000
     24 C2          0.4480    1.4080   -4.5340 ca        1 ROF      0.414200
     25 C1          1.0150    1.3220   -3.2490 ca        1 ROF     -0.112900
     26 CL25        1.4790    2.7400   -2.4480 cl        1 ROF     -0.056400
     27 H232       -2.6920    0.6840    5.5110 hc        1 ROF      0.074200
     28 H221       -1.2830   -1.0060    7.7790 hc        1 ROF      0.074200
     29 H222       -1.7830   -1.6390    6.1360 hc        1 ROF      0.074200
     30 H21         0.2540    0.7160    6.6690 hc        1 ROF      0.102700
     31 H10         3.8210   -1.1080    0.1180 ha        1 ROF      0.148000
     32 H11         5.0300   -1.0950    2.3000 ha        1 ROF      0.161000
     33 H16         5.0560   -0.0020    6.1590 h3        1 ROF      0.128700
     34 H201       -0.4190    0.9670    4.0180 h1        1 ROF      0.048200
     35 H202       -0.5990   -0.8560    4.1780 h1        1 ROF      0.048200
     36 H14         0.1130   -0.1460    2.1350 ha        1 ROF      0.164000
     37 HN7         2.5760    0.5100   -1.2120 hn        1 ROF      0.330500
     38 H4         -0.1080   -1.7400   -5.2890 h4        1 ROF      0.042600
     39 H2          0.2980    2.3910   -5.0190 h4        1 ROF      0.042600
     40 H231       -2.1980    1.3250    7.1520 hc        1 ROF      0.074200
@<TRIPOS>BOND
     1    1    5 2   
     2    2    3 1   
     3    2    4 1   
     4    2   27 1   
     5    2   40 1   
     6    3    4 1   
     7    3   28 1   
     8    3   29 1   
     9    4   16 1   
    10    4   30 1   
    11    5    6 1   
    12    5   18 1   
    13    6    7 ar  
    14    6   17 ar  
    15    7    8 ar  
    16    7   31 1   
    17    8    9 ar  
    18    8   32 1   
    19    9   10 1   
    20    9   14 ar  
    21   10   11 1   
    22   11   12 1   
    23   11   13 1   
    24   11   33 1   
    25   14   15 1   
    26   14   17 ar  
    27   15   16 1   
    28   16   34 1   
    29   16   35 1   
    30   17   36 1   
    31   18   19 1   
    32   18   37 1   
    33   19   20 ar  
    34   19   25 ar  
    35   20   21 1   
    36   20   22 ar  
    37   22   23 ar  
    38   22   38 1   
    39   23   24 ar  
    40   24   25 ar  
    41   24   39 1   
    42   25   26 1   
@<TRIPOS>SUBSTRUCTURE
     1 ROF         1 TEMP              0 ****  ****    0 ROOT
