@<TRIPOS>MOLECULE
ROF
   41    43     1     0     0
SMALL
bcc


@<TRIPOS>ATOM
      1 O24         0.1740    0.9750   -0.3780 o         1 ROF     -0.402100
      2 C23        -2.2000    0.1460    6.2960 cx        1 ROF     -0.117900
      3 C22        -1.6250   -1.2340    6.4050 cx        1 ROF     -0.117900
      4 C21        -0.7390   -0.0820    6.0090 cx        1 ROF     -0.147700
      5 C8          1.3040    0.5530   -0.2030 c         1 ROF      0.581700
      6 C9          2.0220    0.3250    1.0460 ca        1 ROF     -0.202600
      7 C10         3.4150    0.2380    1.1370 ca        1 ROF     -0.085000
      8 C11         4.0230    0.0330    2.3730 ca        1 ROF     -0.168000
      9 C12         3.2470   -0.0860    3.5300 ca        1 ROF      0.192100
     10 O15         3.7210   -0.2930    4.7980 os        1 ROF     -0.342900
     11 C16         5.1080   -0.4210    5.0760 c3        1 ROF      0.593700
     12 F18         5.6100   -1.4460    4.3350 f         1 ROF     -0.233300
     13 F17         5.7480    0.6990    4.6420 f         1 ROF     -0.233300
     14 C13         1.8220    0.0130    3.4440 ca        1 ROF      0.133100
     15 O19         1.1610   -0.1150    4.6350 os        1 ROF     -0.287900
     16 C20        -0.2730    0.0460    4.5900 c3        1 ROF      0.154400
     17 C14         1.2240    0.2210    2.2050 ca        1 ROF     -0.125000
     18 N7          2.0940    0.1860   -1.4750 n4        1 ROF     -0.557200
     19 C6          1.2700    0.0020   -2.6640 ca        1 ROF     -0.001400
     20 C5          0.6790   -1.2510   -2.9400 ca        1 ROF     -0.086900
     21 CL26        0.8990   -2.5760   -1.9230 cl        1 ROF     -0.012400
     22 C4         -0.1100   -1.3750   -4.1070 ca        1 ROF      0.444700
     23 N3         -0.3240   -0.3610   -4.9620 nb        1 ROF     -0.590000
     24 C2          0.2420    0.8270   -4.7000 ca        1 ROF      0.444700
     25 C1          1.0510    1.0670   -3.5640 ca        1 ROF     -0.086900
     26 CL25        1.7300    2.5890   -3.3160 cl        1 ROF     -0.012400
     27 H221       -1.4890   -1.6860    7.4040 hc        1 ROF      0.079950
     28 H222       -1.8980   -1.9900    5.6470 hc        1 ROF      0.079950
     29 H21         0.0150    0.2780    6.7380 hc        1 ROF      0.108700
     30 H10         4.0710    0.3520    0.2620 ha        1 ROF      0.129000
     31 H11         5.1230   -0.0300    2.4380 ha        1 ROF      0.182000
     32 H16         5.1580   -0.5850    6.1960 h3        1 ROF      0.161700
     33 H201       -0.7100   -0.7500    3.9310 h1        1 ROF      0.048200
     34 H202       -0.5140    1.0630    4.1810 h1        1 ROF      0.048200
     35 H14         0.1290    0.3110    2.1160 ha        1 ROF      0.174000
     36 HN7         2.7720    0.9410   -1.6520 hn        1 ROF      0.469300
     37 H4         -0.5940   -2.3410   -4.3610 h4        1 ROF      0.077100
     38 H2          0.0420    1.6390   -5.4300 h4        1 ROF      0.077100
     39 H231       -2.4780    0.6920    7.2160 hc        1 ROF      0.079950
     40 H72         2.6110   -0.6840   -1.2870 hn        1 ROF      0.469300
     41 H232       -2.8820    0.3790    5.4590 hc        1 ROF      0.079950
@<TRIPOS>BOND
     1    1    5 2   
     2    2    3 1   
     3    2    4 1   
     4    2   39 1   
     5    2   41 1   
     6    3    4 1   
     7    3   27 1   
     8    3   28 1   
     9    4   16 1   
    10    4   29 1   
    11    5    6 1   
    12    5   18 1   
    13    6    7 ar  
    14    6   17 ar  
    15    7    8 ar  
    16    7   30 1   
    17    8    9 ar  
    18    8   31 1   
    19    9   10 1   
    20    9   14 ar  
    21   10   11 1   
    22   11   12 1   
    23   11   13 1   
    24   11   32 1   
    25   14   15 1   
    26   14   17 ar  
    27   15   16 1   
    28   16   33 1   
    29   16   34 1   
    30   17   35 1   
    31   18   19 1   
    32   18   36 1   
    33   18   40 1   
    34   19   20 ar  
    35   19   25 ar  
    36   20   21 1   
    37   20   22 ar  
    38   22   23 ar  
    39   22   37 1   
    40   23   24 ar  
    41   24   25 ar  
    42   24   38 1   
    43   25   26 1   
@<TRIPOS>SUBSTRUCTURE
     1 ROF         1 TEMP              0 ****  ****    0 ROOT
