@<TRIPOS>MOLECULE
ROF
   40    42     1     0     0
SMALL
bcc


@<TRIPOS>ATOM
      1 O24        -1.6310    0.6940    1.5400 o         1 ROF     -0.559100
      2 C23        -4.2330   -1.7760   -4.6360 cx        1 ROF     -0.126400
      3 C22        -4.0840   -0.3670   -5.1300 cx        1 ROF     -0.126400
      4 C21        -2.8830   -1.1110   -4.6100 cx        1 ROF     -0.132700
      5 C8         -0.4290    0.5100    1.2910 c         1 ROF      0.680700
      6 C9          0.1110    0.5820   -0.0990 ca        1 ROF     -0.109600
      7 C10         1.3630    1.1320   -0.3760 ca        1 ROF     -0.128000
      8 C11         1.8180    1.1950   -1.6930 ca        1 ROF     -0.111000
      9 C12         1.0210    0.7040   -2.7290 ca        1 ROF      0.083100
     10 O15         1.3910    0.8760   -4.0550 os        1 ROF     -0.364900
     11 C16         2.4140    0.0610   -4.5880 c3        1 ROF      0.587700
     12 F18         3.5830    0.3520   -3.9460 f         1 ROF     -0.245800
     13 F17         2.1660   -1.2480   -4.3050 f         1 ROF     -0.245800
     14 C13        -0.2520    0.1470   -2.4510 ca        1 ROF      0.136100
     15 O19        -0.9510   -0.3170   -3.5390 os        1 ROF     -0.306900
     16 C20        -2.3000   -0.7450   -3.2780 c3        1 ROF      0.153400
     17 C14        -0.7040    0.0960   -1.1280 ca        1 ROF     -0.156000
     18 N7          0.5020    0.2170    2.2930 n         1 ROF     -0.481100
     19 C6          0.1660    0.0610    3.6470 ca        1 ROF      0.100600
     20 C5         -0.3320    1.1310    4.4280 ca        1 ROF     -0.112900
     21 CL26       -0.5550    2.6780    3.7890 cl        1 ROF     -0.056400
     22 C4         -0.6360    0.9040    5.7880 ca        1 ROF      0.414200
     23 N3         -0.4520   -0.2740    6.4060 nb        1 ROF     -0.649000
     24 C2          0.0480   -1.2880    5.6800 ca        1 ROF      0.414200
     25 C1          0.3670   -1.1760    4.3130 ca        1 ROF     -0.112900
     26 CL25        0.9910   -2.5200    3.4920 cl        1 ROF     -0.056400
     27 H232       -4.7590   -1.9570   -3.6820 hc        1 ROF      0.074200
     28 H221       -4.5060    0.4590   -4.5290 hc        1 ROF      0.074200
     29 H222       -4.1540   -0.1640   -6.2130 hc        1 ROF      0.074200
     30 H21        -2.1110   -1.4360   -5.3360 hc        1 ROF      0.102700
     31 H10         1.9930    1.5400    0.4290 ha        1 ROF      0.148000
     32 H11         2.8040    1.6260   -1.9290 ha        1 ROF      0.161000
     33 H16         2.4370    0.2930   -5.6940 h3        1 ROF      0.128700
     34 H201       -2.2730   -1.6400   -2.6000 h1        1 ROF      0.048200
     35 H202       -2.8690    0.0890   -2.7880 h1        1 ROF      0.048200
     36 H14        -1.6960   -0.3090   -0.8770 ha        1 ROF      0.164000
     37 HN7         1.3620   -0.2030    2.0100 hn        1 ROF      0.330500
     38 H4         -1.0450    1.7210    6.4130 h4        1 ROF      0.042600
     39 H2          0.1970   -2.2440    6.2170 h4        1 ROF      0.042600
     40 H231       -4.4100   -2.5880   -5.3640 hc        1 ROF      0.074200
@<TRIPOS>BOND
     1    1    5 2   
     2    2    3 1   
     3    2    4 1   
     4    2   27 1   
     5    2   40 1   
     6    3    4 1   
     7    3   28 1   
     8    3   29 1   
     9    4   16 1   
    10    4   30 1   
    11    5    6 1   
    12    5   18 1   
    13    6    7 ar  
    14    6   17 ar  
    15    7    8 ar  
    16    7   31 1   
    17    8    9 ar  
    18    8   32 1   
    19    9   10 1   
    20    9   14 ar  
    21   10   11 1   
    22   11   12 1   
    23   11   13 1   
    24   11   33 1   
    25   14   15 1   
    26   14   17 ar  
    27   15   16 1   
    28   16   34 1   
    29   16   35 1   
    30   17   36 1   
    31   18   19 1   
    32   18   37 1   
    33   19   20 ar  
    34   19   25 ar  
    35   20   21 1   
    36   20   22 ar  
    37   22   23 ar  
    38   22   38 1   
    39   23   24 ar  
    40   24   25 ar  
    41   24   39 1   
    42   25   26 1   
@<TRIPOS>SUBSTRUCTURE
     1 ROF         1 TEMP              0 ****  ****    0 ROOT
