@<TRIPOS>MOLECULE
ROI
   26    27     1     0     0
SMALL
bcc


@<TRIPOS>ATOM
      1 N1          0.1040   -0.1000   -0.0600 nc        1 ROI     -0.732300
      2 C2          1.4140    0.2250   -0.0040 cd        1 ROI      0.705800
      3 N2          2.0760    0.5490   -1.2060 nv        1 ROI     -0.898800
      4 N3          2.1390    0.3120    1.1900 ns        1 ROI     -0.509400
      5 C4          1.5090    0.1320    2.4530 c         1 ROI      0.747700
      6 O4          2.2380    0.2590    3.4490 o         1 ROI     -0.608500
      7 C4A         0.0860   -0.1880    2.4110 cd        1 ROI     -0.153600
      8 N5         -0.5870   -0.3660    3.6220 nf        1 ROI     -0.556300
      9 C6         -1.8620   -0.6300    3.5540 c2        1 ROI      0.538600
     10 C7         -2.7250   -0.7710    2.2920 c3        1 ROI      0.206900
     11 C16        -3.8140    0.3160    2.3370 c3        1 ROI     -0.110600
     12 C15        -3.4180   -2.1450    2.3290 c3        1 ROI     -0.110600
     13 N8         -1.8960   -0.6490    1.0940 nu        1 ROI     -0.755000
     14 C8A        -0.5630   -0.2980    1.1510 cc        1 ROI      0.431600
     15 O9         -2.6160   -0.8120    4.6950 oh        1 ROI     -0.590600
     16 HN21        1.5650    0.3530   -2.0390 hn        1 ROI      0.424300
     17 HN22        3.0430    0.3200   -1.2480 hn        1 ROI      0.424300
     18 HN3         3.0970    0.5860    1.1900 hn        1 ROI      0.334500
     19 H161       -4.5060    0.2130    1.4680 hc        1 ROI      0.052867
     20 H162       -3.3610    1.3360    2.3230 hc        1 ROI      0.052867
     21 H163       -4.3950    0.1960    3.2830 hc        1 ROI      0.052867
     22 H151       -2.6670   -2.9700    2.3230 hc        1 ROI      0.052867
     23 H152       -4.0980   -2.2640    1.4530 hc        1 ROI      0.052867
     24 H153       -4.0170   -2.2120    3.2690 hc        1 ROI      0.052867
     25 HN8        -2.3770   -0.6460    0.2250 hn        1 ROI      0.451800
     26 HO9        -2.0460   -0.7090    5.4760 ho        1 ROI      0.442000
@<TRIPOS>BOND
     1    1    2 2   
     2    1   14 1   
     3    2    3 1   
     4    2    4 1   
     5    3   16 1   
     6    3   17 1   
     7    4    5 1   
     8    4   18 1   
     9    5    6 2   
    10    5    7 1   
    11    7    8 1   
    12    7   14 2   
    13    8    9 2   
    14    9   10 1   
    15    9   15 1   
    16   10   11 1   
    17   10   12 1   
    18   10   13 1   
    19   11   19 1   
    20   11   20 1   
    21   11   21 1   
    22   12   22 1   
    23   12   23 1   
    24   12   24 1   
    25   13   14 1   
    26   13   25 1   
    27   15   26 1   
@<TRIPOS>SUBSTRUCTURE
     1 ROI         1 TEMP              0 ****  ****    0 ROOT
