@<TRIPOS>MOLECULE
ROI
   26    27     1     0     0
SMALL
bcc


@<TRIPOS>ATOM
      1 N1          1.4360   -0.0350   -1.6180 nc        1 ROI     -0.732300
      2 C2          0.7300   -0.1080   -2.7670 cd        1 ROI      0.705800
      3 N2          1.4290   -0.0300   -3.9890 nh        1 ROI     -0.898800
      4 N3         -0.6650   -0.2010   -2.8130 n         1 ROI     -0.509400
      5 C4         -1.4500   -0.1490   -1.6270 c         1 ROI      0.747700
      6 O4         -2.6790   -0.2110   -1.7830 o         1 ROI     -0.608500
      7 C4A        -0.7040   -0.0360   -0.3780 cd        1 ROI     -0.153600
      8 N5         -1.4220    0.0280    0.8180 nf        1 ROI     -0.556300
      9 C6         -0.7300    0.1500    1.9160 c2        1 ROI      0.538600
     10 C7          0.7970    0.2300    2.0570 c3        1 ROI      0.206900
     11 C16         1.2530   -0.8780    3.0240 c3        1 ROI     -0.110600
     12 C15         1.1450    1.5900    2.6890 c3        1 ROI     -0.110600
     13 N8          1.4380    0.0660    0.7540 nh        1 ROI     -0.755000
     14 C8A         0.7160    0.0100   -0.4220 cc        1 ROI      0.431600
     15 O9         -1.3480    0.2330    3.1450 oh        1 ROI     -0.590600
     16 HN21        2.4210   -0.0920   -3.9160 hn        1 ROI      0.424300
     17 HN22        1.0360   -0.5350   -4.7510 hn        1 ROI      0.424300
     18 HN3        -1.1500   -0.2220   -3.6830 hn        1 ROI      0.334500
     19 H161        0.7230   -0.7370    3.9970 hc        1 ROI      0.052867
     20 H162        1.0010   -1.8870    2.6210 hc        1 ROI      0.052867
     21 H163        2.3540   -0.8190    3.1960 hc        1 ROI      0.052867
     22 H151        0.6070    1.6750    3.6640 hc        1 ROI      0.052867
     23 H152        2.2430    1.6680    2.8700 hc        1 ROI      0.052867
     24 H153        0.8240    2.4300    2.0290 hc        1 ROI      0.052867
     25 HN8         2.4240    0.1830    0.7290 hn        1 ROI      0.451800
     26 HO9        -2.3120    0.1870    3.0230 ho        1 ROI      0.442000
@<TRIPOS>BOND
     1    1    2 2   
     2    1   14 1   
     3    2    3 1   
     4    2    4 1   
     5    3   16 1   
     6    3   17 1   
     7    4    5 1   
     8    4   18 1   
     9    5    6 2   
    10    5    7 1   
    11    7    8 1   
    12    7   14 2   
    13    8    9 2   
    14    9   10 1   
    15    9   15 1   
    16   10   11 1   
    17   10   12 1   
    18   10   13 1   
    19   11   19 1   
    20   11   20 1   
    21   11   21 1   
    22   12   22 1   
    23   12   23 1   
    24   12   24 1   
    25   13   14 1   
    26   13   25 1   
    27   15   26 1   
@<TRIPOS>SUBSTRUCTURE
     1 ROI         1 TEMP              0 ****  ****    0 ROOT
