@<TRIPOS>MOLECULE
ROI
   27    28     1     0     0
SMALL
bcc


@<TRIPOS>ATOM
      1 N1          0.0820   -0.1180   -0.0660 nc        1 ROI     -0.606300
      2 C2          1.3830    0.1250    0.0080 cd        1 ROI      0.535800
      3 N2          2.0870    0.2550   -1.3150 n4        1 ROI     -0.803600
      4 N3          2.1410    0.2630    1.1580 n         1 ROI     -0.496400
      5 C4          1.5010    0.1330    2.4410 c         1 ROI      0.737700
      6 O4          2.2420    0.2620    3.4140 o         1 ROI     -0.514500
      7 C4A         0.0580   -0.1320    2.3980 cd        1 ROI     -0.020600
      8 N5         -0.5990   -0.2680    3.6190 nf        1 ROI     -0.603300
      9 C6         -1.8840   -0.5300    3.5750 c2        1 ROI      0.623600
     10 C7         -2.7590   -0.7100    2.3200 c3        1 ROI      0.192900
     11 C16        -3.9600    0.2440    2.4240 c3        1 ROI     -0.116600
     12 C15        -3.2800   -2.1560    2.3160 c3        1 ROI     -0.116600
     13 N8         -1.9800   -0.4110    1.1110 nh        1 ROI     -0.741000
     14 C8A        -0.6140   -0.2370    1.1550 cc        1 ROI      0.359600
     15 O9         -2.6120   -0.6940    4.7160 oh        1 ROI     -0.556600
     16 HN21        2.5040    1.1900   -1.3890 hn        1 ROI      0.482133
     17 HN22        2.8170   -0.4630   -1.3880 hn        1 ROI      0.482133
     18 HN3         3.1210    0.4530    1.1450 hn        1 ROI      0.351500
     19 H161       -4.6460    0.1040    1.5560 hc        1 ROI      0.066367
     20 H162       -3.6270    1.3090    2.4590 hc        1 ROI      0.066367
     21 H163       -4.5140    0.0100    3.3670 hc        1 ROI      0.066367
     22 H151       -3.8400   -2.3340    3.2670 hc        1 ROI      0.066367
     23 H152       -3.9730   -2.3180    1.4550 hc        1 ROI      0.066367
     24 H153       -2.4420   -2.8890    2.2520 hc        1 ROI      0.066367
     25 HN8        -2.4380   -0.5840    0.2440 hn        1 ROI      0.463800
     26 HO9        -2.0440   -0.5840    5.5030 ho        1 ROI      0.467000
     27 H23         1.4090    0.1260   -2.0830 hn        1 ROI      0.482133
@<TRIPOS>BOND
     1    1    2 2   
     2    1   14 1   
     3    2    3 1   
     4    2    4 1   
     5    3   16 1   
     6    3   17 1   
     7    3   27 1   
     8    4    5 1   
     9    4   18 1   
    10    5    6 2   
    11    5    7 1   
    12    7    8 1   
    13    7   14 2   
    14    8    9 2   
    15    9   10 1   
    16    9   15 1   
    17   10   11 1   
    18   10   12 1   
    19   10   13 1   
    20   11   19 1   
    21   11   20 1   
    22   11   21 1   
    23   12   22 1   
    24   12   23 1   
    25   12   24 1   
    26   13   14 1   
    27   13   25 1   
    28   15   26 1   
@<TRIPOS>SUBSTRUCTURE
     1 ROI         1 TEMP              0 ****  ****    0 ROOT
