@<TRIPOS>MOLECULE
ROK
   32    31     1     0     0
SMALL
bcc


@<TRIPOS>ATOM
      1 O7          2.0510    0.2840   -1.1920 o         1 ROK     -0.446400
      2 S2          2.8430    1.2120   -0.5730 s4        1 ROK      1.670300
      3 O6          3.7310    0.8060    0.3690 o         1 ROK     -0.446400
      4 N5          1.2690   -2.8060   -1.9420 n         1 ROK     -0.612000
      5 C10         2.4940   -3.3600   -2.1060 c         1 ROK      0.649100
      6 O13         3.5830   -2.7700   -2.1380 o         1 ROK     -0.519100
      7 N12         2.6030   -4.8790   -2.2640 n4        1 ROK     -0.670800
      8 C15         1.9910   -5.3820   -3.5350 c3        1 ROK      0.121800
      9 C16         0.8740   -6.3840   -3.3090 c3        1 ROK     -0.028300
     10 S17        -0.2110   -5.7160   -2.0740 sh        1 ROK     -0.455900
     11 C1          2.7200    2.6600   -0.9250 ca        1 ROK     -0.741500
     12 C4          3.5370    3.6660   -0.2880 ca        1 ROK      0.065500
     13 C9          3.4440    4.9880   -0.5780 ca        1 ROK     -0.219500
     14 C11         2.4980    5.4680   -1.5640 ca        1 ROK      0.340600
     15 N14         2.3930    6.7660   -1.8570 nh        1 ROK     -0.743200
     16 C8          1.6720    4.4730   -2.2180 ca        1 ROK     -0.219500
     17 C3          1.7880    3.1580   -1.9060 ca        1 ROK      0.065500
     18 H5          1.2300   -1.8130   -1.8170 hn        1 ROK      0.377000
     19 H12         2.1420   -5.3400   -1.4590 hn        1 ROK      0.480300
     20 H151        2.8070   -5.8720   -4.1470 hx        1 ROK      0.123700
     21 H152        1.6020   -4.5010   -4.1250 hx        1 ROK      0.123700
     22 H161        0.3360   -6.5360   -4.2810 h1        1 ROK      0.119200
     23 H162        1.2730   -7.3790   -2.9880 h1        1 ROK      0.119200
     24 H17        -0.9910   -6.7750   -1.8140 hs        1 ROK      0.313800
     25 H4          4.2710    3.3260    0.4720 ha        1 ROK      0.173500
     26 H3          1.1430    2.4180   -2.4210 ha        1 ROK      0.173500
     27 H9          4.0960    5.7150   -0.0590 ha        1 ROK      0.185000
     28 H141        1.7370    7.0910   -2.5370 hn        1 ROK      0.479800
     29 H142        2.9660    7.4460   -1.4010 hn        1 ROK      0.479800
     30 H8          0.9390    4.8000   -2.9770 ha        1 ROK      0.185000
     31 H52         0.4260   -3.3400   -1.9180 hn        1 ROK      0.377000
     32 H122        3.6090   -5.1000   -2.2470 hn        1 ROK      0.480300
@<TRIPOS>BOND
     1    1    2 1   
     2    2    3 1   
     3    2   11 1   
     4    4    5 1   
     5    4   18 1   
     6    4   31 1   
     7    5    6 2   
     8    5    7 1   
     9    7    8 1   
    10    7   19 1   
    11    7   32 1   
    12    8    9 1   
    13    8   20 1   
    14    8   21 1   
    15    9   10 1   
    16    9   22 1   
    17    9   23 1   
    18   10   24 1   
    19   11   12 ar  
    20   11   17 ar  
    21   12   13 ar  
    22   12   25 1   
    23   13   14 ar  
    24   13   27 1   
    25   14   15 1   
    26   14   16 ar  
    27   15   28 1   
    28   15   29 1   
    29   16   17 ar  
    30   16   30 1   
    31   17   26 1   
@<TRIPOS>SUBSTRUCTURE
     1 ROK         1 TEMP              0 ****  ****    0 ROOT
