@<TRIPOS>MOLECULE
ROK
   32    31     1     0     0
SMALL
bcc


@<TRIPOS>ATOM
      1 O7         79.9090  503.9600   41.1400 o         1 ROK     -0.414400
      2 S2         80.3220  503.8120   42.4230 s4        1 ROK      1.659300
      3 O6         80.4250  502.5930   43.0080 o         1 ROK     -0.414400
      4 N5        -75.8700 -505.6290  -46.4290 nt        1 ROK     -0.611000
      5 C10       -75.2400 -506.0950  -47.5340 c         1 ROK      0.647100
      6 O13       -74.2140 -505.6640  -48.0710 o         1 ROK     -0.483100
      7 N12       -75.8380 -507.3190  -48.2480 ny        1 ROK     -0.676800
      8 C15       -77.1500 -507.0230  -48.9010 c3        1 ROK      0.119800
      9 C16       -78.2790 -507.9130  -48.4150 c3        1 ROK     -0.030300
     10 S17       -78.2410 -507.9130  -46.6420 sh        1 ROK     -0.436900
     11 C1         80.6760  505.0410   43.2260 ca        1 ROK     -0.734500
     12 C4         81.1200  504.9630   44.5910 ca        1 ROK      0.074000
     13 C9         81.4400  506.0610   45.3270 ca        1 ROK     -0.232000
     14 C11        81.3470  507.3840   44.7570 ca        1 ROK      0.337600
     15 N14        81.6590  508.4750   45.4700 nv        1 ROK     -0.768200
     16 C8         80.9040  507.4820   43.3860 ca        1 ROK     -0.232000
     17 C3         80.5900  506.3660   42.6750 ca        1 ROK      0.074000
     18 H5        -75.4540 -504.8500  -45.9600 hn        1 ROK      0.374500
     19 H12       -75.1480 -507.6030  -48.9580 hn        1 ROK      0.475300
     20 H151      -77.0270 -507.1590  -50.0170 hx        1 ROK      0.123200
     21 H152      -77.4130 -505.9390  -48.7180 hx        1 ROK      0.123200
     22 H161      -79.2460 -507.4920  -48.7970 h1        1 ROK      0.114200
     23 H162      -78.1840 -508.9520  -48.8150 h1        1 ROK      0.114200
     24 H17       -79.0700 -508.9260  -46.3690 hs        1 ROK      0.298800
     25 H4         81.1990  503.9570   45.0510 ha        1 ROK      0.176000
     26 H3         80.2520  506.4670   41.6230 ha        1 ROK      0.176000
     27 H9         81.7760  505.9450   46.3720 ha        1 ROK      0.178000
     28 H141       81.5920  509.3850   45.0690 hn        1 ROK      0.471800
     29 H142       81.9640  508.4000   46.4150 hn        1 ROK      0.471800
     30 H8         80.8200  508.4780   42.9150 ha        1 ROK      0.178000
     31 H52       -76.6900 -506.0490  -46.0480 hn        1 ROK      0.374500
     32 H122      -75.9600 -508.0880  -47.5680 hn        1 ROK      0.475300
@<TRIPOS>BOND
     1    1    2 1   
     2    2    3 1   
     3    2   11 1   
     4    4    5 1   
     5    4   18 1   
     6    4   31 1   
     7    5    6 2   
     8    5    7 1   
     9    7    8 1   
    10    7   19 1   
    11    7   32 1   
    12    8    9 1   
    13    8   20 1   
    14    8   21 1   
    15    9   10 1   
    16    9   22 1   
    17    9   23 1   
    18   10   24 1   
    19   11   12 ar  
    20   11   17 ar  
    21   12   13 ar  
    22   12   25 1   
    23   13   14 ar  
    24   13   27 1   
    25   14   15 1   
    26   14   16 ar  
    27   15   28 1   
    28   15   29 1   
    29   16   17 ar  
    30   16   30 1   
    31   17   26 1   
@<TRIPOS>SUBSTRUCTURE
     1 ROK         1 TEMP              0 ****  ****    0 ROOT
