@<TRIPOS>MOLECULE
ROK
   33    33     1     0     0
SMALL
bcc


@<TRIPOS>ATOM
      1 O7        -28.8050    0.7670   47.3780 os        1 ROK     -0.728000
      2 S2        -28.1690    0.9280   48.2090 ss        1 ROK      2.861000
      3 O6        -28.6620    0.8220   48.7830 o         1 ROK     -0.728000
      4 N5         31.5240-1849.2240  -56.7570 n         1 ROK     -0.376000
      5 C10        30.9660-1848.7170  -55.6280 c2        1 ROK      0.342000
      6 O13        30.2530-1849.3060  -54.8090 o         1 ROK     -0.242000
      7 N12        31.2200-1847.2470  -55.2860 n4        1 ROK     -0.112000
      8 C15        30.4030-1846.3270  -56.1340 c3        1 ROK     -0.117000
      9 C16        30.8940-1844.8930  -56.0660 c3        1 ROK     -0.305000
     10 S17        32.6220-1844.9090  -56.4630 sh        1 ROK     -0.029000
     11 C1        -26.6560    0.2880   48.5520 c2        1 ROK     -0.978000
     12 C4        -25.8880    0.4740   49.4180 DU        1 ROK      0.063000
     13 C9        -24.5650    0.7800   49.7250 cu        1 ROK     -0.122000
     14 C11       -23.9760    0.9250   49.1610 c1        1 ROK      0.010000
     15 N14       -22.5810    0.2530   49.4720 n3        1 ROK     -0.035000
     16 C8        -24.7110    0.7570   48.2970 DU        1 ROK     -0.122000
     17 C3        -26.0320    0.4330   48.0030 cu        1 ROK      0.063000
     18 H5         32.1170-1848.7040  -57.3590 hn        1 ROK      0.283500
     19 H12        30.9570-1847.1280  -54.2970 hn        1 ROK      0.271500
     20 H151       29.3290-1846.3880  -55.7870 hx        1 ROK      0.160000
     21 H152       30.4530-1846.6900  -57.2030 hx        1 ROK      0.160000
     22 H161       30.7020-1844.4350  -55.0660 h1        1 ROK      0.154500
     23 H162       30.3230-1844.2930  -56.8230 h1        1 ROK      0.154500
     24 H17        33.0400-1843.8470  -55.7750 hs        1 ROK      0.101000
     25 H4        -26.3410    0.5640   49.8720 ha        1 ROK      0.216000
     26 H3        -26.6020    0.1000   47.3180 DU        1 ROK      0.216000
     27 H9        -24.0080    0.1100   50.4100 ha        1 ROK      0.208000
     28 H141      -22.3390    0.9310   50.4230 hn        1 ROK      0.289000
     29 H142      -21.9550    0.7850   48.7950 hn        1 ROK      0.289000
     30 H8        -24.2700    0.6660   47.8420 ha        1 ROK      0.208000
     31 H52        31.3640-1850.1930  -56.9470 hn        1 ROK      0.283500
     32 H122       32.2210-1846.9890  -55.3950 hn        1 ROK      0.271500
     33 H143      -22.4280    0.2720   49.4160 DU        1 ROK      0.292000
@<TRIPOS>BOND
     1    1    2 1   
     2    1    3 1   
     3    2   11 1   
     4    4    5 1   
     5    4   18 1   
     6    4   31 1   
     7    5    6 1   
     8    5    7 1   
     9    7    8 1   
    10    7   19 1   
    11    7   32 1   
    12    8    9 1   
    13    8   20 1   
    14    8   21 1   
    15    9   10 1   
    16    9   22 1   
    17    9   23 1   
    18   10   24 1   
    19   11   12 1   
    20   11   26 1   
    21   12   13 1   
    22   12   16 1   
    23   12   17 1   
    24   12   25 1   
    25   13   16 1   
    26   13   27 1   
    27   14   15 1   
    28   14   16 1   
    29   15   28 1   
    30   15   29 1   
    31   16   17 1   
    32   16   30 1   
    33   17   26 1   
@<TRIPOS>SUBSTRUCTURE
     1 ROK         1 TEMP              0 ****  ****    0 ROOT
