@<TRIPOS>MOLECULE
ROK
   30    30     1     0     0
SMALL
bcc


@<TRIPOS>ATOM
      1 O7         38.5810   12.9860  -19.4970 o         1 ROK     -0.647800
      2 S2         38.7650   13.2340  -20.8630 sy        1 ROK      1.537900
      3 O6         39.4470   14.4300  -21.1920 o         1 ROK     -0.647800
      4 N5         39.6780   12.0320  -21.5660 n         1 ROK     -0.665300
      5 C10        39.4680   10.6450  -21.4780 c         1 ROK      0.783100
      6 O13        38.4340   10.2140  -20.9130 o         1 ROK     -0.638100
      7 N12        40.4520    9.7640  -21.9620 n         1 ROK     -0.530900
      8 C15        40.1340    8.3660  -22.0780 c3        1 ROK      0.091000
      9 C16        39.5020    7.9390  -23.3970 c3        1 ROK     -0.028300
     10 S17        40.6790    8.2240  -24.6920 sh        1 ROK     -0.397900
     11 C1         37.3230   13.1800  -21.6740 ca        1 ROK     -0.479500
     12 C4         37.0440   14.0870  -22.7090 ca        1 ROK      0.046000
     13 C9         35.8250   14.0980  -23.3600 ca        1 ROK     -0.245000
     14 C11        34.8110   13.1690  -22.9940 ca        1 ROK      0.246600
     15 N14        33.6140   13.1280  -23.6730 nh        1 ROK     -0.852200
     16 C8         35.0890   12.2510  -21.9470 ca        1 ROK     -0.245000
     17 C3         36.3190   12.2650  -21.3160 ca        1 ROK      0.046000
     18 H5         40.4940   12.3180  -22.0630 hn        1 ROK      0.331500
     19 H12        41.0850   10.1080  -22.6520 hn        1 ROK      0.310500
     20 H151       41.1020    7.8010  -21.9370 h1        1 ROK      0.083700
     21 H152       39.4300    8.0820  -21.2410 h1        1 ROK      0.083700
     22 H161       39.2520    6.8520  -23.3400 h1        1 ROK      0.074700
     23 H162       38.5570    8.5020  -23.5860 h1        1 ROK      0.074700
     24 H17        39.8720    8.1620  -25.7370 hs        1 ROK      0.213800
     25 H4         37.8180   14.8230  -22.9960 ha        1 ROK      0.164000
     26 H3         36.5280   11.5350  -20.5080 ha        1 ROK      0.164000
     27 H9         35.6420   14.8270  -24.1630 ha        1 ROK      0.140000
     28 H141       32.8670   12.6150  -23.2730 hn        1 ROK      0.422800
     29 H142       33.3770   13.8970  -24.2500 hn        1 ROK      0.422800
     30 H8         34.3270   11.5200  -21.6360 ha        1 ROK      0.140000
@<TRIPOS>BOND
     1    1    2 2   
     2    2    3 2   
     3    2    4 1   
     4    2   11 1   
     5    4    5 1   
     6    4   18 1   
     7    5    6 2   
     8    5    7 1   
     9    7    8 1   
    10    7   19 1   
    11    8    9 1   
    12    8   20 1   
    13    8   21 1   
    14    9   10 1   
    15    9   22 1   
    16    9   23 1   
    17   10   24 1   
    18   11   12 ar  
    19   11   17 ar  
    20   12   13 ar  
    21   12   25 1   
    22   13   14 ar  
    23   13   27 1   
    24   14   15 1   
    25   14   16 ar  
    26   15   28 1   
    27   15   29 1   
    28   16   17 ar  
    29   16   30 1   
    30   17   26 1   
@<TRIPOS>SUBSTRUCTURE
     1 ROK         1 TEMP              0 ****  ****    0 ROOT
