@<TRIPOS>MOLECULE
ROL
   41    43     1     0     0
SMALL
bcc


@<TRIPOS>ATOM
      1 C5         -0.2670   -0.0570   -0.1800 ca        1 ROL     -0.089300
      2 C6          1.1290   -0.1590   -0.2470 ca        1 ROL     -0.165000
      3 C7          1.8930   -0.1430    0.9200 ca        1 ROL      0.102100
      4 C8          1.2510   -0.0240    2.1820 ca        1 ROL      0.107100
      5 C9         -0.1410    0.0670    2.2400 ca        1 ROL     -0.180000
      6 C10        -0.8900    0.0530    1.0640 ca        1 ROL     -0.119000
      7 C3         -1.0640   -0.0750   -1.4380 c3        1 ROL     -0.027400
      8 C2         -2.0830   -1.2260   -1.4840 c3        1 ROL     -0.156400
      9 C1         -3.4270   -0.5730   -1.7840 c         1 ROL      0.695500
     10 O1         -4.5060   -1.1590   -1.9540 o         1 ROL     -0.631500
     11 N1         -3.2720    0.8030   -1.8340 n         1 ROL     -0.593900
     12 C4         -1.9100    1.2220   -1.6110 c3        1 ROL      0.095000
     13 O3          3.2640   -0.2910    0.9550 os        1 ROL     -0.309900
     14 C11         3.9780    0.1470   -0.2140 c3        1 ROL      0.138100
     15 C15         5.3800    0.5330    0.2710 c3        1 ROL     -0.094900
     16 C14         6.3730   -0.1510   -0.6540 c3        1 ROL     -0.077900
     17 C13         5.6290   -1.2670   -1.3730 c3        1 ROL     -0.077900
     18 C12         4.1390   -0.9990   -1.2200 c3        1 ROL     -0.094900
     19 O2          2.0900   -0.0030    3.2770 os        1 ROL     -0.302900
     20 C16         1.4520   -0.0200    4.5490 c3        1 ROL      0.109700
     21 H61         1.6290   -0.2620   -1.2220 ha        1 ROL      0.142000
     22 H91        -0.6560    0.1540    3.2080 ha        1 ROL      0.142000
     23 H101       -1.9870    0.1310    1.1210 ha        1 ROL      0.139000
     24 H31        -0.3720   -0.1640   -2.3180 hc        1 ROL      0.063700
     25 H21        -1.8370   -1.9620   -2.2870 hc        1 ROL      0.085200
     26 H22        -2.1460   -1.7690   -0.5080 hc        1 ROL      0.085200
     27 H1         -3.9970    1.4400   -2.0330 hn        1 ROL      0.332500
     28 H41        -1.5330    1.8170   -2.4870 h1        1 ROL      0.046200
     29 H42        -1.8450    1.8670   -0.6920 h1        1 ROL      0.046200
     30 H111        3.4510    1.0230   -0.6760 h1        1 ROL      0.051700
     31 H151        5.5180    0.1900    1.3290 hc        1 ROL      0.057200
     32 H152        5.5040    1.6430    0.2540 hc        1 ROL      0.057200
     33 H141        6.7800    0.5830   -1.3950 hc        1 ROL      0.043950
     34 H142        7.2400   -0.5570   -0.0760 hc        1 ROL      0.043950
     35 H131        5.9180   -1.3070   -2.4530 hc        1 ROL      0.043950
     36 H132        5.8890   -2.2580   -0.9220 hc        1 ROL      0.043950
     37 H121        3.6880   -0.7100   -2.2020 hc        1 ROL      0.057200
     38 H122        3.6050   -1.9110   -0.8530 hc        1 ROL      0.057200
     39 H161        2.3110   -0.0630    5.2660 h1        1 ROL      0.045033
     40 H162        0.8020   -0.9210    4.6570 h1        1 ROL      0.045033
     41 H163        0.8580    0.9130    4.7040 h1        1 ROL      0.045033
@<TRIPOS>BOND
     1    1    2 ar  
     2    1    6 ar  
     3    1    7 1   
     4    2    3 ar  
     5    2   21 1   
     6    3    4 ar  
     7    3   13 1   
     8    4    5 ar  
     9    4   19 1   
    10    5    6 ar  
    11    5   22 1   
    12    6   23 1   
    13    7    8 1   
    14    7   12 1   
    15    7   24 1   
    16    8    9 1   
    17    8   25 1   
    18    8   26 1   
    19    9   10 2   
    20    9   11 1   
    21   11   12 1   
    22   11   27 1   
    23   12   28 1   
    24   12   29 1   
    25   13   14 1   
    26   14   15 1   
    27   14   18 1   
    28   14   30 1   
    29   15   16 1   
    30   15   31 1   
    31   15   32 1   
    32   16   17 1   
    33   16   33 1   
    34   16   34 1   
    35   17   18 1   
    36   17   35 1   
    37   17   36 1   
    38   18   37 1   
    39   18   38 1   
    40   19   20 1   
    41   20   39 1   
    42   20   40 1   
    43   20   41 1   
@<TRIPOS>SUBSTRUCTURE
     1 ROL         1 TEMP              0 ****  ****    0 ROOT
