@<TRIPOS>MOLECULE
ROL
   41    43     1     0     0
SMALL
bcc


@<TRIPOS>ATOM
      1 C5         -0.2670   -0.0620   -0.1810 ca        1 ROL     -0.089300
      2 C6          1.1300   -0.1610   -0.2470 ca        1 ROL     -0.165000
      3 C7          1.8920   -0.1430    0.9210 ca        1 ROL      0.102100
      4 C8          1.2480   -0.0280    2.1820 ca        1 ROL      0.107100
      5 C9         -0.1430    0.0590    2.2390 ca        1 ROL     -0.180000
      6 C10        -0.8920    0.0450    1.0620 ca        1 ROL     -0.119000
      7 C3         -1.0630   -0.0820   -1.4390 c3        1 ROL     -0.027400
      8 C2         -2.0790   -1.2350   -1.4870 c3        1 ROL     -0.156400
      9 C1         -3.4240   -0.5860   -1.7880 c         1 ROL      0.695500
     10 O1         -4.5020   -1.1740   -1.9590 o         1 ROL     -0.631500
     11 N1         -3.2730    0.7910   -1.8360 ns        1 ROL     -0.593900
     12 C4         -1.9120    1.2140   -1.6130 c3        1 ROL      0.095000
     13 O3          3.2630   -0.2880    0.9570 os        1 ROL     -0.309900
     14 C11         3.9770    0.1540   -0.2110 c3        1 ROL      0.138100
     15 C15         5.3770    0.5450    0.2760 c3        1 ROL     -0.094900
     16 C14         6.3740   -0.1330   -0.6500 c3        1 ROL     -0.077900
     17 C13         5.6340   -1.2510   -1.3730 c3        1 ROL     -0.077900
     18 C12         4.1430   -0.9890   -1.2190 c3        1 ROL     -0.094900
     19 O2          2.0870   -0.0050    3.2770 os        1 ROL     -0.302900
     20 C16         1.4480   -0.0250    4.5490 c3        1 ROL      0.109700
     21 H61         1.6300   -0.2620   -1.2220 ha        1 ROL      0.142000
     22 H91        -0.6590    0.1440    3.2060 ha        1 ROL      0.142000
     23 H101       -1.9890    0.1190    1.1190 ha        1 ROL      0.139000
     24 H31        -0.3700   -0.1680   -2.3190 hc        1 ROL      0.063700
     25 H21        -2.1410   -1.7800   -0.5130 hc        1 ROL      0.085200
     26 H22        -1.8300   -1.9700   -2.2910 hc        1 ROL      0.085200
     27 H1         -3.9990    1.4260   -2.0360 hn        1 ROL      0.332500
     28 H41        -1.8500    1.8580   -0.6930 h1        1 ROL      0.046200
     29 H42        -1.5370    1.8100   -2.4880 h1        1 ROL      0.046200
     30 H111        3.4480    1.0300   -0.6720 h1        1 ROL      0.051700
     31 H151        5.4970    1.6560    0.2610 hc        1 ROL      0.057200
     32 H152        5.5160    0.2000    1.3330 hc        1 ROL      0.057200
     33 H141        6.7790    0.6040   -1.3890 hc        1 ROL      0.043950
     34 H142        7.2410   -0.5370   -0.0720 hc        1 ROL      0.043950
     35 H131        5.8980   -2.2410   -0.9230 hc        1 ROL      0.043950
     36 H132        5.9240   -1.2860   -2.4520 hc        1 ROL      0.043950
     37 H121        3.6130   -1.9030   -0.8540 hc        1 ROL      0.057200
     38 H122        3.6920   -0.7000   -2.2010 hc        1 ROL      0.057200
     39 H161        0.8510    0.9060    4.7040 h1        1 ROL      0.045033
     40 H162        2.3060   -0.0670    5.2670 h1        1 ROL      0.045033
     41 H163        0.8000   -0.9280    4.6560 h1        1 ROL      0.045033
@<TRIPOS>BOND
     1    1    2 ar  
     2    1    6 ar  
     3    1    7 1   
     4    2    3 ar  
     5    2   21 1   
     6    3    4 ar  
     7    3   13 1   
     8    4    5 ar  
     9    4   19 1   
    10    5    6 ar  
    11    5   22 1   
    12    6   23 1   
    13    7    8 1   
    14    7   12 1   
    15    7   24 1   
    16    8    9 1   
    17    8   25 1   
    18    8   26 1   
    19    9   10 2   
    20    9   11 1   
    21   11   12 1   
    22   11   27 1   
    23   12   28 1   
    24   12   29 1   
    25   13   14 1   
    26   14   15 1   
    27   14   18 1   
    28   14   30 1   
    29   15   16 1   
    30   15   31 1   
    31   15   32 1   
    32   16   17 1   
    33   16   33 1   
    34   16   34 1   
    35   17   18 1   
    36   17   35 1   
    37   17   36 1   
    38   18   37 1   
    39   18   38 1   
    40   19   20 1   
    41   20   39 1   
    42   20   40 1   
    43   20   41 1   
@<TRIPOS>SUBSTRUCTURE
     1 ROL         1 TEMP              0 ****  ****    0 ROOT
