@<TRIPOS>MOLECULE
ROL
   41    43     1     0     0
SMALL
bcc


@<TRIPOS>ATOM
      1 C5         -0.2670   -0.0630   -0.1750 ca        1 ROL     -0.089300
      2 C6          1.1300   -0.1630   -0.2450 ca        1 ROL     -0.165000
      3 C7          1.8960   -0.1440    0.9200 ca        1 ROL      0.102100
      4 C8          1.2570   -0.0240    2.1830 ca        1 ROL      0.107100
      5 C9         -0.1340    0.0650    2.2450 ca        1 ROL     -0.180000
      6 C10        -0.8870    0.0490    1.0700 ca        1 ROL     -0.119000
      7 C3         -1.0670   -0.0850   -1.4300 c3        1 ROL     -0.027400
      8 C2         -2.0840   -1.2380   -1.4710 c3        1 ROL     -0.156400
      9 C1         -3.4300   -0.5880   -1.7690 c         1 ROL      0.695500
     10 O1         -4.5090   -1.1750   -1.9350 o         1 ROL     -0.631500
     11 N1         -3.2770    0.7890   -1.8220 n         1 ROL     -0.593900
     12 C4         -1.9150    1.2110   -1.6040 c3        1 ROL      0.095000
     13 O3          3.2670   -0.2910    0.9510 os        1 ROL     -0.309900
     14 C11         3.9780    0.1470   -0.2210 c3        1 ROL      0.138100
     15 C15         5.3810    0.5360    0.2600 c3        1 ROL     -0.094900
     16 C14         6.3720   -0.1480   -0.6660 c3        1 ROL     -0.077900
     17 C13         5.6280   -1.2660   -1.3830 c3        1 ROL     -0.077900
     18 C12         4.1380   -1.0000   -1.2250 c3        1 ROL     -0.094900
     19 O2          2.0990    0.0020    3.2750 os        1 ROL     -0.302900
     20 C16         1.4650   -0.0140    4.5500 c3        1 ROL      0.109700
     21 H61         1.6260   -0.2680   -1.2220 ha        1 ROL      0.142000
     22 H91        -0.6470    0.1540    3.2130 ha        1 ROL      0.142000
     23 H101       -1.9830    0.1250    1.1300 ha        1 ROL      0.139000
     24 H31        -0.3770   -0.1740   -2.3120 hc        1 ROL      0.063700
     25 H21        -2.1430   -1.7790   -0.4950 hc        1 ROL      0.085200
     26 H22        -1.8390   -1.9750   -2.2740 hc        1 ROL      0.085200
     27 H1         -4.0040    1.4240   -2.0210 hn        1 ROL      0.332500
     28 H41        -1.8490    1.8580   -0.6870 h1        1 ROL      0.046200
     29 H42        -1.5420    1.8040   -2.4830 h1        1 ROL      0.046200
     30 H111        3.4490    1.0220   -0.6820 h1        1 ROL      0.051700
     31 H151        5.5220    0.1950    1.3180 hc        1 ROL      0.057200
     32 H152        5.5030    1.6460    0.2410 hc        1 ROL      0.057200
     33 H141        6.7760    0.5860   -1.4100 hc        1 ROL      0.043950
     34 H142        7.2410   -0.5510   -0.0900 hc        1 ROL      0.043950
     35 H131        5.8910   -2.2560   -0.9300 hc        1 ROL      0.043950
     36 H132        5.9140   -1.3070   -2.4620 hc        1 ROL      0.043950
     37 H121        3.6070   -1.9120   -0.8550 hc        1 ROL      0.057200
     38 H122        3.6840   -0.7140   -2.2070 hc        1 ROL      0.057200
     39 H161        2.3260   -0.0550    5.2650 h1        1 ROL      0.045033
     40 H162        0.8700    0.9190    4.7040 h1        1 ROL      0.045033
     41 H163        0.8160   -0.9160    4.6610 h1        1 ROL      0.045033
@<TRIPOS>BOND
     1    1    2 ar  
     2    1    6 ar  
     3    1    7 1   
     4    2    3 ar  
     5    2   21 1   
     6    3    4 ar  
     7    3   13 1   
     8    4    5 ar  
     9    4   19 1   
    10    5    6 ar  
    11    5   22 1   
    12    6   23 1   
    13    7    8 1   
    14    7   12 1   
    15    7   24 1   
    16    8    9 1   
    17    8   25 1   
    18    8   26 1   
    19    9   10 2   
    20    9   11 1   
    21   11   12 1   
    22   11   27 1   
    23   12   28 1   
    24   12   29 1   
    25   13   14 1   
    26   14   15 1   
    27   14   18 1   
    28   14   30 1   
    29   15   16 1   
    30   15   31 1   
    31   15   32 1   
    32   16   17 1   
    33   16   33 1   
    34   16   34 1   
    35   17   18 1   
    36   17   35 1   
    37   17   36 1   
    38   18   37 1   
    39   18   38 1   
    40   19   20 1   
    41   20   39 1   
    42   20   40 1   
    43   20   41 1   
@<TRIPOS>SUBSTRUCTURE
     1 ROL         1 TEMP              0 ****  ****    0 ROOT
