@<TRIPOS>MOLECULE
ROL
   41    43     1     0     0
SMALL
bcc


@<TRIPOS>ATOM
      1 C5          0.1380   -0.0950   -1.3430 ca        1 ROL     -0.089300
      2 C6         -0.3440   -0.0300   -0.0280 ca        1 ROL     -0.165000
      3 C7          0.5450    0.0500    1.0440 ca        1 ROL      0.102100
      4 C8          1.9440    0.0660    0.8000 ca        1 ROL      0.107100
      5 C9          2.4160    0.0120   -0.5120 ca        1 ROL     -0.180000
      6 C10         1.5140   -0.0720   -1.5740 ca        1 ROL     -0.119000
      7 C3         -0.8270   -0.1800   -2.4740 c3        1 ROL     -0.027400
      8 C2         -0.6860    0.9830   -3.4700 c3        1 ROL     -0.156400
      9 C1         -0.5150    0.3340   -4.8380 c         1 ROL      0.695500
     10 O1         -0.4190    0.9240   -5.9240 o         1 ROL     -0.631500
     11 N1         -0.4720   -1.0440   -4.6940 n         1 ROL     -0.593900
     12 C4         -0.6180   -1.4690   -3.3240 c3        1 ROL      0.095000
     13 O3          0.1630    0.1710    2.3630 os        1 ROL     -0.309900
     14 C11        -1.1150   -0.3940    2.7070 c3        1 ROL      0.138100
     15 C15        -1.0250   -0.7620    4.1920 c3        1 ROL     -0.094900
     16 C14        -2.2630   -0.1930    4.8660 c3        1 ROL     -0.077900
     17 C13        -2.8410    0.8650    3.9350 c3        1 ROL     -0.077900
     18 C12        -2.2320    0.6460    2.5580 c3        1 ROL     -0.094900
     19 O2          2.7420    0.1320    1.9230 os        1 ROL     -0.302900
     20 C16         4.1380    0.2850    1.6870 c3        1 ROL      0.109700
     21 H61        -1.4280   -0.0320    0.1620 ha        1 ROL      0.142000
     22 H91         3.4950    0.0290   -0.7210 ha        1 ROL      0.142000
     23 H101        1.8970   -0.1190   -2.6050 ha        1 ROL      0.139000
     24 H31        -1.8760   -0.1920   -2.0710 hc        1 ROL      0.063700
     25 H21        -1.5940    1.6330   -3.4750 hc        1 ROL      0.085200
     26 H22         0.2060    1.6190   -3.2480 hc        1 ROL      0.085200
     27 H1         -0.3880   -1.6810   -5.4410 hn        1 ROL      0.332500
     28 H41         0.3010   -2.0250   -2.9880 h1        1 ROL      0.046200
     29 H42        -1.5030   -2.1540   -3.2160 h1        1 ROL      0.046200
     30 H111       -1.3140   -1.2990    2.0750 h1        1 ROL      0.051700
     31 H151       -0.9680   -1.8710    4.3140 hc        1 ROL      0.057200
     32 H152       -0.0930   -0.3220    4.6320 hc        1 ROL      0.057200
     33 H141       -3.0140   -1.0040    5.0430 hc        1 ROL      0.043950
     34 H142       -2.0070    0.2480    5.8610 hc        1 ROL      0.043950
     35 H131       -3.9560    0.7930    3.8950 hc        1 ROL      0.043950
     36 H132       -2.5850    1.8890    4.3090 hc        1 ROL      0.043950
     37 H121       -1.8170    1.6000    2.1480 hc        1 ROL      0.057200
     38 H122       -3.0060    0.2740    1.8410 hc        1 ROL      0.057200
     39 H161        4.5650    0.3780    2.7170 h1        1 ROL      0.045033
     40 H162        4.5500   -0.6160    1.1700 h1        1 ROL      0.045033
     41 H163        4.3420    1.2060    1.0890 h1        1 ROL      0.045033
@<TRIPOS>BOND
     1    1    2 ar  
     2    1    6 ar  
     3    1    7 1   
     4    2    3 ar  
     5    2   21 1   
     6    3    4 ar  
     7    3   13 1   
     8    4    5 ar  
     9    4   19 1   
    10    5    6 ar  
    11    5   22 1   
    12    6   23 1   
    13    7    8 1   
    14    7   12 1   
    15    7   24 1   
    16    8    9 1   
    17    8   25 1   
    18    8   26 1   
    19    9   10 2   
    20    9   11 1   
    21   11   12 1   
    22   11   27 1   
    23   12   28 1   
    24   12   29 1   
    25   13   14 1   
    26   14   15 1   
    27   14   18 1   
    28   14   30 1   
    29   15   16 1   
    30   15   31 1   
    31   15   32 1   
    32   16   17 1   
    33   16   33 1   
    34   16   34 1   
    35   17   18 1   
    36   17   35 1   
    37   17   36 1   
    38   18   37 1   
    39   18   38 1   
    40   19   20 1   
    41   20   39 1   
    42   20   40 1   
    43   20   41 1   
@<TRIPOS>SUBSTRUCTURE
     1 ROL         1 TEMP              0 ****  ****    0 ROOT
