@<TRIPOS>MOLECULE
RON
   18    17     1     0     0
SMALL
bcc


@<TRIPOS>ATOM
      1 N          -1.8790    0.2660   -0.0840 n3        1 RON     -0.891800
      2 CA         -0.4290    0.4050   -0.1640 c3        1 RON      0.018500
      3 CB          0.3100   -0.2680    0.9940 c3        1 RON     -0.063400
      4 CG          0.0140    0.3800    2.3290 c3        1 RON     -0.078400
      5 C           0.1950   -0.1080   -1.5040 c         1 RON      0.887600
      6 CD          0.8210   -0.2440    3.4390 c3        1 RON     -0.088100
      7 O          -0.5830   -0.5860   -2.3800 o         1 RON     -0.845800
      8 OXT         1.4440    0.0030   -1.6470 o         1 RON     -0.845800
      9 HN1        -2.0970   -0.7040    0.0660 hn        1 RON      0.328800
     10 HN2        -2.2480    0.4970   -0.9930 hn        1 RON      0.328800
     11 HA         -0.2150    1.5130   -0.1200 h1        1 RON      0.039700
     12 HB1         1.4080   -0.1970    0.7680 hc        1 RON      0.045200
     13 HB2         0.0470   -1.3570    1.0380 hc        1 RON      0.045200
     14 HG1        -1.0790    0.2880    2.5620 hc        1 RON      0.034200
     15 HG2         0.2460    1.4760    2.2680 hc        1 RON      0.034200
     16 HD1         0.5950    0.2480    4.4160 hc        1 RON      0.017367
     17 HD2         0.5870   -1.3320    3.5310 hc        1 RON      0.017367
     18 HD3         1.9150   -0.1410    3.2360 hc        1 RON      0.017367
@<TRIPOS>BOND
     1    1    2 1   
     2    1    9 1   
     3    1   10 1   
     4    2    3 1   
     5    2    5 1   
     6    2   11 1   
     7    3    4 1   
     8    3   12 1   
     9    3   13 1   
    10    4    6 1   
    11    4   14 1   
    12    4   15 1   
    13    5    7 1   
    14    5    8 1   
    15    6   16 1   
    16    6   17 1   
    17    6   18 1   
@<TRIPOS>SUBSTRUCTURE
     1 RON         1 TEMP              0 ****  ****    0 ROOT
