@<TRIPOS>MOLECULE
RON
   18    17     1     0     0
SMALL
bcc


@<TRIPOS>ATOM
      1 N          -1.9720   -0.3030   -1.0450 n3        1 RON     -0.891800
      2 CA         -0.5500   -0.3030   -1.0450 c3        1 RON      0.018500
      3 CB         -0.0460   -0.3030    0.3800 c3        1 RON     -0.063400
      4 CG          0.7080    0.9810    0.6480 c3        1 RON     -0.078400
      5 C          -0.0460   -1.5370   -1.7580 c         1 RON      0.887600
      6 CD          1.1750    1.0000    2.0870 c3        1 RON     -0.088100
      7 O           0.7320   -1.4220   -2.7410 o         1 RON     -0.845800
      8 OXT        -0.4030   -2.6790   -1.3670 o         1 RON     -0.845800
      9 HN1        -2.2760   -0.8370   -1.7180 hn        1 RON      0.328800
     10 HN2        -2.2760    0.5480   -1.1710 hn        1 RON      0.328800
     11 HA         -0.2240    0.4940   -1.5050 h1        1 RON      0.039700
     12 HB1         0.5500   -1.0640    0.5140 hc        1 RON      0.045200
     13 HB2        -0.8030   -0.3700    0.9930 hc        1 RON      0.045200
     14 HG1         1.4810    1.0350    0.0540 hc        1 RON      0.034200
     15 HG2         0.1210    1.7440    0.4870 hc        1 RON      0.034200
     16 HD1         1.7500    0.2290    2.2530 hc        1 RON      0.017367
     17 HD2         1.6760    1.8210    2.2550 hc        1 RON      0.017367
     18 HD3         0.4020    0.9640    2.6810 hc        1 RON      0.017367
@<TRIPOS>BOND
     1    1    2 1   
     2    1    9 1   
     3    1   10 1   
     4    2    3 1   
     5    2    5 1   
     6    2   11 1   
     7    3    4 1   
     8    3   12 1   
     9    3   13 1   
    10    4    6 1   
    11    4   14 1   
    12    4   15 1   
    13    5    7 1   
    14    5    8 1   
    15    6   16 1   
    16    6   17 1   
    17    6   18 1   
@<TRIPOS>SUBSTRUCTURE
     1 RON         1 TEMP              0 ****  ****    0 ROOT
