@<TRIPOS>MOLECULE
ROP
   13    12     1     0     0
SMALL
bcc


@<TRIPOS>ATOM
      1 CA         -0.0370   -0.0110   -0.0450 c3        1 ROP     -0.109100
      2 CB          1.4710   -0.0090    0.0350 c3        1 ROP     -0.142400
      3 CG          1.9210    0.0030    1.4650 c         1 ROP      0.547100
      4 OD1         1.2820    0.0040    2.4990 o         1 ROP     -0.374100
      5 ND2         3.4350    0.0160    1.6690 n4        1 ROP     -0.775400
      6 HCA1       -0.3440   -0.0210   -1.1210 hc        1 ROP      0.080033
      7 HCA2       -0.4650    0.9000    0.4400 hc        1 ROP      0.080033
      8 HCA3       -0.4640   -0.9130    0.4580 hc        1 ROP      0.080033
      9 HCB1        1.8840   -0.9240   -0.4740 hc        1 ROP      0.104700
     10 HCB2        1.8830    0.8980   -0.4900 hc        1 ROP      0.104700
     11 HND1        3.8530   -0.8140    1.2390 hn        1 ROP      0.468467
     12 HND2        3.6580    0.0200    2.6730 hn        1 ROP      0.468467
     13 HD23        3.8390    0.8510    1.2360 hn        1 ROP      0.468467
@<TRIPOS>BOND
     1    1    2 1   
     2    1    6 1   
     3    1    7 1   
     4    1    8 1   
     5    2    3 1   
     6    2    9 1   
     7    2   10 1   
     8    3    4 2   
     9    3    5 1   
    10    5   11 1   
    11    5   12 1   
    12    5   13 1   
@<TRIPOS>SUBSTRUCTURE
     1 ROP         1 TEMP              0 ****  ****    0 ROOT
