@<TRIPOS>MOLECULE
ROP
   13    12     1     0     0
SMALL
bcc


@<TRIPOS>ATOM
      1 CA         -0.0350    0.0000   -0.0490 c3        1 ROP     -0.109100
      2 CB          1.4730    0.0000    0.0340 c3        1 ROP     -0.142400
      3 CG          1.9190    0.0000    1.4650 c         1 ROP      0.547100
      4 OD1         1.2780    0.0000    2.4980 o         1 ROP     -0.374100
      5 ND2         3.4330   -0.0000    1.6720 n4        1 ROP     -0.775400
      6 HCA1       -0.4640    0.9070    0.4450 hc        1 ROP      0.080033
      7 HCA2       -0.4640   -0.9060    0.4450 hc        1 ROP      0.080033
      8 HCA3       -0.3400    0.0000   -1.1250 hc        1 ROP      0.080033
      9 HCB1        1.8860    0.9110   -0.4810 hc        1 ROP      0.104700
     10 HCB2        1.8860   -0.9110   -0.4810 hc        1 ROP      0.104700
     11 HND1        3.8450   -0.8330    1.2420 hn        1 ROP      0.468467
     12 HND2        3.6540   -0.0000    2.6760 hn        1 ROP      0.468467
     13 HD23        3.8450    0.8320    1.2420 hn        1 ROP      0.468467
@<TRIPOS>BOND
     1    1    2 1   
     2    1    6 1   
     3    1    7 1   
     4    1    8 1   
     5    2    3 1   
     6    2    9 1   
     7    2   10 1   
     8    3    4 2   
     9    3    5 1   
    10    5   11 1   
    11    5   12 1   
    12    5   13 1   
@<TRIPOS>SUBSTRUCTURE
     1 ROP         1 TEMP              0 ****  ****    0 ROOT
