@<TRIPOS>MOLECULE
ROP
   12    11     1     0     0
SMALL
bcc


@<TRIPOS>ATOM
      1 CA         -0.0270    0.0000    1.9900 c3        1 ROP     -0.086100
      2 CB          0.8000    0.0000    0.7310 c3        1 ROP     -0.148400
      3 CG         -0.0800   -0.0000   -0.5050 c         1 ROP      0.654100
      4 OD1        -1.3260   -0.0000   -0.4480 o         1 ROP     -0.611100
      5 ND2         0.5430   -0.0000   -1.7310 n         1 ROP     -0.684000
      6 HCA1        0.6400    0.0000    2.8850 hc        1 ROP      0.046367
      7 HCA2       -0.6840    0.9030    2.0250 hc        1 ROP      0.046367
      8 HCA3       -0.6840   -0.9030    2.0250 hc        1 ROP      0.046367
      9 HCB1        1.4610    0.9070    0.7070 hc        1 ROP      0.058700
     10 HCB2        1.4610   -0.9070    0.7070 hc        1 ROP      0.058700
     11 HND1        0.0000   -0.0000   -2.5570 hn        1 ROP      0.309500
     12 HND2        1.5260   -0.0000   -1.8050 hn        1 ROP      0.309500
@<TRIPOS>BOND
     1    1    2 1   
     2    1    6 1   
     3    1    7 1   
     4    1    8 1   
     5    2    3 1   
     6    2    9 1   
     7    2   10 1   
     8    3    4 2   
     9    3    5 1   
    10    5   11 1   
    11    5   12 1   
@<TRIPOS>SUBSTRUCTURE
     1 ROP         1 TEMP              0 ****  ****    0 ROOT
