@<TRIPOS>MOLECULE
ROS
   49    40     1     0     0
SMALL
bcc


@<TRIPOS>ATOM
      1 C1         -1.7450   -1.7380   -1.9920 c1        1 ROS      0.215000
      2 C2         -0.4180   -1.2990   -2.0870 c1        1 ROS     -0.278000
      3 C3          0.2990   -0.9750   -0.9230 c1        1 ROS      0.188000
      4 O2          1.4090   -0.1500   -1.0810 o         1 ROS     -0.100000
      5 C4          1.9170    0.5720    0.0220 c1        1 ROS     -0.014000
      6 C5          2.3240    1.8370   -0.4500 c1        1 ROS     -0.138500
      7 C6          2.1190    2.9570    0.3200 c1        1 ROS      0.215000
      8 C7          1.5090    2.8440    1.5680 c1        1 ROS     -0.222000
      9 C8          1.1090    1.6050    2.0340 c1        1 ROS     -0.138500
     10 C9          1.3170    0.4600    1.2510 c1        1 ROS     -0.014000
     11 C10         0.2010   -0.3700    1.4110 c1        1 ROS      0.239000
     12 C11        -0.3050   -1.0880    0.3110 c1        1 ROS     -0.216000
     13 C12        -1.6390   -1.5290    0.4030 c1        1 ROS     -0.110500
     14 C13        -2.3500   -1.8510   -0.7520 c1        1 ROS     -0.110500
     15 C14         0.4090   -1.1970    2.5470 c1        1 ROS     -0.125000
     16 C15        -0.4220   -1.0700    3.6640 c1        1 ROS     -0.110500
     17 C16        -0.1450   -1.7910    4.8270 c1        1 ROS     -0.110500
     18 C17         0.9590   -2.6350    4.8750 c1        1 ROS     -0.110500
     19 C18         1.7910   -2.7620    3.7610 c1        1 ROS     -0.110500
     20 C19         1.5150   -2.0420    2.5970 c1        1 ROS     -0.100000
     21 N1         -2.4280   -2.0500   -3.1010 n2        1 ROS     -0.232000
     22 C20        -1.8030   -1.9360   -4.3810 c2        1 ROS     -0.093000
     23 C21        -3.8300   -2.5120   -3.0000 c3        1 ROS     -0.092000
     24 N2          1.6360    3.9010   -0.6460 n3        1 ROS     -0.232000
     25 C22         0.2370    4.2560   -0.6690 c3        1 ROS     -0.092500
     26 C23         2.5060    4.3760   -1.6720 c3        1 ROS     -0.092500
     27 H2          0.0160   -1.2170   -2.9790 ha        1 ROS      0.174000
     28 H5          2.7510    1.9170   -1.3220 ha        1 ROS      0.169500
     29 H7          1.3640    3.6350    2.1100 ha        1 ROS      0.162000
     30 H8          0.6840    1.5270    2.9050 ha        1 ROS      0.169500
     31 H12        -2.0700   -1.6110    1.2840 ha        1 ROS      0.155833
     32 H13        -3.2700   -2.1550   -0.6860 ha        1 ROS      0.155833
     33 H15        -1.2030   -0.4740    3.6310 ha        1 ROS      0.155833
     34 H16        -0.7310   -1.7020    5.6140 ha        1 ROS      0.155833
     35 H17         1.1530   -3.1390    5.6890 ha        1 ROS      0.155833
     36 H18         2.5720   -3.3590    3.7960 ha        1 ROS      0.155833
     37 H19         2.0950   -2.1310    1.8190 ha        1 ROS      0.146000
     38 H201       -1.0480   -2.5590   -4.4330 ha        1 ROS      0.102667
     39 H202       -1.4780   -1.0190   -4.5060 ha        1 ROS      0.102667
     40 H203       -2.4550   -2.1510   -5.0850 ha        1 ROS      0.102667
     41 H211       -4.1890   -2.6710   -3.9030 h1        1 ROS      0.103000
     42 H212       -4.3740   -1.8220   -2.5470 h1        1 ROS      0.103000
     43 H213       -3.8640   -3.3510   -2.4800 h1        1 ROS      0.103000
     44 H221       -0.0910    4.2380   -1.5990 h1        1 ROS      0.102833
     45 H222        0.1220    5.1630   -0.2960 h1        1 ROS      0.102833
     46 H223       -0.2750    3.6120   -0.1290 h1        1 ROS      0.102833
     47 H231        2.3540    5.3360   -1.8130 h1        1 ROS      0.102833
     48 H232        2.3250    3.8900   -2.5050 h1        1 ROS      0.102833
     49 H233        3.4410    4.2280   -1.4030 h1        1 ROS      0.102833
@<TRIPOS>BOND
     1    1    2 1   
     2    1   21 1   
     3    2   27 1   
     4    3    4 1   
     5    3   12 1   
     6    5    6 1   
     7    5   10 1   
     8    6   28 1   
     9    7    8 1   
    10    7   24 1   
    11    8   29 1   
    12    9   10 1   
    13    9   30 1   
    14   11   12 1   
    15   13   14 1   
    16   13   31 1   
    17   14   32 1   
    18   15   20 1   
    19   16   17 1   
    20   16   33 1   
    21   17   34 1   
    22   18   19 1   
    23   18   35 1   
    24   19   36 1   
    25   20   37 1   
    26   21   23 1   
    27   22   38 1   
    28   22   39 1   
    29   22   40 1   
    30   23   41 1   
    31   23   42 1   
    32   23   43 1   
    33   24   25 1   
    34   24   26 1   
    35   25   44 1   
    36   25   45 1   
    37   25   46 1   
    38   26   47 1   
    39   26   48 1   
    40   26   49 1   
@<TRIPOS>SUBSTRUCTURE
     1 ROS         1 TEMP              0 ****  ****    0 ROOT
