@<TRIPOS>MOLECULE
ROS
   49    52     1     0     0
SMALL
bcc


@<TRIPOS>ATOM
      1 C1          3.6090    1.2930    0.0450 cc        1 ROS      0.442900
      2 C2          2.3310    1.9200    0.0290 cc        1 ROS     -0.364600
      3 C3          1.1820    1.1380    0.0140 cd        1 ROS      0.382700
      4 O2         -0.0020    1.8490    0.0110 os        1 ROS     -0.358800
      5 C4         -1.1830    1.1360   -0.0010 ca        1 ROS      0.448000
      6 C5         -2.3340    1.9160   -0.0060 ca        1 ROS     -0.343300
      7 C6         -3.6110    1.2880   -0.0300 ca        1 ROS      0.296600
      8 C7         -3.6450   -0.1560   -0.0570 ca        1 ROS     -0.222000
      9 C8         -2.4970   -0.8960   -0.0490 ca        1 ROS      0.001000
     10 C9         -1.2080   -0.2890   -0.0110 ca        1 ROS     -0.281300
     11 C10         0.0010   -1.0120   -0.0060 cc        1 ROS      0.239000
     12 C11         1.2090   -0.2870    0.0070 cd        1 ROS     -0.293100
     13 C12         2.4990   -0.8920    0.0380 cd        1 ROS      0.012800
     14 C13         3.6460   -0.1500    0.0550 cc        1 ROS     -0.308600
     15 C14         0.0020   -2.4740   -0.0150 ca        1 ROS     -0.125000
     16 C15         0.6060   -3.1730   -1.0720 ca        1 ROS     -0.100000
     17 C16         0.5970   -4.5660   -1.0810 ca        1 ROS     -0.126000
     18 C17         0.0040   -5.2710   -0.0320 ca        1 ROS     -0.090000
     19 C18        -0.5890   -4.5800    1.0250 ca        1 ROS     -0.126000
     20 C19        -0.6000   -3.1870    1.0330 ca        1 ROS     -0.100000
     21 N1          4.7590    2.0310    0.0520 nh        1 ROS     -0.248100
     22 C20         6.0460    1.3850    0.0750 c3        1 ROS      0.006100
     23 C21         4.7020    3.4710    0.0480 c3        1 ROS      0.006100
     24 N2         -4.7620    2.0230   -0.0290 nh        1 ROS     -0.630000
     25 C22        -4.7080    3.4630   -0.0070 c3        1 ROS      0.183600
     26 C23        -6.0490    1.3750   -0.0590 c3        1 ROS      0.183600
     27 H2          2.2240    3.0150    0.0300 ha        1 ROS      0.174000
     28 H5         -2.2280    3.0120    0.0050 ha        1 ROS      0.174000
     29 H7         -4.6160   -0.6760   -0.0890 ha        1 ROS      0.162000
     30 H8         -2.5510   -2.0000   -0.0770 ha        1 ROS      0.165000
     31 H12         2.5550   -1.9960    0.0520 ha        1 ROS      0.165000
     32 H13         4.6180   -0.6690    0.0810 ha        1 ROS      0.162000
     33 H15         1.0720   -2.6200   -1.9020 ha        1 ROS      0.146000
     34 H16         1.0600   -5.1100   -1.9190 ha        1 ROS      0.154000
     35 H17         0.0050   -6.3730   -0.0390 ha        1 ROS      0.154000
     36 H18        -1.0520   -5.1350    1.8560 ha        1 ROS      0.154000
     37 H19        -1.0670   -2.6440    1.8700 ha        1 ROS      0.146000
     38 H201        6.8640    2.1530    0.0740 h1        1 ROS      0.063533
     39 H202        6.1490    0.7540    0.9990 h1        1 ROS      0.063533
     40 H203        6.1690    0.7310   -0.8320 h1        1 ROS      0.063533
     41 H211        5.7390    3.8990    0.0520 h1        1 ROS      0.063533
     42 H212        4.1670    3.8340   -0.8720 h1        1 ROS      0.063533
     43 H213        4.1570    3.8410    0.9590 h1        1 ROS      0.063533
     44 H221       -4.1630    3.8450   -0.9130 h1        1 ROS      0.063533
     45 H222       -5.7450    3.8900   -0.0060 h1        1 ROS      0.063533
     46 H223       -4.1730    3.8170    0.9170 h1        1 ROS      0.063533
     47 H231       -6.1700    0.7110    0.8400 h1        1 ROS      0.063533
     48 H232       -6.8670    2.1420   -0.0480 h1        1 ROS      0.063533
     49 H233       -6.1510    0.7550   -0.9910 h1        1 ROS      0.063533
@<TRIPOS>BOND
     1    1    2 1   
     2    1   14 1   
     3    1   21 2   
     4    2    3 2   
     5    2   27 1   
     6    3    4 1   
     7    3   12 1   
     8    4    5 1   
     9    5    6 ar  
    10    5   10 ar  
    11    6    7 ar  
    12    6   28 1   
    13    7    8 ar  
    14    7   24 1   
    15    8    9 ar  
    16    8   29 1   
    17    9   10 ar  
    18    9   30 1   
    19   10   11 1   
    20   11   12 2   
    21   11   15 1   
    22   12   13 1   
    23   13   14 2   
    24   13   31 1   
    25   14   32 1   
    26   15   16 ar  
    27   15   20 ar  
    28   16   17 ar  
    29   16   33 1   
    30   17   18 ar  
    31   17   34 1   
    32   18   19 ar  
    33   18   35 1   
    34   19   20 ar  
    35   19   36 1   
    36   20   37 1   
    37   21   22 1   
    38   21   23 1   
    39   22   38 1   
    40   22   39 1   
    41   22   40 1   
    42   23   41 1   
    43   23   42 1   
    44   23   43 1   
    45   24   25 1   
    46   24   26 1   
    47   25   44 1   
    48   25   45 1   
    49   25   46 1   
    50   26   47 1   
    51   26   48 1   
    52   26   49 1   
@<TRIPOS>SUBSTRUCTURE
     1 ROS         1 TEMP              0 ****  ****    0 ROOT
