@<TRIPOS>MOLECULE
ROS
   49    52     1     0     0
SMALL
bcc


@<TRIPOS>ATOM
      1 C1         -0.0050    0.0200   -0.0440 cc        1 ROS      0.442900
      2 C2          1.4160    0.0290    0.0340 cc        1 ROS     -0.364600
      3 C3          2.0360    0.0120    1.2780 cd        1 ROS      0.382700
      4 O2          3.4160    0.0110    1.2360 os        1 ROS     -0.358800
      5 C4          4.0980   -0.0090    2.4360 ca        1 ROS      0.448000
      6 C5          5.4830   -0.0050    2.3180 ca        1 ROS     -0.343300
      7 C6          6.2900   -0.0130    3.4910 ca        1 ROS      0.296600
      8 C7          5.6140   -0.0130    4.7670 ca        1 ROS     -0.222000
      9 C8          4.2510   -0.0180    4.8510 ca        1 ROS      0.001000
     10 C9          3.4230   -0.0260    3.6910 ca        1 ROS     -0.281300
     11 C10         2.0140   -0.0260    3.7310 cc        1 ROS      0.239000
     12 C11         1.3150   -0.0080    2.5070 cd        1 ROS     -0.293100
     13 C12        -0.1060   -0.0320    2.4040 cd        1 ROS      0.012800
     14 C13        -0.7430   -0.0170    1.1960 cc        1 ROS     -0.308600
     15 C14         1.2980   -0.0460    5.0050 ca        1 ROS     -0.125000
     16 C15         0.4340    1.0060    5.3450 ca        1 ROS     -0.100000
     17 C16        -0.2390    0.9890    6.5650 ca        1 ROS     -0.126000
     18 C17        -0.0710   -0.0820    7.4440 ca        1 ROS     -0.090000
     19 C18         0.7810   -1.1350    7.1060 ca        1 ROS     -0.126000
     20 C19         1.4720   -1.1160    5.8960 ca        1 ROS     -0.100000
     21 N1         -0.6480    0.0430   -1.2500 nh        1 ROS     -0.248100
     22 C20        -2.0870    0.0280   -1.3160 c3        1 ROS      0.006100
     23 C21         0.1060    0.0740   -2.4780 c3        1 ROS      0.006100
     24 N2          7.6530   -0.0170    3.4120 nh        1 ROS     -0.630000
     25 C22         8.3100   -0.0100    2.1290 c3        1 ROS      0.183600
     26 C23         8.4590   -0.0180    4.6070 c3        1 ROS      0.183600
     27 H2          2.0450    0.0470   -0.8690 ha        1 ROS      0.174000
     28 H5          5.9270    0.0050    1.3110 ha        1 ROS      0.174000
     29 H7          6.2070   -0.0050    5.6960 ha        1 ROS      0.162000
     30 H8          3.7580   -0.0130    5.8410 ha        1 ROS      0.165000
     31 H12        -0.6950   -0.0660    3.3390 ha        1 ROS      0.165000
     32 H13        -1.8450   -0.0390    1.1730 ha        1 ROS      0.162000
     33 H15         0.3010    1.8540    4.6540 ha        1 ROS      0.146000
     34 H16        -0.9070    1.8230    6.8330 ha        1 ROS      0.154000
     35 H17        -0.6110   -0.0970    8.4040 ha        1 ROS      0.154000
     36 H18         0.9100   -1.9830    7.7960 ha        1 ROS      0.154000
     37 H19         2.1410   -1.9490    5.6310 ha        1 ROS      0.146000
     38 H201       -2.4890   -0.9070   -0.8390 h1        1 ROS      0.063533
     39 H202       -2.5100    0.9230   -0.7850 h1        1 ROS      0.063533
     40 H203       -2.4240    0.0550   -2.3860 h1        1 ROS      0.063533
     41 H211       -0.5900    0.0930   -3.3580 h1        1 ROS      0.063533
     42 H212        0.7590   -0.8370   -2.5550 h1        1 ROS      0.063533
     43 H213        0.7530    0.9930   -2.5110 h1        1 ROS      0.063533
     44 H221        8.0140   -0.9190    1.5380 h1        1 ROS      0.063533
     45 H222        8.0250    0.9110    1.5520 h1        1 ROS      0.063533
     46 H223        9.4240   -0.0180    2.2650 h1        1 ROS      0.063533
     47 H231        9.5480   -0.0260    4.3380 h1        1 ROS      0.063533
     48 H232        8.2370   -0.9310    5.2240 h1        1 ROS      0.063533
     49 H233        8.2480    0.9000    5.2200 h1        1 ROS      0.063533
@<TRIPOS>BOND
     1    1    2 1   
     2    1   14 1   
     3    1   21 2   
     4    2    3 2   
     5    2   27 1   
     6    3    4 1   
     7    3   12 1   
     8    4    5 1   
     9    5    6 ar  
    10    5   10 ar  
    11    6    7 ar  
    12    6   28 1   
    13    7    8 ar  
    14    7   24 1   
    15    8    9 ar  
    16    8   29 1   
    17    9   10 ar  
    18    9   30 1   
    19   10   11 1   
    20   11   12 2   
    21   11   15 1   
    22   12   13 1   
    23   13   14 2   
    24   13   31 1   
    25   14   32 1   
    26   15   16 ar  
    27   15   20 ar  
    28   16   17 ar  
    29   16   33 1   
    30   17   18 ar  
    31   17   34 1   
    32   18   19 ar  
    33   18   35 1   
    34   19   20 ar  
    35   19   36 1   
    36   20   37 1   
    37   21   22 1   
    38   21   23 1   
    39   22   38 1   
    40   22   39 1   
    41   22   40 1   
    42   23   41 1   
    43   23   42 1   
    44   23   43 1   
    45   24   25 1   
    46   24   26 1   
    47   25   44 1   
    48   25   45 1   
    49   25   46 1   
    50   26   47 1   
    51   26   48 1   
    52   26   49 1   
@<TRIPOS>SUBSTRUCTURE
     1 ROS         1 TEMP              0 ****  ****    0 ROOT
