@<TRIPOS>MOLECULE
ROU
   36    37     1     0     0
SMALL
bcc


@<TRIPOS>ATOM
      1 OAA        -3.6410    3.1230   -0.2190 o         1 ROU     -0.793800
      2 CAR        -2.9350    2.1360    0.1050 c         1 ROU      0.924800
      3 OAD        -1.7420    2.1640    0.4930 o         1 ROU     -0.793800
      4 CAV        -3.6340    0.7430    0.0360 cc        1 ROU      0.047400
      5 NAP        -4.9890    0.7470    0.3250 n         1 ROU     -0.435100
      6 CAX        -5.7710   -0.4140    0.2470 c         1 ROU      0.791500
      7 OAB        -7.0040   -0.3880    0.4780 o         1 ROU     -0.689500
      8 NAQ        -5.1280   -1.6180   -0.0770 n         1 ROU     -0.591500
      9 CAY        -3.7510   -1.6850   -0.3670 c         1 ROU      0.717700
     10 OAC        -3.2850   -2.8050   -0.6650 o         1 ROU     -0.667500
     11 CAW        -2.9970   -0.4290   -0.2950 cd        1 ROU     -0.299400
     12 CAO        -1.5470   -0.4950   -0.6010 c3        1 ROU      0.012800
     13 CAN        -0.7240   -0.6640    0.6700 c3        1 ROU     -0.046100
     14 CAS         0.7220   -0.4230    0.4180 ca        1 ROU     -0.058300
     15 CAK         1.6400   -1.4760    0.4210 ca        1 ROU     -0.055000
     16 CAT         2.9970   -1.2210    0.2010 ca        1 ROU     -0.183800
     17 CAZ         3.9890   -2.3740    0.1920 c3        1 ROU      0.690700
     18 FAF         5.2620   -2.0440    0.5960 f         1 ROU     -0.241467
     19 FAG         3.6530   -3.4320    1.0030 f         1 ROU     -0.241467
     20 FAE         4.1800   -2.9540   -1.0400 f         1 ROU     -0.241467
     21 CAM         3.4500    0.0770   -0.0260 ca        1 ROU     -0.059000
     22 CAU         2.5270    1.1260   -0.0310 ca        1 ROU     -0.183800
     23 CBA         3.0220    2.5480   -0.2600 c3        1 ROU      0.690700
     24 FAI         2.1780    3.3460   -0.9900 f         1 ROU     -0.241467
     25 FAJ         3.2520    3.2600    0.8930 f         1 ROU     -0.241467
     26 FAH         4.2200    2.6350   -0.9340 f         1 ROU     -0.241467
     27 CAL         1.1700    0.8890    0.1870 ca        1 ROU     -0.055000
     28 H2         -5.4480    1.6270    0.4500 hn        1 ROU      0.368500
     29 H3         -5.6870   -2.4400   -0.1210 hn        1 ROU      0.333500
     30 H4         -1.3480   -1.3530   -1.2960 hc        1 ROU      0.058200
     31 H5         -1.2350    0.4600   -1.1080 hc        1 ROU      0.058200
     32 H6         -1.0870    0.0940    1.4230 hc        1 ROU      0.070200
     33 H7         -0.8850   -1.6900    1.0910 hc        1 ROU      0.070200
     34 H8          1.2980   -2.5090    0.6010 ha        1 ROU      0.187000
     35 H9          4.5210    0.2730   -0.1970 ha        1 ROU      0.154000
     36 H10         0.4280    1.7170    0.1830 ha        1 ROU      0.187000
@<TRIPOS>BOND
     1    1    2 1   
     2    2    3 1   
     3    2    4 1   
     4    4    5 1   
     5    4   11 2   
     6    5    6 1   
     7    5   28 1   
     8    6    7 2   
     9    6    8 1   
    10    8    9 1   
    11    8   29 1   
    12    9   10 2   
    13    9   11 1   
    14   11   12 1   
    15   12   13 1   
    16   12   30 1   
    17   12   31 1   
    18   13   14 1   
    19   13   32 1   
    20   13   33 1   
    21   14   15 ar  
    22   14   27 ar  
    23   15   16 ar  
    24   15   34 1   
    25   16   17 1   
    26   16   21 ar  
    27   17   18 1   
    28   17   19 1   
    29   17   20 1   
    30   21   22 ar  
    31   21   35 1   
    32   22   23 1   
    33   22   27 ar  
    34   23   24 1   
    35   23   25 1   
    36   23   26 1   
    37   27   36 1   
@<TRIPOS>SUBSTRUCTURE
     1 ROU         1 TEMP              0 ****  ****    0 ROOT
