@<TRIPOS>MOLECULE
ROU
   36    37     1     0     0
SMALL
bcc


@<TRIPOS>ATOM
      1 OAA         0.1650   -0.1050    0.2390 o         1 ROU     -0.793800
      2 CAR         1.3780   -0.4270    0.2010 c         1 ROU      0.924800
      3 OAD         2.0530   -0.9160    1.1390 o         1 ROU     -0.793800
      4 CAV         2.0980   -0.2150   -1.1670 cc        1 ROU      0.047400
      5 NAP         1.3020   -0.3870   -2.2880 n         1 ROU     -0.435100
      6 CAX         1.7860   -0.1730   -3.5850 c         1 ROU      0.791500
      7 OAB         1.0430   -0.3000   -4.5890 o         1 ROU     -0.689500
      8 NAQ         3.1380    0.1690   -3.7340 n         1 ROU     -0.591500
      9 CAY         3.9990    0.3450   -2.6320 c         1 ROU      0.717700
     10 OAC         5.1790    0.6690   -2.8770 o         1 ROU     -0.667500
     11 CAW         3.4220    0.1320   -1.3000 cd        1 ROU     -0.299400
     12 CAO         4.3240    0.3170   -0.1380 c3        1 ROU      0.012800
     13 CAN         4.9420   -1.0060    0.2950 c3        1 ROU     -0.046100
     14 CAS         5.5930   -0.8920    1.6280 ca        1 ROU     -0.058300
     15 CAK         6.9840   -0.9090    1.7540 ca        1 ROU     -0.055000
     16 CAT         7.5720   -0.8210    3.0210 ca        1 ROU     -0.183800
     17 CAZ         9.0870   -0.8260    3.1500 c3        1 ROU      0.690700
     18 FAF         9.5640   -1.3550    4.3270 f         1 ROU     -0.241467
     19 FAG         9.7480   -1.5390    2.1790 f         1 ROU     -0.241467
     20 FAE         9.6690    0.4190    3.0960 f         1 ROU     -0.241467
     21 CAM         6.7850   -0.7130    4.1650 ca        1 ROU     -0.059000
     22 CAU         5.3930   -0.6930    4.0320 ca        1 ROU     -0.183800
     23 CBA         4.5300   -0.5940    5.2820 c3        1 ROU      0.690700
     24 FAI         3.3890    0.1540    5.1420 f         1 ROU     -0.241467
     25 FAJ         4.0880   -1.8040    5.7620 f         1 ROU     -0.241467
     26 FAH         5.1600   -0.0290    6.3690 f         1 ROU     -0.241467
     27 CAL         4.7920   -0.7810    2.7770 ca        1 ROU     -0.055000
     28 H2          0.3200   -0.5270   -2.1580 hn        1 ROU      0.368500
     29 H3          3.4780    0.3090   -4.6580 hn        1 ROU      0.333500
     30 H4          5.1360    1.0450   -0.4030 hc        1 ROU      0.058200
     31 H5          3.7320    0.7370    0.7220 hc        1 ROU      0.058200
     32 H6          4.1150   -1.7700    0.3650 hc        1 ROU      0.070200
     33 H7          5.6800   -1.3480   -0.4760 hc        1 ROU      0.070200
     34 H8          7.6210   -0.9960    0.8600 ha        1 ROU      0.187000
     35 H9          7.2520   -0.6450    5.1610 ha        1 ROU      0.154000
     36 H10         3.6850   -0.7640    2.6610 ha        1 ROU      0.187000
@<TRIPOS>BOND
     1    1    2 1   
     2    2    3 1   
     3    2    4 1   
     4    4    5 1   
     5    4   11 2   
     6    5    6 1   
     7    5   28 1   
     8    6    7 2   
     9    6    8 1   
    10    8    9 1   
    11    8   29 1   
    12    9   10 2   
    13    9   11 1   
    14   11   12 1   
    15   12   13 1   
    16   12   30 1   
    17   12   31 1   
    18   13   14 1   
    19   13   32 1   
    20   13   33 1   
    21   14   15 ar  
    22   14   27 ar  
    23   15   16 ar  
    24   15   34 1   
    25   16   17 1   
    26   16   21 ar  
    27   17   18 1   
    28   17   19 1   
    29   17   20 1   
    30   21   22 ar  
    31   21   35 1   
    32   22   23 1   
    33   22   27 ar  
    34   23   24 1   
    35   23   25 1   
    36   23   26 1   
    37   27   36 1   
@<TRIPOS>SUBSTRUCTURE
     1 ROU         1 TEMP              0 ****  ****    0 ROOT
