@<TRIPOS>MOLECULE
ROU
   36    37     1     0     0
SMALL
bcc


@<TRIPOS>ATOM
      1 OAA         0.1670   -0.0700    0.2400 o         1 ROU     -0.793800
      2 CAR         1.3780   -0.4030    0.2030 c         1 ROU      0.924800
      3 OAD         2.0500   -0.8920    1.1430 o         1 ROU     -0.793800
      4 CAV         2.0990   -0.2040   -1.1670 cc        1 ROU      0.047400
      5 NAP         1.3010   -0.3760   -2.2860 ns        1 ROU     -0.435100
      6 CAX         1.7860   -0.1730   -3.5850 c         1 ROU      0.791500
      7 OAB         1.0410   -0.2990   -4.5880 o         1 ROU     -0.689500
      8 NAQ         3.1410    0.1570   -3.7360 ns        1 ROU     -0.591500
      9 CAY         4.0040    0.3310   -2.6360 c         1 ROU      0.717700
     10 OAC         5.1860    0.6440   -2.8830 o         1 ROU     -0.667500
     11 CAW         3.4250    0.1310   -1.3030 cd        1 ROU     -0.299400
     12 CAO         4.3300    0.3140   -0.1420 c3        1 ROU      0.012800
     13 CAN         4.9370   -1.0120    0.2980 c3        1 ROU     -0.046100
     14 CAS         5.5900   -0.8960    1.6300 ca        1 ROU     -0.058300
     15 CAK         6.9800   -0.9250    1.7560 ca        1 ROU     -0.055000
     16 CAT         7.5700   -0.8350    3.0210 ca        1 ROU     -0.183800
     17 CAZ         9.0850   -0.8520    3.1500 c3        1 ROU      0.690700
     18 FAF         9.5580   -1.3790    4.3290 f         1 ROU     -0.241467
     19 FAG         9.7390   -1.5770    2.1820 f         1 ROU     -0.241467
     20 FAE         9.6780    0.3870    3.0880 f         1 ROU     -0.241467
     21 CAM         6.7840   -0.7140    4.1650 ca        1 ROU     -0.059000
     22 CAU         5.3930   -0.6830    4.0330 ca        1 ROU     -0.183800
     23 CBA         4.5310   -0.5690    5.2830 c3        1 ROU      0.690700
     24 FAI         3.3980    0.1910    5.1400 f         1 ROU     -0.241467
     25 FAJ         4.0760   -1.7720    5.7680 f         1 ROU     -0.241467
     26 FAH         5.1680   -0.0070    6.3670 f         1 ROU     -0.241467
     27 CAL         4.7900   -0.7720    2.7780 ca        1 ROU     -0.055000
     28 H2          0.3180   -0.5060   -2.1550 hn        1 ROU      0.368500
     29 H3          3.4810    0.2890   -4.6610 hn        1 ROU      0.333500
     30 H4          5.1480    1.0340   -0.4120 hc        1 ROU      0.058200
     31 H5          3.7420    0.7440    0.7160 hc        1 ROU      0.058200
     32 H6          4.1040   -1.7680    0.3720 hc        1 ROU      0.070200
     33 H7          5.6710   -1.3650   -0.4720 hc        1 ROU      0.070200
     34 H8          7.6170   -1.0220    0.8610 ha        1 ROU      0.187000
     35 H9          7.2530   -0.6450    5.1600 ha        1 ROU      0.154000
     36 H10         3.6840   -0.7460    2.6630 ha        1 ROU      0.187000
@<TRIPOS>BOND
     1    1    2 1   
     2    2    3 1   
     3    2    4 1   
     4    4    5 1   
     5    4   11 2   
     6    5    6 1   
     7    5   28 1   
     8    6    7 2   
     9    6    8 1   
    10    8    9 1   
    11    8   29 1   
    12    9   10 2   
    13    9   11 1   
    14   11   12 1   
    15   12   13 1   
    16   12   30 1   
    17   12   31 1   
    18   13   14 1   
    19   13   32 1   
    20   13   33 1   
    21   14   15 ar  
    22   14   27 ar  
    23   15   16 ar  
    24   15   34 1   
    25   16   17 1   
    26   16   21 ar  
    27   17   18 1   
    28   17   19 1   
    29   17   20 1   
    30   21   22 ar  
    31   21   35 1   
    32   22   23 1   
    33   22   27 ar  
    34   23   24 1   
    35   23   25 1   
    36   23   26 1   
    37   27   36 1   
@<TRIPOS>SUBSTRUCTURE
     1 ROU         1 TEMP              0 ****  ****    0 ROOT
