@<TRIPOS>MOLECULE
ROU
   36    37     1     0     0
SMALL
bcc


@<TRIPOS>ATOM
      1 OAA         0.1670   -0.0710    0.2440 o         1 ROU     -0.793800
      2 CAR         1.3770   -0.4030    0.2050 c         1 ROU      0.924800
      3 OAD         2.0500   -0.8950    1.1430 o         1 ROU     -0.793800
      4 CAV         2.0980   -0.1980   -1.1640 cc        1 ROU      0.047400
      5 NAP         1.2990   -0.3650   -2.2840 n         1 ROU     -0.435100
      6 CAX         1.7830   -0.1570   -3.5820 c         1 ROU      0.791500
      7 OAB         1.0380   -0.2800   -4.5850 o         1 ROU     -0.689500
      8 NAQ         3.1370    0.1740   -3.7330 n         1 ROU     -0.591500
      9 CAY         4.0010    0.3450   -2.6320 c         1 ROU      0.717700
     10 OAC         5.1830    0.6600   -2.8790 o         1 ROU     -0.667500
     11 CAW         3.4230    0.1390   -1.3000 cd        1 ROU     -0.299400
     12 CAO         4.3280    0.3190   -0.1380 c3        1 ROU      0.012800
     13 CAN         4.9370   -1.0090    0.2950 c3        1 ROU     -0.046100
     14 CAS         5.5910   -0.8980    1.6270 ca        1 ROU     -0.058300
     15 CAK         6.9810   -0.9260    1.7520 ca        1 ROU     -0.055000
     16 CAT         7.5710   -0.8400    3.0180 ca        1 ROU     -0.183800
     17 CAZ         9.0860   -0.8570    3.1460 c3        1 ROU      0.690700
     18 FAF         9.5610   -1.3880    4.3220 f         1 ROU     -0.241467
     19 FAG         9.7410   -1.5770    2.1750 f         1 ROU     -0.241467
     20 FAE         9.6780    0.3840    3.0880 f         1 ROU     -0.241467
     21 CAM         6.7860   -0.7250    4.1630 ca        1 ROU     -0.059000
     22 CAU         5.3950   -0.6950    4.0310 ca        1 ROU     -0.183800
     23 CBA         4.5340   -0.5870    5.2820 c3        1 ROU      0.690700
     24 FAI         3.3990    0.1690    5.1430 f         1 ROU     -0.241467
     25 FAJ         4.0820   -1.7940    5.7640 f         1 ROU     -0.241467
     26 FAH         5.1700   -0.0270    6.3680 f         1 ROU     -0.241467
     27 CAL         4.7910   -0.7790    2.7770 ca        1 ROU     -0.055000
     28 H2          0.3160   -0.4970   -2.1530 hn        1 ROU      0.368500
     29 H3          3.4770    0.3110   -4.6570 hn        1 ROU      0.333500
     30 H4          3.7410    0.7440    0.7220 hc        1 ROU      0.058200
     31 H5          5.1460    1.0400   -0.4060 hc        1 ROU      0.058200
     32 H6          5.6710   -1.3570   -0.4760 hc        1 ROU      0.070200
     33 H7          4.1040   -1.7660    0.3670 hc        1 ROU      0.070200
     34 H8          7.6170   -1.0190    0.8570 ha        1 ROU      0.187000
     35 H9          7.2550   -0.6600    5.1580 ha        1 ROU      0.154000
     36 H10         3.6850   -0.7540    2.6620 ha        1 ROU      0.187000
@<TRIPOS>BOND
     1    1    2 1   
     2    2    3 1   
     3    2    4 1   
     4    4    5 1   
     5    4   11 2   
     6    5    6 1   
     7    5   28 1   
     8    6    7 2   
     9    6    8 1   
    10    8    9 1   
    11    8   29 1   
    12    9   10 2   
    13    9   11 1   
    14   11   12 1   
    15   12   13 1   
    16   12   30 1   
    17   12   31 1   
    18   13   14 1   
    19   13   32 1   
    20   13   33 1   
    21   14   15 ar  
    22   14   27 ar  
    23   15   16 ar  
    24   15   34 1   
    25   16   17 1   
    26   16   21 ar  
    27   17   18 1   
    28   17   19 1   
    29   17   20 1   
    30   21   22 ar  
    31   21   35 1   
    32   22   23 1   
    33   22   27 ar  
    34   23   24 1   
    35   23   25 1   
    36   23   26 1   
    37   27   36 1   
@<TRIPOS>SUBSTRUCTURE
     1 ROU         1 TEMP              0 ****  ****    0 ROOT
