@<TRIPOS>MOLECULE
RP1
   34    37     1     0     0
SMALL
bcc


@<TRIPOS>ATOM
      1 P           0.3200    0.3150    0.0210 p5        1 RP1      1.240200
      2 S1P        -0.0820    0.6780   -1.7510 s         1 RP1     -0.511000
      3 O2P        -0.0060    1.4800    1.0590 oh        1 RP1     -0.758400
      4 O5'         1.8470    0.0390    0.4100 os        1 RP1     -0.538200
      5 C5'         2.2340   -0.3540    1.7180 c3        1 RP1      0.180400
      6 C4'         1.3770   -1.5540    2.0960 c3        1 RP1      0.052100
      7 O4'         1.5690   -2.0410    3.4180 os        1 RP1     -0.400600
      8 C3'        -0.1030   -1.1030    2.0550 c3        1 RP1      0.062100
      9 O3'        -0.4970   -0.8970    0.7220 os        1 RP1     -0.502200
     10 C2'        -0.8000   -2.2480    2.8000 c3        1 RP1      0.129100
     11 O2'        -1.0220   -3.3810    1.9940 oh        1 RP1     -0.578800
     12 C1'         0.3120   -2.6700    3.8450 c3        1 RP1      0.247800
     13 N9          0.0160   -2.2690    5.1840 na        1 RP1     -0.282000
     14 C8         -0.2480   -0.9520    5.6600 cc        1 RP1      0.406700
     15 N7         -0.2910   -0.8600    6.9920 nd        1 RP1     -0.528100
     16 C5         -0.0120   -2.1550    7.4610 ca        1 RP1     -0.239200
     17 C6          0.0870   -2.7130    8.7800 ca        1 RP1      0.768200
     18 N6         -0.1240   -1.9290    9.8800 nv        1 RP1     -0.958500
     19 N1          0.3910   -4.0510    8.9100 nb        1 RP1     -0.791000
     20 C2          0.5730   -4.7680    7.7720 ca        1 RP1      0.694900
     21 N3          0.5060   -4.3810    6.4730 nb        1 RP1     -0.735000
     22 C4          0.2110   -3.0570    6.3370 ca        1 RP1      0.481800
     23 HOP2       -0.3430    2.3130    0.7270 ho        1 RP1      0.510000
     24 H5'1        2.0930    0.5070    2.4240 h1        1 RP1      0.087700
     25 H5'2        3.3220   -0.6210    1.6440 h1        1 RP1      0.087700
     26 H4'         1.5620   -2.4140    1.3890 h1        1 RP1      0.096700
     27 H3'        -0.2540   -0.1410    2.6250 h1        1 RP1      0.085700
     28 H2'        -1.7560   -1.9210    3.2820 h1        1 RP1      0.082700
     29 HO2'       -1.4710   -3.0740    1.1930 ho        1 RP1      0.436000
     30 H1'         0.4830   -3.7870    3.8050 h2        1 RP1      0.143700
     31 H8         -0.4110   -0.1240    4.9610 h5        1 RP1      0.067800
     32 HN61       -0.0410   -2.3030   10.7920 hn        1 RP1      0.452300
     33 HN62       -0.3130   -0.9660    9.7550 hn        1 RP1      0.452300
     34 H2          0.8160   -5.8420    7.9330 h5        1 RP1      0.057100
@<TRIPOS>BOND
     1    1    2 2   
     2    1    3 1   
     3    1    4 1   
     4    1    9 1   
     5    3   23 1   
     6    4    5 1   
     7    5    6 1   
     8    5   24 1   
     9    5   25 1   
    10    6    7 1   
    11    6    8 1   
    12    6   26 1   
    13    7   12 1   
    14    8    9 1   
    15    8   10 1   
    16    8   27 1   
    17   10   11 1   
    18   10   12 1   
    19   10   28 1   
    20   11   29 1   
    21   12   13 1   
    22   12   30 1   
    23   13   14 1   
    24   13   22 1   
    25   14   15 2   
    26   14   31 1   
    27   15   16 1   
    28   16   17 ar  
    29   16   22 ar  
    30   17   18 1   
    31   17   19 ar  
    32   18   32 1   
    33   18   33 1   
    34   19   20 ar  
    35   20   21 ar  
    36   20   34 1   
    37   21   22 ar  
@<TRIPOS>SUBSTRUCTURE
     1 RP1         1 TEMP              0 ****  ****    0 ROOT
