@<TRIPOS>MOLECULE
RP1
   34    37     1     0     0
SMALL
bcc


@<TRIPOS>ATOM
      1 P          -3.6600    0.0260    0.6910 p5        1 RP1      1.238200
      2 S1P        -5.2910   -0.7130    1.1710 s         1 RP1     -0.513000
      3 O2P        -2.9450    0.9130    1.8060 oh        1 RP1     -0.756400
      4 O5'        -3.6340    1.0710   -0.5220 os        1 RP1     -0.536200
      5 C5'        -2.4220    1.6080   -1.0250 c3        1 RP1      0.178400
      6 C4'        -1.5110    0.4280   -1.3390 c3        1 RP1      0.050100
      7 O4'        -0.2080    0.7720   -1.8040 os        1 RP1     -0.401600
      8 C3'        -1.2760   -0.3430   -0.0180 c3        1 RP1      0.064100
      9 O3'        -2.4580   -1.0060    0.3530 os        1 RP1     -0.500200
     10 C2'        -0.0810   -1.2310   -0.3910 c3        1 RP1      0.132100
     11 O2'        -0.4540   -2.3350   -1.1820 oh        1 RP1     -0.580800
     12 C1'         0.7180   -0.2640   -1.3530 c3        1 RP1      0.263800
     13 N9          1.8360    0.3860   -0.7230 na        1 RP1     -0.298000
     14 C8          2.1370    1.7740   -0.7350 cc        1 RP1      0.422700
     15 N7          3.3210    2.0680   -0.1850 nd        1 RP1     -0.540100
     16 C5          3.8640    0.8330    0.2040 ca        1 RP1     -0.233200
     17 C6          5.0990    0.4680    0.8370 ca        1 RP1      0.765200
     18 N6          5.9950    1.4320    1.2120 nh        1 RP1     -0.956500
     19 N1          5.3520   -0.8650    1.0750 nb        1 RP1     -0.792000
     20 C2          4.4030   -1.7620    0.7020 ca        1 RP1      0.691900
     21 N3          3.2000   -1.5670    0.1100 nb        1 RP1     -0.742000
     22 C4          2.9460   -0.2470   -0.1370 ca        1 RP1      0.462800
     23 HOP2       -3.3850    1.0400    2.6480 ho        1 RP1      0.510000
     24 H5'1       -1.9740    2.2980   -0.2620 h1        1 RP1      0.086200
     25 H5'2       -2.7050    2.1810   -1.9480 h1        1 RP1      0.086200
     26 H4'        -1.9750   -0.2370   -2.1250 h1        1 RP1      0.100700
     27 H3'        -0.9770    0.3530    0.8180 h1        1 RP1      0.095700
     28 H2'         0.5060   -1.5610    0.5030 h1        1 RP1      0.101700
     29 HO2'       -1.0720   -2.8590   -0.6530 ho        1 RP1      0.435000
     30 H1'         1.0530   -0.8220   -2.2770 h2        1 RP1      0.119700
     31 H8          1.4300    2.4930   -1.1690 h5        1 RP1      0.085800
     32 HN61        6.8700    1.1850    1.6010 hn        1 RP1      0.450800
     33 HN62        5.8140    2.3730    0.9660 hn        1 RP1      0.450800
     34 H2          4.6570   -2.8230    0.9170 h5        1 RP1      0.056100
@<TRIPOS>BOND
     1    1    2 2   
     2    1    3 1   
     3    1    4 1   
     4    1    9 1   
     5    3   23 1   
     6    4    5 1   
     7    5    6 1   
     8    5   24 1   
     9    5   25 1   
    10    6    7 1   
    11    6    8 1   
    12    6   26 1   
    13    7   12 1   
    14    8    9 1   
    15    8   10 1   
    16    8   27 1   
    17   10   11 1   
    18   10   12 1   
    19   10   28 1   
    20   11   29 1   
    21   12   13 1   
    22   12   30 1   
    23   13   14 1   
    24   13   22 1   
    25   14   15 2   
    26   14   31 1   
    27   15   16 1   
    28   16   17 ar  
    29   16   22 ar  
    30   17   18 1   
    31   17   19 ar  
    32   18   32 1   
    33   18   33 1   
    34   19   20 ar  
    35   20   21 ar  
    36   20   34 1   
    37   21   22 ar  
@<TRIPOS>SUBSTRUCTURE
     1 RP1         1 TEMP              0 ****  ****    0 ROOT
