@<TRIPOS>MOLECULE
RP1
   34    37     1     0     0
SMALL
bcc


@<TRIPOS>ATOM
      1 P           0.3220    0.2900    0.0150 p5        1 RP1      1.240200
      2 S1P        -0.0920    0.6500   -1.7560 s         1 RP1     -0.511000
      3 O2P         0.0230    1.4660    1.0490 oh        1 RP1     -0.758400
      4 O5'         1.8470   -0.0080    0.3920 os        1 RP1     -0.538200
      5 C5'         2.2400   -0.3990    1.6980 c3        1 RP1      0.180400
      6 C4'         1.3670   -1.5830    2.0910 c3        1 RP1      0.052100
      7 O4'         1.5630   -2.0660    3.4140 os        1 RP1     -0.400600
      8 C3'        -0.1050   -1.1090    2.0600 c3        1 RP1      0.062100
      9 O3'        -0.5080   -0.9050    0.7300 os        1 RP1     -0.502200
     10 C2'        -0.8130   -2.2390    2.8180 c3        1 RP1      0.129100
     11 O2'        -1.0610   -3.3730    2.0210 oh        1 RP1     -0.578800
     12 C1'         0.3010   -2.6730    3.8550 c3        1 RP1      0.247800
     13 N9          0.0240   -2.2590    5.1950 na        1 RP1     -0.282000
     14 C8         -0.2150   -0.9360    5.6660 cc        1 RP1      0.406700
     15 N7         -0.2450   -0.8360    6.9980 nd        1 RP1     -0.528100
     16 C5          0.0190   -2.1320    7.4710 ca        1 RP1     -0.239200
     17 C6          0.1220   -2.6840    8.7920 ca        1 RP1      0.768200
     18 N6         -0.0670   -1.8910    9.8900 nh        1 RP1     -0.958500
     19 N1          0.4060   -4.0260    8.9270 nb        1 RP1     -0.791000
     20 C2          0.5660   -4.7520    7.7930 ca        1 RP1      0.694900
     21 N3          0.4940   -4.3710    6.4920 nb        1 RP1     -0.735000
     22 C4          0.2170   -3.0440    6.3510 ca        1 RP1      0.481800
     23 HOP2       -0.3040    2.3030    0.7160 ho        1 RP1      0.510000
     24 H5'1        2.1190    0.4680    2.4010 h1        1 RP1      0.087700
     25 H5'2        3.3230   -0.6830    1.6160 h1        1 RP1      0.087700
     26 H4'         1.5320   -2.4500    1.3870 h1        1 RP1      0.096700
     27 H3'        -0.2360   -0.1420    2.6270 h1        1 RP1      0.085700
     28 H2'        -1.7600   -1.8940    3.3070 h1        1 RP1      0.082700
     29 HO2'       -1.5120   -3.0620    1.2220 ho        1 RP1      0.436000
     30 H1'         0.4540   -3.7920    3.8210 h2        1 RP1      0.143700
     31 H8         -0.3720   -0.1100    4.9630 h5        1 RP1      0.067800
     32 HN61        0.0180   -2.2600   10.8040 hn        1 RP1      0.452300
     33 HN62       -0.2420   -0.9260    9.7610 hn        1 RP1      0.452300
     34 H2          0.7950   -5.8280    7.9570 h5        1 RP1      0.057100
@<TRIPOS>BOND
     1    1    2 2   
     2    1    3 1   
     3    1    4 1   
     4    1    9 1   
     5    3   23 1   
     6    4    5 1   
     7    5    6 1   
     8    5   24 1   
     9    5   25 1   
    10    6    7 1   
    11    6    8 1   
    12    6   26 1   
    13    7   12 1   
    14    8    9 1   
    15    8   10 1   
    16    8   27 1   
    17   10   11 1   
    18   10   12 1   
    19   10   28 1   
    20   11   29 1   
    21   12   13 1   
    22   12   30 1   
    23   13   14 1   
    24   13   22 1   
    25   14   15 2   
    26   14   31 1   
    27   15   16 1   
    28   16   17 ar  
    29   16   22 ar  
    30   17   18 1   
    31   17   19 ar  
    32   18   32 1   
    33   18   33 1   
    34   19   20 ar  
    35   20   21 ar  
    36   20   34 1   
    37   21   22 ar  
@<TRIPOS>SUBSTRUCTURE
     1 RP1         1 TEMP              0 ****  ****    0 ROOT
