@<TRIPOS>MOLECULE
RP1
   35    38     1     0     0
SMALL
bcc


@<TRIPOS>ATOM
      1 P          -0.0090    0.1300   -0.0900 p5        1 RP1      1.216200
      2 S1P        -0.5880    0.2560   -1.8370 s         1 RP1     -0.457000
      3 O2P        -0.4320    1.2970    0.9110 oh        1 RP1     -0.761400
      4 O5'         1.5650    0.1060    0.2180 os        1 RP1     -0.529200
      5 C5'         2.0900   -0.0810    1.5180 c3        1 RP1      0.189400
      6 C4'         1.4720   -1.3670    2.0570 c3        1 RP1      0.043100
      7 O4'         1.8080   -1.7040    3.4050 os        1 RP1     -0.397600
      8 C3'        -0.0620   -1.1610    2.0840 c3        1 RP1      0.075100
      9 O3'        -0.5560   -1.1390    0.7740 os        1 RP1     -0.497200
     10 C2'        -0.5260   -2.3320    2.9590 c3        1 RP1      0.133100
     11 O2'        -0.6650   -3.5470    2.2650 oh        1 RP1     -0.578800
     12 C1'         0.7250   -2.5310    3.9120 c3        1 RP1      0.232800
     13 N9          0.4860   -2.1470    5.2860 na        1 RP1     -0.260000
     14 C8          0.6560   -0.8730    5.8730 cc        1 RP1      0.519700
     15 N7          0.4640   -0.8510    7.2060 nd        1 RP1     -0.584100
     16 C5          0.1700   -2.1740    7.5480 ca        1 RP1     -0.135200
     17 C6         -0.1230   -2.8370    8.7520 ca        1 RP1      0.521200
     18 N6         -0.1590   -2.0500    9.9980 n4        1 RP1     -0.816300
     19 N1         -0.3670   -4.1710    8.7980 nb        1 RP1     -0.675000
     20 C2         -0.3150   -4.8460    7.6130 ca        1 RP1      0.676900
     21 N3         -0.0490   -4.3630    6.3710 nb        1 RP1     -0.608000
     22 C4          0.1910   -3.0300    6.3380 ca        1 RP1      0.463800
     23 HOP2       -0.9100    2.0550    0.5670 ho        1 RP1      0.516000
     24 H5'1        3.2030   -0.1700    1.3860 h1        1 RP1      0.089200
     25 H5'2        1.8430    0.8070    2.1580 h1        1 RP1      0.089200
     26 H4'         1.7620   -2.2460    1.4110 h1        1 RP1      0.110700
     27 H3'        -0.3330   -0.1890    2.5890 h1        1 RP1      0.087700
     28 H2'        -1.4710   -2.0990    3.5130 h1        1 RP1      0.082700
     29 HO2'       -1.1070   -3.3530    1.4230 ho        1 RP1      0.453000
     30 H1'         1.0680   -3.6090    3.8810 h2        1 RP1      0.144700
     31 H8          0.9340    0.0010    5.2590 h5        1 RP1      0.111800
     32 HN61        0.7600   -1.6080   10.1310 hn        1 RP1      0.479133
     33 HN62       -0.8740   -1.3180    9.9020 hn        1 RP1      0.479133
     34 H2         -0.5160   -5.9420    7.6790 h5        1 RP1      0.105100
     35 H63        -0.3790   -2.6440   10.8090 hn        1 RP1      0.479133
@<TRIPOS>BOND
     1    1    2 2   
     2    1    3 1   
     3    1    4 1   
     4    1    9 1   
     5    3   23 1   
     6    4    5 1   
     7    5    6 1   
     8    5   24 1   
     9    5   25 1   
    10    6    7 1   
    11    6    8 1   
    12    6   26 1   
    13    7   12 1   
    14    8    9 1   
    15    8   10 1   
    16    8   27 1   
    17   10   11 1   
    18   10   12 1   
    19   10   28 1   
    20   11   29 1   
    21   12   13 1   
    22   12   30 1   
    23   13   14 1   
    24   13   22 1   
    25   14   15 2   
    26   14   31 1   
    27   15   16 1   
    28   16   17 ar  
    29   16   22 ar  
    30   17   18 1   
    31   17   19 ar  
    32   18   32 1   
    33   18   33 1   
    34   18   35 1   
    35   19   20 ar  
    36   20   21 ar  
    37   20   34 1   
    38   21   22 ar  
@<TRIPOS>SUBSTRUCTURE
     1 RP1         1 TEMP              0 ****  ****    0 ROOT
