@<TRIPOS>MOLECULE
RP2
   34    30     1     0     0
SMALL
bcc


@<TRIPOS>ATOM
      1 P          -3.4020    0.1800   -2.9930 p3        1 RP2      2.506000
      2 BR         -1.2730   -2.1360    2.2240 br        1 RP2      0.153000
      3 N1          4.2630   -0.4650    2.6720 n1        1 RP2     -0.265000
      4 C2          4.2480    0.4440    1.6480 c1        1 RP2      0.039000
      5 N3          3.1040    0.6390    0.9240 n1        1 RP2     -0.209000
      6 C4          1.9760   -0.0710    1.2210 c1        1 RP2     -0.078000
      7 C5          1.9910   -0.9690    2.2320 c1        1 RP2     -0.078000
      8 C6          3.1540   -1.1670    2.9670 c1        1 RP2      0.252000
      9 N6          3.5960   -2.0150    4.0310 n3        1 RP2     -0.351000
     10 N7          0.7510   -1.5310    2.3130 n1        1 RP2     -0.118500
     11 C8         -0.0250   -0.9760    1.3490 c2        1 RP2     -0.101000
     12 N9          0.7260   -0.0750    0.6730 n1        1 RP2     -0.118500
     13 C1'         0.3810    0.7890   -0.0620 c2        1 RP2      0.150000
     14 S1P        -4.1180    0.3290   -4.7890 s         1 RP2     -1.078000
     15 C2'         0.1520    0.2120   -1.5480 c3        1 RP2      0.021000
     16 O2'         0.7310    1.0920   -2.5280 oh        1 RP2     -0.308000
     17 O2P        -3.9830   -1.2260   -2.5410 o         1 RP2     -0.789000
     18 C3'        -1.1620    0.1840   -1.6680 c3        1 RP2     -0.051000
     19 O3'        -1.6940    0.1850   -2.9940 os        1 RP2     -0.666000
     20 C4'        -1.7790    1.4340   -0.6830 c3        1 RP2     -0.060000
     21 O4'        -1.1310    1.4020    0.4070 os        1 RP2     -0.252000
     22 C5'        -3.2970    1.4540   -0.5830 c3        1 RP2      0.033000
     23 O5'        -3.9600    1.4530   -1.9800 os        1 RP2     -0.702000
     24 H2          5.0570    0.9550    1.4340 ha        1 RP2      0.196000
     25 HN6         3.0230   -2.6320    4.3930 hn        1 RP2      0.249500
     26 HN6A        4.4480   -1.9320    4.3600 hn        1 RP2      0.249500
     27 H1'         1.0500    1.5100   -0.0770 h4        1 RP2      0.182000
     28 H2'         0.5260   -0.6940   -1.6290 h1        1 RP2      0.124000
     29 HO2'        1.3170    0.6390   -3.0260 ho        1 RP2      0.236000
     30 HO2P       -4.5130   -1.5480   -3.1800 ho        1 RP2      0.308000
     31 H3'        -1.4570   -0.6600   -1.2600 h1        1 RP2      0.137000
     32 H4'        -1.5290    2.2770   -1.1220 h1        1 RP2      0.133000
     33 H5'        -3.5760    2.2620   -0.0960 h1        1 RP2      0.128000
     34 H5'A       -3.5960    0.6610   -0.0860 h1        1 RP2      0.128000
@<TRIPOS>BOND
     1    1   14 1   
     2    1   19 1   
     3    1   23 1   
     4    2   11 1   
     5    3    8 1   
     6    4    5 1   
     7    4   24 1   
     8    6    7 1   
     9    8    9 1   
    10    9   25 1   
    11    9   26 1   
    12   10   11 1   
    13   11   12 1   
    14   13   15 1   
    15   13   21 1   
    16   13   27 1   
    17   15   16 1   
    18   15   18 1   
    19   15   28 1   
    20   16   29 1   
    21   17   30 1   
    22   18   19 1   
    23   18   20 1   
    24   18   31 1   
    25   20   21 1   
    26   20   22 1   
    27   20   32 1   
    28   22   23 1   
    29   22   33 1   
    30   22   34 1   
@<TRIPOS>SUBSTRUCTURE
     1 RP2         1 TEMP              0 ****  ****    0 ROOT
