@<TRIPOS>MOLECULE
RP2
   35    38     1     0     0
SMALL
bcc


@<TRIPOS>ATOM
      1 P          -0.1000    0.1140    0.0400 p5        1 RP2      1.220200
      2 BR          3.2720   -1.9120    3.8730 br        1 RP2      0.110700
      3 N1          8.6890    1.3110    4.8060 nb        1 RP2     -0.672000
      4 C2          8.1330    2.0910    3.8290 ca        1 RP2      0.679900
      5 N3          6.9470    1.9300    3.1890 nb        1 RP2     -0.608000
      6 C4          6.2400    0.8450    3.5930 ca        1 RP2      0.470800
      7 C5          6.7210   -0.0790    4.6390 ca        1 RP2     -0.138200
      8 C6          7.9750    0.2310    5.2010 ca        1 RP2      0.527200
      9 N6          8.5130   -0.6540    6.2510 n4        1 RP2     -0.816300
     10 N7          5.7890   -1.0940    4.8480 nc        1 RP2     -0.556100
     11 C8          4.7790   -0.8300    3.9840 cd        1 RP2      0.440800
     12 N9          5.0010    0.3180    3.1790 na        1 RP2     -0.228000
     13 C1'         4.1410    0.9950    2.2320 c3        1 RP2      0.220800
     14 S1P        -1.1250    0.2300   -1.4890 s         1 RP2     -0.461000
     15 C2'         3.7450    0.1560    0.9490 c3        1 RP2      0.138100
     16 O2'         4.2380    0.8900   -0.1440 oh        1 RP2     -0.581800
     17 O2P        -0.1810   -1.2400    0.8770 oh        1 RP2     -0.760400
     18 C3'         2.2150    0.1140    1.0520 c3        1 RP2      0.074100
     19 O3'         1.5170    0.1800   -0.1620 os        1 RP2     -0.500200
     20 C4'         1.8970    1.3750    1.8920 c3        1 RP2      0.045100
     21 O4'         2.9090    1.3950    2.9000 os        1 RP2     -0.390600
     22 C5'         0.4620    1.2340    2.3850 c3        1 RP2      0.191400
     23 O5'        -0.3550    1.1560    1.2310 os        1 RP2     -0.532200
     24 HN6         7.8440   -0.6780    7.0320 hn        1 RP2      0.480467
     25 HN6A        8.6100   -1.6010    5.8620 hn        1 RP2      0.480467
     26 H1'         4.6620    1.9460    1.8980 h2        1 RP2      0.146700
     27 H2'         4.1930   -0.8710    0.9400 h1        1 RP2      0.082700
     28 HO2'        3.6380    0.7450   -0.8940 ho        1 RP2      0.455000
     29 HO2P       -0.8040   -1.9170    0.6070 ho        1 RP2      0.516000
     30 H3'         1.9040   -0.8260    1.5940 h1        1 RP2      0.094700
     31 H4'         2.0110    2.3200    1.2840 h1        1 RP2      0.103700
     32 H5'         0.1150    2.1470    2.9410 h1        1 RP2      0.091200
     33 H5'A        0.3180    0.3180    3.0170 h1        1 RP2      0.091200
     34 H63         9.4270   -0.3220    6.5870 hn        1 RP2      0.480467
     35 H2          8.7410    2.9760    3.5230 h5        1 RP2      0.106100
@<TRIPOS>BOND
     1    1   14 2   
     2    1   17 1   
     3    1   19 1   
     4    1   23 1   
     5    2   11 1   
     6    3    4 ar  
     7    3    8 ar  
     8    4    5 ar  
     9    4   35 1   
    10    5    6 ar  
    11    6    7 ar  
    12    6   12 1   
    13    7    8 ar  
    14    7   10 1   
    15    8    9 1   
    16    9   24 1   
    17    9   25 1   
    18    9   34 1   
    19   10   11 2   
    20   11   12 1   
    21   12   13 1   
    22   13   15 1   
    23   13   21 1   
    24   13   26 1   
    25   15   16 1   
    26   15   18 1   
    27   15   27 1   
    28   16   28 1   
    29   17   29 1   
    30   18   19 1   
    31   18   20 1   
    32   18   30 1   
    33   20   21 1   
    34   20   22 1   
    35   20   31 1   
    36   22   23 1   
    37   22   32 1   
    38   22   33 1   
@<TRIPOS>SUBSTRUCTURE
     1 RP2         1 TEMP              0 ****  ****    0 ROOT
