@<TRIPOS>MOLECULE
RP2
   34    37     1     0     0
SMALL
bcc


@<TRIPOS>ATOM
      1 P          -0.0800    0.0890    0.1070 p5        1 RP2      1.242200
      2 Br          3.3060   -1.9700    3.7220 br        1 RP2      0.027700
      3 N1          8.6390    1.3270    4.9140 nb        1 RP2     -0.791000
      4 C2          8.1100    2.0800    3.9160 ca        1 RP2      0.701900
      5 N3          6.9630    1.9180    3.2110 nb        1 RP2     -0.735000
      6 C4          6.2600    0.8140    3.5980 ca        1 RP2      0.484800
      7 C5          6.6940   -0.0890    4.6520 ca        1 RP2     -0.240200
      8 C6          7.9380    0.2100    5.3110 ca        1 RP2      0.773200
      9 N6          8.4070   -0.6030    6.3030 nv        1 RP2     -0.953500
     10 N7          5.7620   -1.1180    4.8180 nc        1 RP2     -0.493100
     11 C8          4.7950   -0.8750    3.9140 cd        1 RP2      0.350800
     12 N9          5.0500    0.2760    3.1070 na        1 RP2     -0.254000
     13 C1'         4.2150    0.9710    2.1710 c3        1 RP2      0.241800
     14 S1P        -1.1750    0.1730   -1.3860 s         1 RP2     -0.515000
     15 C2'         3.7800    0.1410    0.8960 c3        1 RP2      0.132100
     16 O2'         4.2150    0.8950   -0.2110 oh        1 RP2     -0.580800
     17 O2P        -0.1740   -1.2580    0.9560 oh        1 RP2     -0.756400
     18 C3'         2.2530    0.0970    1.0400 c3        1 RP2      0.060100
     19 O3'         1.5180    0.1280   -0.1590 os        1 RP2     -0.504200
     20 C4'         1.9600    1.3800    1.8520 c3        1 RP2      0.051100
     21 O4'         2.9870    1.4240    2.8360 os        1 RP2     -0.394600
     22 C5'         0.5430    1.2650    2.3970 c3        1 RP2      0.183400
     23 O5'        -0.3220    1.1520    1.2780 os        1 RP2     -0.540200
     24 HN6         7.8730   -1.3910    6.5740 hn        1 RP2      0.454300
     25 HN6A        9.2600   -0.4010    6.7630 hn        1 RP2      0.454300
     26 H1'         4.7550    1.9060    1.8250 h2        1 RP2      0.142700
     27 H2'         4.2290   -0.8850    0.8620 h1        1 RP2      0.084700
     28 HO2'        3.6900    0.6080   -0.9740 ho        1 RP2      0.437000
     29 HO2P       -0.8040   -1.9270    0.6880 ho        1 RP2      0.509000
     30 H3'         1.9570   -0.8290    1.6140 h1        1 RP2      0.097700
     31 H4'         2.0640    2.3040    1.2110 h1        1 RP2      0.093700
     32 H5'         0.2220    2.1970    2.9350 h1        1 RP2      0.088700
     33 H5'A        0.4170    0.3710    3.0630 h1        1 RP2      0.088700
     34 H2          8.7150    2.9710    3.6350 h5        1 RP2      0.059100
@<TRIPOS>BOND
     1    1   14 2   
     2    1   17 1   
     3    1   19 1   
     4    1   23 1   
     5    2   11 1   
     6    3    4 ar  
     7    3    8 ar  
     8    4    5 ar  
     9    4   34 1   
    10    5    6 ar  
    11    6    7 ar  
    12    6   12 1   
    13    7    8 ar  
    14    7   10 1   
    15    8    9 1   
    16    9   24 1   
    17    9   25 1   
    18   10   11 2   
    19   11   12 1   
    20   12   13 1   
    21   13   15 1   
    22   13   21 1   
    23   13   26 1   
    24   15   16 1   
    25   15   18 1   
    26   15   27 1   
    27   16   28 1   
    28   17   29 1   
    29   18   19 1   
    30   18   20 1   
    31   18   30 1   
    32   20   21 1   
    33   20   22 1   
    34   20   31 1   
    35   22   23 1   
    36   22   32 1   
    37   22   33 1   
@<TRIPOS>SUBSTRUCTURE
     1 RP2         1 TEMP              0 ****  ****    0 ROOT
