@<TRIPOS>MOLECULE
RP2
   34    37     1     0     0
SMALL
bcc


@<TRIPOS>ATOM
      1 P          -4.1880   -0.1100   -0.0020 p5        1 RP2      1.242200
      2 BR          0.5960    2.0450    1.1090 br        1 RP2      0.027700
      3 N1          5.7540   -1.3950   -0.4030 nb        1 RP2     -0.791000
      4 C2          4.7740   -2.2770   -0.7280 ca        1 RP2      0.701900
      5 N3          3.4260   -2.1590   -0.6420 nb        1 RP2     -0.735000
      6 C4          3.0360   -0.9480   -0.1480 ca        1 RP2      0.484800
      7 C5          3.9650    0.1010    0.2430 ca        1 RP2     -0.240200
      8 C6          5.3700   -0.1710    0.0980 ca        1 RP2      0.773200
      9 N6          6.2960    0.7670    0.4550 nh        1 RP2     -0.953500
     10 N7          3.2620    1.2190    0.7040 nc        1 RP2     -0.493100
     11 C8          1.9620    0.8880    0.6100 cd        1 RP2      0.350800
     12 N9          1.7470   -0.4390    0.1270 na        1 RP2     -0.254000
     13 C1'         0.5460   -1.1080   -0.2800 c3        1 RP2      0.241800
     14 S1P        -5.9250   -0.6990    0.2680 s         1 RP2     -0.515000
     15 C2'        -0.5370   -1.3180    0.8550 c3        1 RP2      0.132100
     16 O2'        -0.7750   -2.7060    0.8970 oh        1 RP2     -0.580800
     17 O2P        -3.8200    1.2860    0.6750 oh        1 RP2     -0.756400
     18 C3'        -1.7290   -0.5130    0.3220 c3        1 RP2      0.060100
     19 O3'        -3.0040   -1.0290    0.6160 os        1 RP2     -0.504200
     20 C4'        -1.5010   -0.5560   -1.2070 c3        1 RP2      0.051100
     21 O4'        -0.1000   -0.3610   -1.3660 os        1 RP2     -0.395600
     22 C5'        -2.3800    0.5170   -1.8330 c3        1 RP2      0.183400
     23 O5'        -3.7220    0.1960   -1.5010 os        1 RP2     -0.540200
     24 HN6         7.2640    0.5890    0.3530 hn        1 RP2      0.454300
     25 HN6A        5.9880    1.6430    0.7980 hn        1 RP2      0.454300
     26 H1'         0.8200   -2.1220   -0.7080 h2        1 RP2      0.142700
     27 H2'        -0.2000   -0.9560    1.8590 h1        1 RP2      0.084700
     28 HO2'       -1.6380   -2.8340    1.3170 ho        1 RP2      0.437000
     29 HO2P       -4.5050    1.7640    1.1430 ho        1 RP2      0.509000
     30 H3'        -1.6740    0.5430    0.7160 h1        1 RP2      0.097700
     31 H4'        -1.7530   -1.5720   -1.6310 h1        1 RP2      0.093700
     32 H5'        -2.1330    1.5430   -1.4530 h1        1 RP2      0.088700
     33 H5'A       -2.3340    0.4990   -2.9550 h1        1 RP2      0.088700
     34 H2          5.1380   -3.2490   -1.1290 h5        1 RP2      0.059100
@<TRIPOS>BOND
     1    1   14 2   
     2    1   17 1   
     3    1   19 1   
     4    1   23 1   
     5    2   11 1   
     6    3    4 ar  
     7    3    8 ar  
     8    4    5 ar  
     9    4   34 1   
    10    5    6 ar  
    11    6    7 ar  
    12    6   12 1   
    13    7    8 ar  
    14    7   10 1   
    15    8    9 1   
    16    9   24 1   
    17    9   25 1   
    18   10   11 2   
    19   11   12 1   
    20   12   13 1   
    21   13   15 1   
    22   13   21 1   
    23   13   26 1   
    24   15   16 1   
    25   15   18 1   
    26   15   27 1   
    27   16   28 1   
    28   17   29 1   
    29   18   19 1   
    30   18   20 1   
    31   18   30 1   
    32   20   21 1   
    33   20   22 1   
    34   20   31 1   
    35   22   23 1   
    36   22   32 1   
    37   22   33 1   
@<TRIPOS>SUBSTRUCTURE
     1 RP2         1 TEMP              0 ****  ****    0 ROOT
