@<TRIPOS>MOLECULE
RP3
   22    22     1     0     0
SMALL
bcc


@<TRIPOS>ATOM
      1 O3X         2.9330    0.2420    1.1580 o         1 RP3     -0.932833
      2 P'          3.6680    0.5860   -0.1030 p5        1 RP3      1.330900
      3 O1X         4.5760    1.8000   -0.0060 o         1 RP3     -0.932833
      4 O2X         4.1960   -0.5330   -0.9490 o         1 RP3     -0.932833
      5 O5'         2.4170    1.2310   -1.1260 os        1 RP3     -0.568200
      6 C5'         2.1080    2.5440   -0.8970 c3        1 RP3      0.222400
      7 C4'         2.6270    3.4900   -2.0120 c3        1 RP3      0.109100
      8 O1'         2.9820    4.7600   -1.4180 os        1 RP3     -0.480600
      9 C3'         3.8690    2.9650   -2.7350 c3        1 RP3     -0.093400
     10 C2'         5.0430    3.7340   -2.1290 c3        1 RP3      0.069100
     11 O2'         5.8240    4.3160   -3.1690 oh        1 RP3     -0.628800
     12 C1'         4.3950    4.8390   -1.2560 c3        1 RP3      0.327900
     13 O1          4.6450    4.6900    0.1070 oh        1 RP3     -0.679800
     14 H3          0.9830    2.6670   -0.8740 h1        1 RP3     -0.007300
     15 H4          2.5280    2.8990    0.0860 h1        1 RP3     -0.007300
     16 H5          1.8070    3.7360   -2.7370 h1        1 RP3      0.008700
     17 H6          3.9890    1.8670   -2.5010 hc        1 RP3      0.074700
     18 H7          3.8060    3.1250   -3.8360 hc        1 RP3      0.074700
     19 H8          5.6560    3.0450   -1.4780 h1        1 RP3      0.139700
     20 H9          6.6680    4.5370   -2.7630 ho        1 RP3      0.373000
     21 H10         4.7070    5.8800   -1.5390 h2        1 RP3      0.032700
     22 H11         4.5120    3.7400    0.3410 ho        1 RP3      0.502000
@<TRIPOS>BOND
     1    1    2 1   
     2    2    3 1   
     3    2    4 1   
     4    2    5 1   
     5    5    6 1   
     6    6    7 1   
     7    6   14 1   
     8    6   15 1   
     9    7    8 1   
    10    7    9 1   
    11    7   16 1   
    12    8   12 1   
    13    9   10 1   
    14    9   17 1   
    15    9   18 1   
    16   10   11 1   
    17   10   12 1   
    18   10   19 1   
    19   11   20 1   
    20   12   13 1   
    21   12   21 1   
    22   13   22 1   
@<TRIPOS>SUBSTRUCTURE
     1 RP3         1 TEMP              0 ****  ****    0 ROOT
