@<TRIPOS>MOLECULE
RP4
   42    44     1     0     0
SMALL
bcc


@<TRIPOS>ATOM
      1 O3         -0.6970    0.2480    1.3690 o         1 RP4     -0.813800
      2 C2          0.3580    0.1680    0.6940 c         1 RP4      0.906600
      3 O1          0.4360    0.0920   -0.5630 o         1 RP4     -0.813800
      4 C4          1.7440    0.1570    1.4520 c3        1 RP4      0.039000
      5 O5          2.7790    0.5950    0.5750 oh        1 RP4     -0.629800
      6 C12         1.6990    1.1150    2.6370 c3        1 RP4     -0.096400
      7 C10         2.6760    0.7130    3.7260 c3        1 RP4      0.103100
      8 O11         2.6470    1.6060    4.8330 oh        1 RP4     -0.625800
      9 C8          2.3750   -0.7120    4.2340 c3        1 RP4      0.171300
     10 O9          3.3590   -1.1030    5.1890 oh        1 RP4     -0.614800
     11 C7          2.3280   -1.6810    3.0920 ce        1 RP4     -0.126400
     12 C6          2.0330   -1.2570    1.8490 c2        1 RP4     -0.077200
     13 C13         2.5270   -3.1070    3.3540 ca        1 RP4     -0.007800
     14 C25         3.6880   -3.5860    3.9740 ca        1 RP4     -0.095000
     15 C24         3.8730   -4.9570    4.1480 ca        1 RP4     -0.144000
     16 C23         2.9180   -5.8610    3.6940 ca        1 RP4     -0.121000
     17 C15         1.7430   -5.3950    3.0900 ca        1 RP4     -0.037100
     18 C14         1.5490   -4.0220    2.9350 ca        1 RP4     -0.111000
     19 S16         0.6070   -6.6010    2.6970 ss        1 RP4     -0.138800
     20 C17        -0.2400   -6.1400    1.3000 ca        1 RP4     -0.012100
     21 C22         0.1500   -5.1710    0.3710 ca        1 RP4     -0.125500
     22 C21        -0.6360   -4.9120   -0.7520 ca        1 RP4     -0.115500
     23 C20        -1.8070   -5.6360   -0.9700 ca        1 RP4     -0.139000
     24 C19        -2.1940   -6.6170   -0.0560 ca        1 RP4     -0.115500
     25 C18        -1.4230   -6.8630    1.0750 ca        1 RP4     -0.125500
     26 H5          2.4280    0.5260   -0.3290 ho        1 RP4      0.429000
     27 H121        1.9430    2.1490    2.2840 hc        1 RP4      0.068200
     28 H122        0.6500    1.1180    3.0420 hc        1 RP4      0.068200
     29 H10         3.7370    0.7670    3.3530 h1        1 RP4      0.088700
     30 H11         1.7200    1.7770    5.0370 ho        1 RP4      0.397000
     31 H8          1.3710   -0.7160    4.7550 h1        1 RP4      0.040700
     32 H9          3.5480   -0.3140    5.7140 ho        1 RP4      0.406000
     33 H6          1.9750   -1.9720    1.0100 ha        1 RP4      0.129000
     34 H25         4.4470   -2.8710    4.3290 ha        1 RP4      0.155000
     35 H24         4.7860   -5.3270    4.6370 ha        1 RP4      0.120000
     36 H23         3.0800   -6.9430    3.8090 ha        1 RP4      0.127000
     37 H14         0.6190   -3.6380    2.4820 ha        1 RP4      0.158000
     38 H22         1.0790   -4.5980    0.5230 ha        1 RP4      0.140000
     39 H21        -0.3320   -4.1220   -1.4560 ha        1 RP4      0.135000
     40 H20        -2.4280   -5.4270   -1.8530 ha        1 RP4      0.127000
     41 H19        -3.1180   -7.1890   -0.2230 ha        1 RP4      0.135000
     42 H18        -1.7410   -7.6230    1.8050 ha        1 RP4      0.140000
@<TRIPOS>BOND
     1    1    2 1   
     2    2    3 1   
     3    2    4 1   
     4    4    5 1   
     5    4    6 1   
     6    4   12 1   
     7    5   26 1   
     8    6    7 1   
     9    6   27 1   
    10    6   28 1   
    11    7    8 1   
    12    7    9 1   
    13    7   29 1   
    14    8   30 1   
    15    9   10 1   
    16    9   11 1   
    17    9   31 1   
    18   10   32 1   
    19   11   12 2   
    20   11   13 1   
    21   12   33 1   
    22   13   14 ar  
    23   13   18 ar  
    24   14   15 ar  
    25   14   34 1   
    26   15   16 ar  
    27   15   35 1   
    28   16   17 ar  
    29   16   36 1   
    30   17   18 ar  
    31   17   19 1   
    32   18   37 1   
    33   19   20 1   
    34   20   21 ar  
    35   20   25 ar  
    36   21   22 ar  
    37   21   38 1   
    38   22   23 ar  
    39   22   39 1   
    40   23   24 ar  
    41   23   40 1   
    42   24   25 ar  
    43   24   41 1   
    44   25   42 1   
@<TRIPOS>SUBSTRUCTURE
     1 RP4         1 TEMP              0 ****  ****    0 ROOT
