@<TRIPOS>MOLECULE
RP4
   42    44     1     0     0
SMALL
bcc


@<TRIPOS>ATOM
      1 O3         -0.6830    0.2520    1.3490 o         1 RP4     -0.813800
      2 C2          0.3770    0.1640    0.6810 c         1 RP4      0.906600
      3 O1          0.4620    0.0820   -0.5750 o         1 RP4     -0.813800
      4 C4          1.7580    0.1520    1.4480 c3        1 RP4      0.039000
      5 O5          2.8000    0.5810    0.5750 oh        1 RP4     -0.629800
      6 C12         1.7080    1.1160    2.6280 c3        1 RP4     -0.096400
      7 C10         2.6770    0.7160    3.7250 c3        1 RP4      0.103100
      8 O11         2.6440    1.6150    4.8280 oh        1 RP4     -0.625800
      9 C8          2.3670   -0.7060    4.2390 c3        1 RP4      0.171300
     10 O9          3.3430   -1.0950    5.2010 oh        1 RP4     -0.614800
     11 C7          2.3230   -1.6800    3.1010 ce        1 RP4     -0.126400
     12 C6          2.0380   -1.2620    1.8540 c2        1 RP4     -0.077200
     13 C13         2.5160   -3.1060    3.3720 ca        1 RP4     -0.007800
     14 C25         3.6710   -3.5860    4.0020 ca        1 RP4     -0.095000
     15 C24         3.8500   -4.9570    4.1840 ca        1 RP4     -0.144000
     16 C23         2.8940   -5.8600    3.7280 ca        1 RP4     -0.121000
     17 C15         1.7250   -5.3920    3.1140 ca        1 RP4     -0.037100
     18 C14         1.5370   -4.0190    2.9500 ca        1 RP4     -0.111000
     19 S16         0.5870   -6.5960    2.7200 ss        1 RP4     -0.138800
     20 C17        -0.2500   -6.1390    1.3150 ca        1 RP4     -0.012100
     21 C22         0.1500   -5.1770    0.3840 ca        1 RP4     -0.125000
     22 C21        -0.6270   -4.9200   -0.7460 ca        1 RP4     -0.115500
     23 C20        -1.8000   -5.6400   -0.9680 ca        1 RP4     -0.139000
     24 C19        -2.1970   -6.6150   -0.0510 ca        1 RP4     -0.115500
     25 C18        -1.4340   -6.8580    1.0860 ca        1 RP4     -0.125000
     26 H5          2.4540    0.5090   -0.3300 ho        1 RP4      0.429000
     27 H121        1.9590    2.1470    2.2720 hc        1 RP4      0.068200
     28 H122        0.6570    1.1250    3.0260 hc        1 RP4      0.068200
     29 H10         3.7400    0.7630    3.3590 h1        1 RP4      0.088700
     30 H11         1.7160    1.7900    5.0240 ho        1 RP4      0.397000
     31 H8          1.3600   -0.7040    4.7530 h1        1 RP4      0.040700
     32 H9          3.5320   -0.3050    5.7240 ho        1 RP4      0.406000
     33 H6          1.9830   -1.9800    1.0180 ha        1 RP4      0.129000
     34 H25         4.4300   -2.8720    4.3580 ha        1 RP4      0.155000
     35 H24         4.7580   -5.3280    4.6800 ha        1 RP4      0.120000
     36 H23         3.0510   -6.9420    3.8500 ha        1 RP4      0.127000
     37 H14         0.6120   -3.6340    2.4890 ha        1 RP4      0.158000
     38 H22         1.0800   -4.6060    0.5390 ha        1 RP4      0.140000
     39 H21        -0.3150   -4.1350   -1.4520 ha        1 RP4      0.135000
     40 H20        -2.4140   -5.4340   -1.8550 ha        1 RP4      0.127000
     41 H19        -3.1220   -7.1850   -0.2200 ha        1 RP4      0.135000
     42 H18        -1.7590   -7.6130    1.8180 ha        1 RP4      0.140000
@<TRIPOS>BOND
     1    1    2 1   
     2    2    3 1   
     3    2    4 1   
     4    4    5 1   
     5    4    6 1   
     6    4   12 1   
     7    5   26 1   
     8    6    7 1   
     9    6   27 1   
    10    6   28 1   
    11    7    8 1   
    12    7    9 1   
    13    7   29 1   
    14    8   30 1   
    15    9   10 1   
    16    9   11 1   
    17    9   31 1   
    18   10   32 1   
    19   11   12 2   
    20   11   13 1   
    21   12   33 1   
    22   13   14 ar  
    23   13   18 ar  
    24   14   15 ar  
    25   14   34 1   
    26   15   16 ar  
    27   15   35 1   
    28   16   17 ar  
    29   16   36 1   
    30   17   18 ar  
    31   17   19 1   
    32   18   37 1   
    33   19   20 1   
    34   20   21 ar  
    35   20   25 ar  
    36   21   22 ar  
    37   21   38 1   
    38   22   23 ar  
    39   22   39 1   
    40   23   24 ar  
    41   23   40 1   
    42   24   25 ar  
    43   24   41 1   
    44   25   42 1   
@<TRIPOS>SUBSTRUCTURE
     1 RP4         1 TEMP              0 ****  ****    0 ROOT
