@<TRIPOS>MOLECULE
RP4
   42    39     1     0     0
SMALL
bcc


@<TRIPOS>ATOM
      1 O3         -2.7070    5.4060    1.8630 o         1 RP4     -0.536000
      2 C2         -3.1420    4.2760    1.8170 c1        1 RP4      0.326000
      3 O1         -3.8260    3.8110    2.8010 os        1 RP4     -0.558000
      4 C4         -2.7730    3.3410    0.6120 c3        1 RP4      0.012000
      5 O5         -4.0140    2.6220    0.4350 oh        1 RP4     -0.357000
      6 C12        -2.4140    4.2300   -0.7300 c3        1 RP4     -0.176000
      7 C10        -2.0120    3.5590   -1.7440 c3        1 RP4     -0.008000
      8 O11        -1.6860    4.5440   -2.8660 oh        1 RP4     -0.352000
      9 C8         -0.6900    2.6270   -1.4930 c3        1 RP4      0.055000
     10 O9         -0.3810    1.8610   -2.6680 oh        1 RP4     -0.343000
     11 C7         -0.8270    1.7740   -0.3110 c2        1 RP4     -0.136000
     12 C6         -1.7000    2.4300    0.9730 c2        1 RP4     -0.069000
     13 C13         0.1860    0.6420   -0.0550 c2        1 RP4     -0.006000
     14 C25         1.4930    0.9470    0.3190 c2        1 RP4     -0.101000
     15 C24         2.4090   -0.0560    0.4870 c1        1 RP4     -0.151000
     16 C23         2.0270   -1.4110    0.2810 c1        1 RP4     -0.111000
     17 C15         0.7350   -1.7120   -0.0880 c1        1 RP4     -0.296000
     18 C14        -0.1920   -0.6950   -0.2590 c1        1 RP4     -0.054000
     19 S16         0.2470   -3.4250   -0.3580 ss        1 RP4      0.340000
     20 C17         1.5310   -4.5190    0.2530 c2        1 RP4     -0.233000
     21 C22         1.7680   -4.6220    1.6400 c2        1 RP4     -0.137000
     22 C21         2.7000   -5.5500    2.1250 c1        1 RP4     -0.115000
     23 C20         3.3870   -6.3620    1.2420 c1        1 RP4     -0.137000
     24 C19         3.1510   -6.2580   -0.1320 c1        1 RP4     -0.137000
     25 C18         2.2130   -5.3250   -0.6190 c1        1 RP4     -0.133000
     26 H5         -4.6980    3.1540    0.6400 ho        1 RP4      0.229000
     27 H121       -3.2370    4.7380   -0.9990 hc        1 RP4      0.107000
     28 H122       -1.7510    4.8490   -0.5040 hc        1 RP4      0.107000
     29 H10        -2.7360    2.9900   -2.0380 h1        1 RP4      0.128000
     30 H11        -2.2400    4.4200   -3.5350 ho        1 RP4      0.196000
     31 H8          0.1010    3.1700   -1.4180 h1        1 RP4      0.081000
     32 H9          0.1530    2.3350   -3.1980 ho        1 RP4      0.207000
     33 H6         -1.7010    1.9820    1.8530 ha        1 RP4      0.131000
     34 H25         1.7620    1.8790    0.4430 ha        1 RP4      0.153000
     35 H24         3.3720    0.1700    0.7620 ha        1 RP4      0.125000
     36 H23         2.6980   -2.1450    0.4040 ha        1 RP4      0.127000
     37 H14        -1.0700   -0.9020   -0.4480 ha        1 RP4      0.168000
     38 H22         1.2900   -4.0580    2.2520 ha        1 RP4      0.148000
     39 H21         2.8580   -5.6190    3.0470 ha        1 RP4      0.127000
     40 H20         4.0330   -7.0110    1.5780 ha        1 RP4      0.122000
     41 H19         3.6390   -6.8370   -0.7580 ha        1 RP4      0.122000
     42 H18         2.0450   -5.2500   -1.6040 ha        1 RP4      0.135000
@<TRIPOS>BOND
     1    1    2 1   
     2    2    4 1   
     3    4    5 1   
     4    4    6 1   
     5    4   12 1   
     6    5   26 1   
     7    6    7 1   
     8    6   27 1   
     9    6   28 1   
    10    7    8 1   
    11    7    9 1   
    12    7   29 1   
    13    8   30 1   
    14    9   10 1   
    15    9   11 1   
    16    9   31 1   
    17   10   32 1   
    18   11   12 1   
    19   11   13 1   
    20   12   33 1   
    21   13   14 1   
    22   13   18 1   
    23   14   15 1   
    24   14   34 1   
    25   15   35 1   
    26   16   17 1   
    27   16   36 1   
    28   17   19 1   
    29   18   37 1   
    30   19   20 1   
    31   20   21 1   
    32   20   25 1   
    33   21   22 1   
    34   21   38 1   
    35   22   39 1   
    36   23   24 1   
    37   23   40 1   
    38   24   41 1   
    39   25   42 1   
@<TRIPOS>SUBSTRUCTURE
     1 RP4         1 TEMP              0 ****  ****    0 ROOT
