@<TRIPOS>MOLECULE
RP4
   42    44     1     0     0
SMALL
bcc


@<TRIPOS>ATOM
      1 O3         -2.2820   -2.5990    0.8680 o         1 RP4     -0.813300
      2 C2         -2.5590   -2.3150   -0.3220 c         1 RP4      0.905600
      3 O1         -2.5490   -3.1150   -1.2990 o         1 RP4     -0.813300
      4 C4         -2.9460   -0.8260   -0.6790 c3        1 RP4      0.034000
      5 O5         -3.5850   -0.7750   -1.9520 oh        1 RP4     -0.630800
      6 C12        -3.9170   -0.2700    0.3600 c3        1 RP4     -0.066400
      7 C10        -3.8160    1.2440    0.4610 c3        1 RP4      0.152100
      8 O11        -4.7520    1.6810    1.4390 oh        1 RP4     -0.610800
      9 C8         -2.3860    1.6460    0.8770 c3        1 RP4      0.159300
     10 O9         -2.3850    3.0700    0.9310 oh        1 RP4     -0.626800
     11 C7         -1.3870    1.0690   -0.0800 ce        1 RP4     -0.177400
     12 C6         -1.6680   -0.0490   -0.7730 c2        1 RP4     -0.052200
     13 C13        -0.0760    1.7100   -0.2000 ca        1 RP4     -0.015800
     14 C25         0.0610    2.9840   -0.7650 ca        1 RP4     -0.133000
     15 C24         1.3270    3.5490   -0.9150 ca        1 RP4     -0.133000
     16 C23         2.4620    2.8480   -0.5210 ca        1 RP4     -0.129000
     17 C15         2.3380    1.5750    0.0550 ca        1 RP4     -0.024100
     18 C14         1.0700    1.0200    0.2230 ca        1 RP4     -0.116000
     19 S16         3.8050    0.8790    0.5620 ss        1 RP4     -0.136800
     20 C17         3.6230   -0.8100    0.6380 ca        1 RP4     -0.023100
     21 C22         2.7600   -1.5760   -0.1510 ca        1 RP4     -0.116000
     22 C21         2.7370   -2.9650   -0.0270 ca        1 RP4     -0.119000
     23 C20         3.5970   -3.6020    0.8660 ca        1 RP4     -0.130000
     24 C19         4.4750   -2.8450    1.6430 ca        1 RP4     -0.119000
     25 C18         4.4810   -1.4570    1.5390 ca        1 RP4     -0.116000
     26 H5         -3.4450   -1.6400   -2.3740 ho        1 RP4      0.429000
     27 H121       -3.6830   -0.7350    1.3540 hc        1 RP4      0.072200
     28 H122       -4.9630   -0.5490    0.0770 hc        1 RP4      0.072200
     29 H10        -4.0610    1.7250   -0.5270 h1        1 RP4      0.048700
     30 H11        -4.5900    2.6250    1.5610 ho        1 RP4      0.400000
     31 H8         -2.1740    1.2510    1.9140 h1        1 RP4      0.053700
     32 H9         -1.4860    3.3420    1.1460 ho        1 RP4      0.402000
     33 H6         -0.9340   -0.4820   -1.4730 ha        1 RP4      0.126000
     34 H25        -0.8370    3.5280   -1.0980 ha        1 RP4      0.146000
     35 H24         1.4310    4.5490   -1.3610 ha        1 RP4      0.122000
     36 H23         3.4610    3.2870   -0.6630 ha        1 RP4      0.130000
     37 H14         0.9480    0.0290    0.6920 ha        1 RP4      0.163000
     38 H22         2.0850   -1.0870   -0.8720 ha        1 RP4      0.141500
     39 H21         2.0260   -3.5520   -0.6290 ha        1 RP4      0.137500
     40 H20         3.5750   -4.6970    0.9670 ha        1 RP4      0.129000
     41 H19         5.1540   -3.3420    2.3500 ha        1 RP4      0.137500
     42 H18         5.1560   -0.8590    2.1700 ha        1 RP4      0.141500
@<TRIPOS>BOND
     1    1    2 1   
     2    2    3 1   
     3    2    4 1   
     4    4    5 1   
     5    4    6 1   
     6    4   12 1   
     7    5   26 1   
     8    6    7 1   
     9    6   27 1   
    10    6   28 1   
    11    7    8 1   
    12    7    9 1   
    13    7   29 1   
    14    8   30 1   
    15    9   10 1   
    16    9   11 1   
    17    9   31 1   
    18   10   32 1   
    19   11   12 2   
    20   11   13 1   
    21   12   33 1   
    22   13   14 ar  
    23   13   18 ar  
    24   14   15 ar  
    25   14   34 1   
    26   15   16 ar  
    27   15   35 1   
    28   16   17 ar  
    29   16   36 1   
    30   17   18 ar  
    31   17   19 1   
    32   18   37 1   
    33   19   20 1   
    34   20   21 ar  
    35   20   25 ar  
    36   21   22 ar  
    37   21   38 1   
    38   22   23 ar  
    39   22   39 1   
    40   23   24 ar  
    41   23   40 1   
    42   24   25 ar  
    43   24   41 1   
    44   25   42 1   
@<TRIPOS>SUBSTRUCTURE
     1 RP4         1 TEMP              0 ****  ****    0 ROOT
