@<TRIPOS>MOLECULE
RP5
   23    23     1     0     0
SMALL
bcc


@<TRIPOS>ATOM
      1 C1'        -0.2650   -0.3750    0.0560 c3        1 RP5      0.307900
      2 O1'         0.5460    0.7820    0.0890 os        1 RP5     -0.469600
      3 C2'         0.0430   -1.2500    1.2980 c3        1 RP5      0.085100
      4 O2'        -1.0760   -1.2520    2.1640 oh        1 RP5     -0.630800
      5 C3'         1.3350   -0.6460    1.8810 c3        1 RP5      0.091100
      6 O3'         1.1570   -0.3440    3.2470 oh        1 RP5     -0.681800
      7 C4'         1.6080    0.6330    1.0620 c3        1 RP5      0.060100
      8 C5'         2.9720    0.5550    0.3330 c3        1 RP5      0.211400
      9 O5'         4.0140    0.7810    1.1890 os        1 RP5     -0.565200
     10 P'          4.7990   -0.6260    1.8460 p5        1 RP5      1.329900
     11 O1X         3.8770   -0.8790    3.0230 o         1 RP5     -0.929167
     12 O2X         4.6190   -1.6300    0.7390 o         1 RP5     -0.929167
     13 O3X         6.1850   -0.1450    2.1430 o         1 RP5     -0.929167
     14 O1          0.0650   -1.0240   -1.1510 oh        1 RP5     -0.652800
     15 H1'        -1.3390   -0.0700   -0.0250 h2        1 RP5      0.065700
     16 H2'         0.1960   -2.3180    0.9890 h1        1 RP5      0.067700
     17 HA         -0.8680   -0.6780    2.9130 ho        1 RP5      0.423000
     18 H3'         2.2280   -1.3450    1.7690 h1        1 RP5      0.156700
     19 HB          2.0570   -0.4260    3.6400 ho        1 RP5      0.499000
     20 H4'         1.5600    1.5450    1.7100 h1        1 RP5      0.060700
     21 H5'1        2.9610    1.3590   -0.4620 h1        1 RP5      0.001700
     22 H5'2        3.0640   -0.4510   -0.1690 h1        1 RP5      0.001700
     23 H1          1.0310   -1.0820   -1.1880 ho        1 RP5      0.428000
@<TRIPOS>BOND
     1    1    2 1   
     2    1    3 1   
     3    1   14 1   
     4    1   15 1   
     5    2    7 1   
     6    3    4 1   
     7    3    5 1   
     8    3   16 1   
     9    4   17 1   
    10    5    6 1   
    11    5    7 1   
    12    5   18 1   
    13    6   19 1   
    14    7    8 1   
    15    7   20 1   
    16    8    9 1   
    17    8   21 1   
    18    8   22 1   
    19    9   10 1   
    20   10   11 1   
    21   10   12 1   
    22   10   13 1   
    23   14   23 1   
@<TRIPOS>SUBSTRUCTURE
     1 RP5         1 TEMP              0 ****  ****    0 ROOT
