@<TRIPOS>MOLECULE
RP5
   23    23     1     0     0
SMALL
bcc


@<TRIPOS>ATOM
      1 C1'        -0.3330   -0.4320    0.0040 c3        1 RP5      0.306900
      2 O1'         0.7380    0.4560   -0.2270 os        1 RP5     -0.467600
      3 C2'        -0.1790   -1.0750    1.4040 c3        1 RP5      0.079100
      4 O2'        -1.2290   -0.6380    2.2450 oh        1 RP5     -0.627800
      5 C3'         1.2430   -0.6720    1.8570 c3        1 RP5      0.126100
      6 O3'         1.1850   -0.1430    3.1600 oh        1 RP5     -0.686800
      7 C4'         1.7120    0.3950    0.8450 c3        1 RP5      0.060100
      8 C5'         3.1120    0.1050    0.2510 c3        1 RP5      0.229400
      9 O5'         4.0850    0.7440    0.9690 os        1 RP5     -0.561200
     10 P'          4.9870   -0.3010    2.0300 p5        1 RP5      1.334900
     11 O1X         3.8480   -0.7180    2.9430 o         1 RP5     -0.932167
     12 O2X         5.4430   -1.3790    1.0890 o         1 RP5     -0.932167
     13 O3X         6.0220    0.6080    2.6190 o         1 RP5     -0.932167
     14 O1         -0.2440   -1.3860   -1.0340 oh        1 RP5     -0.652800
     15 H1'        -1.3080    0.1030   -0.1350 h2        1 RP5      0.064700
     16 H2'        -0.2890   -2.1890    1.3320 h1        1 RP5      0.058700
     17 HA         -0.8700    0.0370    2.8360 ho        1 RP5      0.427000
     18 H3'         1.9270   -1.5650    1.8410 h1        1 RP5      0.108700
     19 HB          2.1200   -0.1510    3.4820 ho        1 RP5      0.513000
     20 H4'         1.7120    1.4100    1.3230 h1        1 RP5      0.066700
     21 H5'1        3.1010    0.5000   -0.8090 h1        1 RP5     -0.001300
     22 H5'2        3.2900   -1.0070    0.2200 h1        1 RP5     -0.001300
     23 H1          0.6930   -1.5890   -1.1550 ho        1 RP5      0.420000
@<TRIPOS>BOND
     1    1    2 1   
     2    1    3 1   
     3    1   14 1   
     4    1   15 1   
     5    2    7 1   
     6    3    4 1   
     7    3    5 1   
     8    3   16 1   
     9    4   17 1   
    10    5    6 1   
    11    5    7 1   
    12    5   18 1   
    13    6   19 1   
    14    7    8 1   
    15    7   20 1   
    16    8    9 1   
    17    8   21 1   
    18    8   22 1   
    19    9   10 1   
    20   10   11 1   
    21   10   12 1   
    22   10   13 1   
    23   14   23 1   
@<TRIPOS>SUBSTRUCTURE
     1 RP5         1 TEMP              0 ****  ****    0 ROOT
