@<TRIPOS>MOLECULE
RP5
   23    23     1     0     0
SMALL
bcc


@<TRIPOS>ATOM
      1 C1'         2.9960   -1.0980   -0.0160 c3        1 RP5      0.307900
      2 O1'         1.9980   -1.3120    0.9620 os        1 RP5     -0.469600
      3 C2'         2.8600    0.3400   -0.5770 c3        1 RP5      0.085100
      4 O2'         3.9740    1.1130   -0.1720 oh        1 RP5     -0.630800
      5 C3'         1.4910    0.8250   -0.0620 c3        1 RP5      0.091100
      6 O3'         1.6330    2.0570    0.6080 oh        1 RP5     -0.681800
      7 C4'         0.9910   -0.2740    0.9000 c3        1 RP5      0.060100
      8 C5'        -0.3490   -0.8800    0.4140 c3        1 RP5      0.211400
      9 O5'        -1.4030   -0.0510    0.6810 os        1 RP5     -0.565200
     10 P'         -1.9250    0.9840   -0.6170 p5        1 RP5      1.329900
     11 O1X        -0.9580    2.1330   -0.4030 o         1 RP5     -0.929167
     12 O2X        -1.5890    0.1590   -1.8290 o         1 RP5     -0.929167
     13 O3X        -3.3690    1.2290   -0.3080 o         1 RP5     -0.929167
     14 O1          2.7670   -2.0810   -1.0000 oh        1 RP5     -0.652800
     15 H1'         4.0000   -1.3150    0.4290 h2        1 RP5      0.065700
     16 H2'         2.8890    0.3210   -1.6990 h1        1 RP5      0.067700
     17 HA          3.6810    1.7030    0.5340 ho        1 RP5      0.423000
     18 H3'         0.7300    0.9440   -0.9020 h1        1 RP5      0.156700
     19 HB          0.7660    2.5090    0.4850 ho        1 RP5      0.499000
     20 H4'         0.8900    0.1180    1.9430 h1        1 RP5      0.060700
     21 H5'1       -0.2730   -1.1050   -0.6890 h1        1 RP5      0.001700
     22 H5'2       -0.4870   -1.8520    0.9750 h1        1 RP5      0.001700
     23 H1          1.8250   -2.0470   -1.2220 ho        1 RP5      0.428000
@<TRIPOS>BOND
     1    1    2 1   
     2    1    3 1   
     3    1   14 1   
     4    1   15 1   
     5    2    7 1   
     6    3    4 1   
     7    3    5 1   
     8    3   16 1   
     9    4   17 1   
    10    5    6 1   
    11    5    7 1   
    12    5   18 1   
    13    6   19 1   
    14    7    8 1   
    15    7   20 1   
    16    8    9 1   
    17    8   21 1   
    18    8   22 1   
    19    9   10 1   
    20   10   11 1   
    21   10   12 1   
    22   10   13 1   
    23   14   23 1   
@<TRIPOS>SUBSTRUCTURE
     1 RP5         1 TEMP              0 ****  ****    0 ROOT
