@<TRIPOS>MOLECULE
RP6
   44    43     1     0     0
SMALL
bcc


@<TRIPOS>ATOM
      1 CAA         0.2380    0.1410    2.3700 c2        1 RP6     -0.240000
      2 CAB         1.9770   -5.4130    0.9610 c3        1 RP6     -0.248000
      3 OAC         1.3050   -5.7340    3.2790 o         1 RP6     -0.219000
      4 OAD         2.7040    0.0490   -0.1870 os        1 RP6     -0.285000
      5 OAF         4.1050   -0.8180   -1.6650 o         1 RP6     -0.378000
      6 OAG         7.5820   -5.5040    0.2220 oh        1 RP6     -0.360000
      7 OAH         2.2510   -2.0220    3.6650 oh        1 RP6     -0.292000
      8 OAI         6.0840   -4.6600    2.5250 oh        1 RP6     -0.366000
      9 CAJ         1.0480   -0.4010    1.4630 c2        1 RP6     -0.174000
     10 CAK        10.1650   -5.0950    1.3820 c1        1 RP6     -0.086000
     11 CAL         2.4480    0.0610    1.2280 c3        1 RP6      0.063000
     12 NAM         3.2480   -4.5130    2.9940 n4        1 RP6     -0.032000
     13 OAN         5.2760   -2.2210    0.9100 os        1 RP6     -0.116000
     14 CAO         2.0770   -5.2840    2.4390 c2        1 RP6      0.267000
     15 CAQ         3.5360   -0.8260    1.9010 c3        1 RP6     -0.051000
     16 CAR         4.4260   -1.1750    0.7660 c2        1 RP6     -0.452000
     17 CAS         6.7100   -4.3950    0.1900 c3        1 RP6     -0.036000
     18 CAT         3.0780   -2.0920    2.5760 c2        1 RP6      0.147000
     19 CAU         5.5730   -4.5810    1.2010 c3        1 RP6     -0.012000
     20 CAV         3.5790   -3.3200    2.2210 c2        1 RP6     -0.286000
     21 CAW         4.5360   -3.4650    1.0560 c3        1 RP6     -0.012000
     22 HAA         0.5390    0.9770    3.0150 ha        1 RP6      0.115500
     23 HAAA       -0.7950   -0.2030    2.5110 ha        1 RP6      0.115500
     24 HAB         1.1200   -6.0900    0.7140 hc        1 RP6      0.147000
     25 HABA        1.7960   -4.4040    0.4990 hc        1 RP6      0.147000
     26 HABB        2.9210   -5.8330    0.5290 hc        1 RP6      0.147000
     27 HOAE        9.5710   -5.1360   -0.3980 ho        1 RP6      0.268000
     28 HOAG        7.9620   -5.5470    1.1170 ho        1 RP6      0.236000
     29 HOAH        1.8690   -1.1260    3.6980 ho        1 RP6      0.263000
     30 H10         6.5590   -3.8350    2.6950 ho        1 RP6      0.235000
     31 HAJ         0.7160   -1.2070    0.7870 ha        1 RP6      0.138000
     32 HAK        11.1340   -5.0210    1.9360 ha        1 RP6      0.037000
     33 HAKA        7.2640   -3.4430    0.4100 h1        1 RP6      0.115500
     34 HAL         2.5840    1.1270    1.5640 h1        1 RP6      0.107000
     35 H15         4.0610   -0.2330    2.7020 hc        1 RP6      0.119000
     36 HNAM        4.0800   -5.1250    3.0190 hn        1 RP6      0.263000
     37 HAS         3.9340   -3.6350    0.1180 h1        1 RP6      0.101000
     38 HAT         1.6310   -2.8020   -0.9120 ha        1 RP6      0.001000
     39 H19         6.2990   -4.3590   -0.8530 h1        1 RP6      0.115500
     40 HAV         1.9840   -2.2550   -1.1070 ha        1 RP6      0.001000
     41 HAW         5.0960   -5.5900    1.0340 h1        1 RP6      0.091000
     42 CAP         3.8570   -0.7330   -0.4610 c2        1 RP6      0.358000
     43 HAM2        3.0270   -4.2370    3.9620 hn        1 RP6      0.263000
     44 OAE        10.4150   -5.0720    0.0990 oh        1 RP6     -0.219000
@<TRIPOS>BOND
     1    1    9 1   
     2    1   22 1   
     3    1   23 1   
     4    2   14 1   
     5    2   24 1   
     6    2   25 1   
     7    2   26 1   
     8    3   14 1   
     9    4   11 1   
    10    4   42 1   
    11    5   42 1   
    12    6   17 1   
    13    6   28 1   
    14    7   18 1   
    15    7   29 1   
    16    8   19 1   
    17    8   30 1   
    18    9   11 1   
    19    9   31 1   
    20   10   32 1   
    21   10   44 1   
    22   11   15 1   
    23   11   34 1   
    24   12   14 1   
    25   12   20 1   
    26   12   36 1   
    27   12   43 1   
    28   13   16 1   
    29   13   21 1   
    30   15   16 1   
    31   15   18 1   
    32   15   35 1   
    33   16   42 1   
    34   17   19 1   
    35   17   33 1   
    36   17   39 1   
    37   18   20 1   
    38   19   21 1   
    39   19   41 1   
    40   20   21 1   
    41   21   37 1   
    42   27   44 1   
    43   38   40 1   
@<TRIPOS>SUBSTRUCTURE
     1 RP6         1 TEMP              0 ****  ****    0 ROOT
