@<TRIPOS>MOLECULE
RP6
   44    42     1     0     0
SMALL
bcc


@<TRIPOS>ATOM
      1 CAA         2.6480    0.9810    0.2740 c2        1 RP6     -0.016900
      2 CAB         2.4890   -7.3720    3.6670 c3        1 RP6     -0.173100
      3 OAC         3.2210   -5.1310    4.1810 o         1 RP6     -0.600100
      4 OAD         3.4660    0.7790   -0.8410 os        1 RP6     -0.330200
      5 OAF         4.6270   -0.5690   -2.0850 o         1 RP6     -0.480000
      6 OAG         6.0190   -4.3500   -1.1330 oh        1 RP6     -0.629800
      7 OAH         1.7790   -3.4550    2.0920 oh        1 RP6     -0.582800
      8 OAI         6.8930   -3.3970    3.6110 oh        1 RP6     -0.602800
      9 CAJ         1.8290    2.0420    0.2520 c2        1 RP6     -0.175200
     10 CAK         6.8770   -5.0400    1.9230 c3        1 RP6      0.145400
     11 CAL         0.9840    2.4170    1.3990 c3        1 RP6     -0.058900
     12 NAM         3.5640   -5.8500    2.0340 ns        1 RP6     -0.556900
     13 OAN         4.4220   -2.6210    2.8960 o         1 RP6     -0.533100
     14 CAO         3.0900   -6.0320    3.3310 c         1 RP6      0.658100
     15 CAQ         3.0980   -2.5560    0.3200 c1        1 RP6     -0.040100
     16 CAR         3.4280   -1.5940   -0.3110 cg        1 RP6     -0.172200
     17 CAS         6.7750   -3.2100   -1.4970 c3        1 RP6      0.103700
     18 CAT         2.6770   -3.7380    1.0430 c3        1 RP6      0.201200
     19 CAU         6.0440   -4.3730    3.0260 c3        1 RP6      0.016100
     20 CAV         3.9250   -4.5500    1.5250 c3        1 RP6     -0.031300
     21 CAW         4.7650   -3.7450    2.5180 c         1 RP6      0.568100
     22 HAA         1.0860    1.6990    2.2500 hc        1 RP6      0.046700
     23 HAAA        1.7730    2.6930   -0.6350 ha        1 RP6      0.143000
     24 HAB         2.2420   -7.3910    4.7570 hc        1 RP6      0.073033
     25 HABA        1.5520   -7.5320    3.0800 hc        1 RP6      0.073033
     26 HABB        3.2080   -8.1970    3.4420 hc        1 RP6      0.073033
     27 HOAE        8.5450   -4.8430    2.8760 ho        1 RP6      0.420000
     28 HOAG        5.6560   -4.7160   -1.9480 ho        1 RP6      0.401000
     29 HOAH        2.2690   -3.0180    2.8060 ho        1 RP6      0.440000
     30 H10         6.3430   -2.8270    4.1670 ho        1 RP6      0.430000
     31 HAJ         1.2660    3.4370    1.7640 hc        1 RP6      0.046700
     32 HAK         6.3280   -5.9210    1.4980 h1        1 RP6      0.060700
     33 HAKA        6.1140   -2.4220   -1.9410 h1        1 RP6      0.042033
     34 HAL        -0.0910    2.4440    1.0870 hc        1 RP6      0.046700
     35 H15         2.7760    0.2750    1.1070 h4        1 RP6      0.155000
     36 HNAM        3.2960   -6.5140    1.3450 hn        1 RP6      0.312500
     37 HAS         7.5840   -3.4860   -2.2180 h1        1 RP6      0.042033
     38 HAT         2.0680   -4.3810    0.3320 h1        1 RP6      0.094700
     39 H19         7.2260   -2.8400   -0.5420 h1        1 RP6      0.042033
     40 HAV         4.5850   -4.7070    0.6090 h1        1 RP6      0.120700
     41 HAW         5.7580   -5.1330    3.8110 h1        1 RP6      0.087700
     42 CAP         3.8730   -0.5070   -1.1120 c         1 RP6      0.676300
     43 HAM2        7.0990   -4.3010    1.1070 h1        1 RP6      0.060700
     44 OAE         8.0700   -5.5710    2.4530 oh        1 RP6     -0.594800
@<TRIPOS>BOND
     1    1    4 1   
     2    1    9 2   
     3    1   35 1   
     4    2   14 1   
     5    2   24 1   
     6    2   25 1   
     7    2   26 1   
     8    3   14 2   
     9    4   42 1   
    10    5   42 2   
    11    6   17 1   
    12    6   28 1   
    13    7   18 1   
    14    7   29 1   
    15    8   19 1   
    16    8   30 1   
    17    9   11 1   
    18    9   23 1   
    19   10   19 1   
    20   10   32 1   
    21   10   43 1   
    22   10   44 1   
    23   11   22 1   
    24   11   31 1   
    25   11   34 1   
    26   12   14 1   
    27   12   20 1   
    28   12   36 1   
    29   13   21 2   
    30   15   16 3   
    31   15   18 1   
    32   16   42 1   
    33   17   33 1   
    34   17   37 1   
    35   17   39 1   
    36   18   20 1   
    37   18   38 1   
    38   19   21 1   
    39   19   41 1   
    40   20   21 1   
    41   20   40 1   
    42   27   44 1   
@<TRIPOS>SUBSTRUCTURE
     1 RP6         1 TEMP              0 ****  ****    0 ROOT
