@<TRIPOS>MOLECULE
RP6
   43    43     1     0     0
SMALL
bcc


@<TRIPOS>ATOM
      1 CAA         4.9960    0.6840    1.8240 c2        1 RP6     -0.283000
      2 CAB        -1.1640   -4.9150    0.6840 c3        1 RP6     -0.177100
      3 OAC        -0.6930   -3.7620   -1.3700 o         1 RP6     -0.601100
      4 OAD         2.0340    3.3650   -0.0330 o         1 RP6     -0.794300
      5 OAF         1.6200    2.7120   -2.1430 o         1 RP6     -0.794300
      6 OAG        -3.2700    0.7820    1.8390 oh        1 RP6     -0.600800
      7 OAH         2.2210   -2.3030   -0.0500 oh        1 RP6     -0.610800
      8 OAI        -2.2770    0.0840   -1.5990 oh        1 RP6     -0.602800
      9 CAJ         4.0230    1.0810    1.0080 c2        1 RP6     -0.128200
     10 CAK        -4.2850    1.4320   -0.2570 c3        1 RP6      0.097400
     11 CAL         3.5000    0.2650   -0.1210 c3        1 RP6      0.018000
     12 NAM        -0.6320   -2.5070    0.5690 n         1 RP6     -0.537900
     13 OAN        -0.1640    1.0960   -0.3100 os        1 RP6     -0.326900
     14 CAO        -0.7900   -3.6960   -0.1290 c         1 RP6      0.654100
     15 CAQ         2.0190    0.1220   -0.0620 c2        1 RP6     -0.331400
     16 CAR         1.2050    1.1520   -0.3810 ce        1 RP6      0.083900
     17 CAS        -2.9840    1.1080    0.4880 c3        1 RP6      0.061100
     18 CAT         1.4780   -1.1850    0.4110 c3        1 RP6      0.189300
     19 CAU        -2.2110   -0.0390   -0.1940 c3        1 RP6      0.132100
     20 CAV        -0.0070   -1.3480   -0.0330 c3        1 RP6      0.026700
     21 CAW        -0.7590   -0.0470    0.3190 c3        1 RP6      0.098100
     22 HAA         5.3720    1.3190    2.6350 ha        1 RP6      0.091500
     23 HAAA        5.4830   -0.2960    1.7410 ha        1 RP6      0.091500
     24 HAB        -1.3700   -5.7620   -0.0130 hc        1 RP6      0.058700
     25 HABA       -0.3200   -5.1970    1.3590 hc        1 RP6      0.058700
     26 HABB       -2.0740   -4.7200    1.2990 hc        1 RP6      0.058700
     27 HOAE       -5.1230    2.0820    1.3620 ho        1 RP6      0.406000
     28 HOAG       -3.8940    0.0440    1.8260 ho        1 RP6      0.400000
     29 HOAH        2.3440   -2.1900   -1.0010 ho        1 RP6      0.409000
     30 H10        -1.6520    0.7740   -1.8670 ho        1 RP6      0.435000
     31 HAJ         3.5350    2.0730    1.1030 ha        1 RP6      0.173000
     32 HAK        -4.5520    0.6190   -0.9850 h1        1 RP6      0.060200
     33 HAKA       -4.1810    2.4020   -0.8080 h1        1 RP6      0.060200
     34 HAL         3.7760    0.7910   -1.0800 hc        1 RP6      0.049700
     35 H15         3.9820   -0.7500   -0.1360 hc        1 RP6      0.049700
     36 HNAM       -0.5070   -2.5830    1.5530 hn        1 RP6      0.290500
     37 HAS        -2.3230    2.0190    0.5550 h1        1 RP6      0.108700
     38 HAT         1.5620   -1.2530    1.5350 h1        1 RP6      0.058700
     39 H19        -2.7150   -1.0190    0.0340 h1        1 RP6      0.074700
     40 HAV        -0.0360   -1.4730   -1.1580 h1        1 RP6      0.111700
     41 HAW        -0.7520    0.1250    1.4310 h1        1 RP6      0.063700
     42 CAP         1.6570    2.5400   -0.9010 c         1 RP6      0.935800
     43 OAE        -5.3800    1.4960    0.6380 oh        1 RP6     -0.615800
@<TRIPOS>BOND
     1    1    9 2   
     2    1   22 1   
     3    1   23 1   
     4    2   14 1   
     5    2   24 1   
     6    2   25 1   
     7    2   26 1   
     8    3   14 2   
     9    4   42 1   
    10    5   42 1   
    11    6   17 1   
    12    6   28 1   
    13    7   18 1   
    14    7   29 1   
    15    8   19 1   
    16    8   30 1   
    17    9   11 1   
    18    9   31 1   
    19   10   17 1   
    20   10   32 1   
    21   10   33 1   
    22   10   43 1   
    23   11   15 1   
    24   11   34 1   
    25   11   35 1   
    26   12   14 1   
    27   12   20 1   
    28   12   36 1   
    29   13   16 1   
    30   13   21 1   
    31   15   16 2   
    32   15   18 1   
    33   16   42 1   
    34   17   19 1   
    35   17   37 1   
    36   18   20 1   
    37   18   38 1   
    38   19   21 1   
    39   19   39 1   
    40   20   21 1   
    41   20   40 1   
    42   21   41 1   
    43   27   43 1   
@<TRIPOS>SUBSTRUCTURE
     1 RP6         1 TEMP              0 ****  ****    0 ROOT
