@<TRIPOS>MOLECULE
RP6
   44    40     1     0     0
SMALL
bcc


@<TRIPOS>ATOM
      1 CAA         0.0440   -2.7700    0.1240 c1        1 RP6      0.222000
      2 CAB         1.5310   -4.7870    4.2400 c3        1 RP6     -0.240000
      3 OAC         3.5320   -6.0840    4.5750 o         1 RP6     -0.316000
      4 OAD         3.8230    1.7820    1.0450 o         1 RP6     -0.235000
      5 OAF         5.3350    1.4890    2.8590 o         1 RP6     -0.235000
      6 OAG         6.7900   -3.5030   -0.6230 oh        1 RP6     -0.355000
      7 OAH         1.8740   -1.7940    2.8560 o         1 RP6     -0.283000
      8 OAI         7.4840   -2.8490    2.9140 oh        1 RP6     -0.311000
      9 CAJ         0.4530   -1.5410   -0.5980 c3        1 RP6     -0.365000
     10 CAK         7.1900   -6.4540    0.1190 c1        1 RP6     -0.096000
     11 CAL         0.5480   -1.5860    0.9020 c3        1 RP6     -0.390000
     12 NAM         3.5990   -4.4740    2.9010 n2        1 RP6     -0.240000
     13 OAN         5.1790   -1.6390    2.0560 os        1 RP6     -0.076000
     14 CAO         2.9620   -5.1610    3.9720 c2        1 RP6      0.273000
     15 CAQ         3.0650   -1.3190    0.8190 c3        1 RP6     -0.315000
     16 CAR         4.2320   -0.9000    1.6310 c1        1 RP6      0.016000
     17 CAS         7.4050   -2.8880    0.4860 c3        1 RP6     -0.045000
     18 CAT         1.8330   -1.5920    1.6390 c2        1 RP6      0.310000
     19 CAU         6.8010   -3.3890    1.8050 c3        1 RP6      0.000000
     20 CAV         4.6600   -3.7730    3.0320 c2        1 RP6     -0.001000
     21 CAW         5.2960   -3.0850    1.8480 c3        1 RP6     -0.094000
     22 HAA        -0.3150   -0.8880   -1.0600 hc        1 RP6      0.156000
     23 HAAA        1.3750   -1.5450   -1.2120 hc        1 RP6      0.156000
     24 HAB         1.4000   -3.6770    4.2640 hc        1 RP6      0.116333
     25 HABA        0.8850   -5.2050    3.4280 hc        1 RP6      0.116333
     26 HABB        1.2160   -5.2240    5.2180 hc        1 RP6      0.116333
     27 HOAE        7.1710   -7.0080   -1.6670 ho        1 RP6      0.249000
     28 HOAG        6.9360   -4.4640   -0.5380 ho        1 RP6      0.234000
     29 HOAH        5.2050   -3.5890    3.9850 h4        1 RP6      0.144000
     30 H10         7.3520   -1.8900    2.9000 ho        1 RP6      0.217000
     31 HAJ        -0.2220   -1.0230    1.4820 hc        1 RP6      0.183000
     32 HAK         7.2640   -6.9080    1.1370 ha        1 RP6      0.061000
     33 HAKA        8.5100   -3.0830    0.4920 h1        1 RP6      0.093500
     34 HAL         2.8510   -0.4470    0.1330 hc        1 RP6      0.143500
     35 H15         3.2720   -2.2230    0.1780 hc        1 RP6      0.143500
     36 HNAM        4.0040   -3.8300   -1.2520 ha        1 RP6      0.006000
     37 HAS         4.8370   -3.3670    0.8610 h1        1 RP6      0.138000
     38 HAT         1.5940   -4.4550   -0.1470 ha        1 RP6      0.006000
     39 H19         7.2180   -1.7880    0.3590 h1        1 RP6      0.093500
     40 HAV         1.9930   -3.9140   -0.2570 ha        1 RP6      0.006000
     41 HAW         6.9460   -4.5060    1.8890 h1        1 RP6      0.137000
     42 CAP         4.5700    1.5630    1.9510 c1        1 RP6      0.450000
     43 HAM2        4.6330   -3.6790   -1.4550 ha        1 RP6      0.006000
     44 OAE         7.2370   -7.4050   -0.7760 oh        1 RP6     -0.197000
@<TRIPOS>BOND
     1    1    9 1   
     2    1   11 1   
     3    2   14 1   
     4    2   24 1   
     5    2   25 1   
     6    2   26 1   
     7    3   14 1   
     8    4   42 1   
     9    5   42 1   
    10    6   17 1   
    11    6   28 1   
    12    7   18 1   
    13    8   19 1   
    14    8   30 1   
    15    9   11 1   
    16    9   22 1   
    17    9   23 1   
    18   10   32 1   
    19   10   44 1   
    20   11   18 1   
    21   11   31 1   
    22   12   14 1   
    23   12   20 1   
    24   13   16 1   
    25   13   21 1   
    26   15   16 1   
    27   15   18 1   
    28   15   34 1   
    29   15   35 1   
    30   17   19 1   
    31   17   33 1   
    32   17   39 1   
    33   19   21 1   
    34   19   41 1   
    35   20   21 1   
    36   20   29 1   
    37   21   37 1   
    38   27   44 1   
    39   36   43 1   
    40   38   40 1   
@<TRIPOS>SUBSTRUCTURE
     1 RP6         1 TEMP              0 ****  ****    0 ROOT
