@<TRIPOS>MOLECULE
RP8
   25    26     1     0     0
SMALL
bcc


@<TRIPOS>ATOM
      1 C1         -0.0310   -0.0310   -0.0100 ca        1 RP8      0.458600
      2 C2          1.4080   -0.0520   -0.0340 ca        1 RP8     -0.120300
      3 C3          2.1230   -0.0440    1.1360 ca        1 RP8     -0.128000
      4 C4          1.4670   -0.0330    2.3860 ca        1 RP8     -0.081000
      5 C5          0.0880   -0.0110    2.4480 ca        1 RP8     -0.170300
      6 C6         -0.6920    0.0060    1.2590 ca        1 RP8     -0.191300
      7 N7         -0.6990   -0.0390   -1.2050 nb        1 RP8     -0.729000
      8 C8         -2.0530   -0.0050   -1.1890 ca        1 RP8      0.690200
      9 C9         -2.7990    0.0840    0.0610 ca        1 RP8     -0.242300
     10 N10        -2.7520   -0.1070   -2.3730 nv        1 RP8     -0.944500
     11 C11        -2.1150    0.0840    1.2430 ca        1 RP8     -0.105000
     12 C12        -0.5770    0.0080    3.7800 c3        1 RP8      0.175100
     13 N13        -1.1610   -1.3420    4.0930 nz        1 RP8     -0.846600
     14 H2          1.9230   -0.0690   -1.0110 ha        1 RP8      0.177000
     15 H3          3.2260   -0.0480    1.1150 ha        1 RP8      0.163000
     16 H4          2.0770   -0.0280    3.3040 ha        1 RP8      0.142000
     17 H121       -1.4180    0.7600    3.8090 hx        1 RP8      0.111200
     18 H122        0.1580    0.2560    4.6010 hx        1 RP8      0.111200
     19 H11        -2.6720    0.1810    2.1860 ha        1 RP8      0.110000
     20 H9         -3.8960    0.1550    0.0360 ha        1 RP8      0.158000
     21 H101       -3.7040    0.1680   -2.3710 hn        1 RP8      0.444300
     22 H102       -2.2610   -0.0640   -3.2360 hn        1 RP8      0.444300
     23 H13        -0.4150   -2.0430    4.1280 hn        1 RP8      0.457800
     24 H1         -1.8170   -1.6080    3.3490 hn        1 RP8      0.457800
     25 H133       -1.6510   -1.3230    4.9900 hn        1 RP8      0.457800
@<TRIPOS>BOND
     1    1    2 ar  
     2    1    6 ar  
     3    1    7 ar  
     4    2    3 ar  
     5    2   14 1   
     6    3    4 ar  
     7    3   15 1   
     8    4    5 ar  
     9    4   16 1   
    10    5    6 ar  
    11    5   12 1   
    12    6   11 ar  
    13    7    8 ar  
    14    8    9 ar  
    15    8   10 1   
    16    9   11 ar  
    17    9   20 1   
    18   10   21 1   
    19   10   22 1   
    20   11   19 1   
    21   12   13 1   
    22   12   17 1   
    23   12   18 1   
    24   13   23 1   
    25   13   24 1   
    26   13   25 1   
@<TRIPOS>SUBSTRUCTURE
     1 RP8         1 TEMP              0 ****  ****    0 ROOT
