@<TRIPOS>MOLECULE
RPB
   42    45     1     0     0
SMALL
bcc


@<TRIPOS>ATOM
      1 O1         -4.8930    2.1740    0.5220 o         1 RPB     -0.651500
      2 C7         -3.7710    1.8450    0.0760 c         1 RPB      0.711100
      3 N1         -2.9240    2.8580   -0.3230 n         1 RPB     -0.567900
      4 C8         -1.6100    2.7160   -0.8710 c3        1 RPB      0.105000
      5 C9         -0.5760    2.0520    0.0470 c3        1 RPB     -0.036200
      6 C10        -0.7770    0.5990    0.0790 cc        1 RPB     -0.120400
      7 C5         -2.0690   -0.0490    0.0240 ca        1 RPB     -0.076800
      8 C4         -3.3900    0.4090   -0.0240 ca        1 RPB     -0.064600
      9 C3         -4.4240   -0.5190   -0.0930 ca        1 RPB     -0.132000
     10 C2         -4.1540   -1.9110   -0.1090 ca        1 RPB      0.130900
     11 F1         -5.1940   -2.7770   -0.1910 f         1 RPB     -0.138900
     12 C1         -2.8500   -2.4110   -0.0330 ca        1 RPB     -0.168000
     13 C6         -1.8120   -1.4730    0.0400 ca        1 RPB     -0.027200
     14 N2         -0.4360   -1.6660    0.1390 na        1 RPB     -0.183400
     15 C11         0.1940   -0.4090    0.1400 cd        1 RPB      0.008700
     16 C12         1.6440   -0.2870    0.2160 ca        1 RPB     -0.050800
     17 C14         2.3520   -0.9250    1.2430 ca        1 RPB     -0.114500
     18 C15         3.7370   -0.8020    1.3200 ca        1 RPB     -0.119500
     19 C13         2.3420    0.4670   -0.7370 ca        1 RPB     -0.114500
     20 C17         3.7270    0.5910   -0.6540 ca        1 RPB     -0.119500
     21 C16         4.4330   -0.0430    0.3740 ca        1 RPB     -0.081300
     22 C18         5.9200    0.1170    0.4920 c3        1 RPB      0.203100
     23 N3          6.6280   -0.0990   -0.7560 n3        1 RPB     -0.827200
     24 C19         8.0570   -0.1490   -0.6010 c3        1 RPB      0.151100
     25 H1         -3.2390    3.7850   -0.1360 hn        1 RPB      0.319500
     26 H81C       -1.6710    2.1200   -1.8270 h1        1 RPB      0.050200
     27 H82C       -1.2380    3.7490   -1.1300 h1        1 RPB      0.050200
     28 H91C        0.4490    2.2940   -0.3440 hc        1 RPB      0.060700
     29 H92C       -0.6420    2.4730    1.0880 hc        1 RPB      0.060700
     30 H3         -5.4710   -0.1730   -0.1160 ha        1 RPB      0.174000
     31 HA         -2.6610   -3.4920   -0.0300 ha        1 RPB      0.152000
     32 H2          0.0300   -2.5340    0.1100 hn        1 RPB      0.304700
     33 H14         1.8110   -1.5140    1.9990 ha        1 RPB      0.140000
     34 H13         1.7940    0.9590   -1.5550 ha        1 RPB      0.140000
     35 H15         4.2820   -1.3040    2.1330 ha        1 RPB      0.144500
     36 H17         4.2690    1.1890   -1.4030 ha        1 RPB      0.144500
     37 H181        6.1360    1.1770    0.8190 h1        1 RPB      0.040200
     38 H182        6.2970   -0.5640    1.3140 h1        1 RPB      0.040200
     39 HB          6.2880   -0.9240   -1.2150 hn        1 RPB      0.362800
     40 H191        8.5190   -0.3050   -1.6110 h1        1 RPB      0.031700
     41 H192        8.4160    0.8300   -0.1870 h1        1 RPB      0.031700
     42 H193        8.4120   -0.9680    0.0850 h1        1 RPB      0.031700
@<TRIPOS>BOND
     1    1    2 2   
     2    2    3 1   
     3    2    8 1   
     4    3    4 1   
     5    3   25 1   
     6    4    5 1   
     7    4   26 1   
     8    4   27 1   
     9    5    6 1   
    10    5   28 1   
    11    5   29 1   
    12    6    7 1   
    13    6   15 2   
    14    7    8 ar  
    15    7   13 ar  
    16    8    9 ar  
    17    9   10 ar  
    18    9   30 1   
    19   10   11 1   
    20   10   12 ar  
    21   12   13 ar  
    22   12   31 1   
    23   13   14 1   
    24   14   15 1   
    25   14   32 1   
    26   15   16 1   
    27   16   17 ar  
    28   16   19 ar  
    29   17   18 ar  
    30   17   33 1   
    31   18   21 ar  
    32   18   35 1   
    33   19   20 ar  
    34   19   34 1   
    35   20   21 ar  
    36   20   36 1   
    37   21   22 1   
    38   22   23 1   
    39   22   37 1   
    40   22   38 1   
    41   23   24 1   
    42   23   39 1   
    43   24   40 1   
    44   24   41 1   
    45   24   42 1   
@<TRIPOS>SUBSTRUCTURE
     1 RPB         1 TEMP              0 ****  ****    0 ROOT
