@<TRIPOS>MOLECULE
RPB
   43    46     1     0     0
SMALL
bcc


@<TRIPOS>ATOM
      1 O1         -0.1320    0.3160   -0.0310 o         1 RPB     -0.627500
      2 C7          1.1100    0.1810   -0.0320 c         1 RPB      0.707100
      3 N1          1.7540    0.1540    1.1880 n         1 RPB     -0.569900
      4 C8          3.1600    0.0430    1.4090 c3        1 RPB      0.109000
      5 C9          3.8010   -1.2660    0.9230 c3        1 RPB     -0.049200
      6 C10         3.9940   -1.2360   -0.5320 cc        1 RPB     -0.059400
      7 C5          3.0750   -0.6100   -1.4580 ca        1 RPB     -0.095800
      8 C4          1.8510    0.0570   -1.3210 ca        1 RPB     -0.053600
      9 C3          1.2360    0.5760   -2.4530 ca        1 RPB     -0.127000
     10 C2          1.8250    0.4270   -3.7380 ca        1 RPB      0.158900
     11 F1          1.1950    0.9640   -4.8090 f         1 RPB     -0.122900
     12 C1          3.0250   -0.2650   -3.9230 ca        1 RPB     -0.176000
     13 C6          3.6390   -0.7890   -2.7760 ca        1 RPB     -0.011200
     14 N2          4.8000   -1.5540   -2.6610 na        1 RPB     -0.177400
     15 C11         5.0430   -1.7770   -1.2880 cd        1 RPB     -0.070300
     16 C12         6.2000   -2.5310   -0.8380 ca        1 RPB      0.039200
     17 C14         6.5320   -3.7510   -1.4520 ca        1 RPB     -0.118000
     18 C15         7.6230   -4.4890   -1.0050 ca        1 RPB     -0.093500
     19 C13         6.9960   -2.0550    0.2180 ca        1 RPB     -0.118000
     20 C17         8.0860   -2.7950    0.6640 ca        1 RPB     -0.093500
     21 C16         8.4040   -4.0160    0.0570 ca        1 RPB     -0.207300
     22 C18         9.5340   -4.8330    0.5720 c3        1 RPB      0.177100
     23 N3         10.8160   -4.4830   -0.1390 n4        1 RPB     -0.764000
     24 C19        11.9620   -5.2770    0.3490 c3        1 RPB      0.076100
     25 H1          1.1660    0.1840    1.9920 hn        1 RPB      0.329500
     26 H81C        3.3390    0.1260    2.5200 h1        1 RPB      0.053700
     27 H82C        3.6900    0.9040    0.9070 h1        1 RPB      0.053700
     28 H91C        3.1580   -2.1470    1.2010 hc        1 RPB      0.061200
     29 H92C        4.7820   -1.3930    1.4510 hc        1 RPB      0.061200
     30 H3          0.2650    1.0930   -2.3650 ha        1 RPB      0.186000
     31 HA          3.4550   -0.3900   -4.9250 ha        1 RPB      0.160000
     32 H2          5.4810   -1.6500   -3.3680 hn        1 RPB      0.298700
     33 H14         5.9080   -4.1390   -2.2740 ha        1 RPB      0.166500
     34 H13         6.7560   -1.0890    0.6920 ha        1 RPB      0.166500
     35 H15         7.8530   -5.4570   -1.4770 ha        1 RPB      0.140000
     36 H17         8.6880   -2.4200    1.5060 ha        1 RPB      0.140000
     37 H181        9.6990   -4.6510    1.6730 hx        1 RPB      0.109200
     38 H182        9.3470   -5.9340    0.4090 hx        1 RPB      0.109200
     39 HB         11.0030   -3.4820   -0.0050 hn        1 RPB      0.452800
     40 H191       11.7610   -6.3700    0.1840 hx        1 RPB      0.109033
     41 H192       12.1110   -5.0890    1.4460 hx        1 RPB      0.109033
     42 H193       12.8890   -4.9780   -0.2120 hx        1 RPB      0.109033
     43 H32        10.6860   -4.6410   -1.1460 hn        1 RPB      0.452800
@<TRIPOS>BOND
     1    1    2 2   
     2    2    3 1   
     3    2    8 1   
     4    3    4 1   
     5    3   25 1   
     6    4    5 1   
     7    4   26 1   
     8    4   27 1   
     9    5    6 1   
    10    5   28 1   
    11    5   29 1   
    12    6    7 1   
    13    6   15 2   
    14    7    8 ar  
    15    7   13 ar  
    16    8    9 ar  
    17    9   10 ar  
    18    9   30 1   
    19   10   11 1   
    20   10   12 ar  
    21   12   13 ar  
    22   12   31 1   
    23   13   14 1   
    24   14   15 1   
    25   14   32 1   
    26   15   16 1   
    27   16   17 ar  
    28   16   19 ar  
    29   17   18 ar  
    30   17   33 1   
    31   18   21 ar  
    32   18   35 1   
    33   19   20 ar  
    34   19   34 1   
    35   20   21 ar  
    36   20   36 1   
    37   21   22 1   
    38   22   23 1   
    39   22   37 1   
    40   22   38 1   
    41   23   24 1   
    42   23   39 1   
    43   23   43 1   
    44   24   40 1   
    45   24   41 1   
    46   24   42 1   
@<TRIPOS>SUBSTRUCTURE
     1 RPB         1 TEMP              0 ****  ****    0 ROOT
