@<TRIPOS>MOLECULE
RPC
   36    37     1     0     0
SMALL
bcc


@<TRIPOS>ATOM
      1 P          -0.4050    3.3730   -1.3580 p5        1 RPC      1.337900
      2 OP1         0.8160    3.1310   -0.4860 o         1 RPC     -0.936833
      3 O5'        -0.9270    1.7770   -1.6860 os        1 RPC     -0.583200
      4 C5'        -1.1000    0.9420   -0.6010 c3        1 RPC      0.196400
      5 C4'        -0.8270   -0.5320   -0.9560 c3        1 RPC      0.093100
      6 C3'        -0.9620   -1.4810    0.2710 c3        1 RPC      0.176100
      7 O3'        -1.4210   -2.7170   -0.1070 os        1 RPC     -0.570200
      8 C2'         0.5190   -1.5440    0.7780 c3        1 RPC      0.100100
      9 O2'         0.9080   -2.7440    1.3830 oh        1 RPC     -0.660800
     10 C1'         1.3640   -1.3090   -0.5180 c3        1 RPC      0.262500
     11 O4'         0.5070   -0.7170   -1.4880 os        1 RPC     -0.419600
     12 N1          2.5580   -0.4520   -0.3410 n         1 RPC     -0.332000
     13 C6          2.4510    0.9030   -0.3100 cc        1 RPC      0.101600
     14 C5          3.5670    1.7060   -0.0570 cd        1 RPC     -0.469600
     15 C4          4.8180    1.0710    0.1840 cd        1 RPC      0.654500
     16 N4          5.9510    1.8890    0.4770 nh        1 RPC     -0.880800
     17 N3          4.9800   -0.2690    0.1140 nc        1 RPC     -0.799100
     18 C2          3.8620   -1.0490   -0.2240 c         1 RPC      0.810900
     19 O2          4.0160   -2.2800   -0.4350 o         1 RPC     -0.698500
     20 OP2        -1.5530    4.0300   -0.6390 o         1 RPC     -0.936833
     21 P2         -2.5130   -3.5590    0.9370 p5        1 RPC      1.321900
     22 OP4        -1.4950   -4.2700    1.8030 o         1 RPC     -0.931833
     23 OP5        -3.2960   -2.4850    1.6380 o         1 RPC     -0.931833
     24 OP6        -3.2980   -4.4490    0.0110 o         1 RPC     -0.931833
     25 H2         -0.4390    1.2620    0.2530 h1        1 RPC      0.001700
     26 H3         -2.1750    0.9710   -0.2480 h1        1 RPC      0.001700
     27 H4         -1.4940   -0.8580   -1.7960 h1        1 RPC      0.066700
     28 H5         -1.6270   -1.0410    1.0650 h1        1 RPC      0.076700
     29 H6          0.6980   -0.7170    1.5170 h1        1 RPC      0.025700
     30 H7          0.1320   -3.3630    1.3530 ho        1 RPC      0.489000
     31 H8          1.7310   -2.2920   -0.9350 h2        1 RPC      0.090700
     32 H9          1.4420    1.4450   -0.5050 h4        1 RPC      0.324000
     33 H10         3.4090    2.7920   -0.0620 ha        1 RPC      0.182000
     34 H11         5.6580    2.7240    0.9410 hn        1 RPC      0.352800
     35 H12         6.6500    1.4130    1.0090 hn        1 RPC      0.352800
     36 OP3        -0.1030    3.9330   -2.7230 o         1 RPC     -0.936833
@<TRIPOS>BOND
     1    1    2 1   
     2    1    3 1   
     3    1   20 1   
     4    1   36 1   
     5    3    4 1   
     6    4    5 1   
     7    4   25 1   
     8    4   26 1   
     9    5    6 1   
    10    5   11 1   
    11    5   27 1   
    12    6    7 1   
    13    6    8 1   
    14    6   28 1   
    15    7   21 1   
    16    8    9 1   
    17    8   10 1   
    18    8   29 1   
    19    9   30 1   
    20   10   11 1   
    21   10   12 1   
    22   10   31 1   
    23   12   13 1   
    24   12   18 1   
    25   13   14 2   
    26   13   32 1   
    27   14   15 1   
    28   14   33 1   
    29   15   16 1   
    30   15   17 2   
    31   16   34 1   
    32   16   35 1   
    33   17   18 1   
    34   18   19 2   
    35   21   22 1   
    36   21   23 1   
    37   21   24 1   
@<TRIPOS>SUBSTRUCTURE
     1 RPC         1 TEMP              0 ****  ****    0 ROOT
