@<TRIPOS>MOLECULE
RPC
   36    33     1     0     0
SMALL
bcc


@<TRIPOS>ATOM
      1 P           3.9610    0.3270   -3.1520 p3        1 RPC      2.530000
      2 OP1         5.4190    0.7080   -3.0620 os        1 RPC     -1.253000
      3 O5'         3.2580    0.5970   -1.7620 os        1 RPC     -0.745000
      4 C5'         2.1420   -0.1870   -1.4100 c3        1 RPC      0.045000
      5 C4'         1.7190    0.1460   -0.0180 c3        1 RPC     -0.018000
      6 C3'         0.8080   -1.0940    0.6140 c3        1 RPC      0.065000
      7 O3'         1.6850   -2.1350    1.1540 os        1 RPC     -0.732000
      8 C2'         0.1220   -0.5910    1.5320 c3        1 RPC     -0.010000
      9 O2'         0.8390   -0.7060    2.8330 oh        1 RPC     -0.389000
     10 C1'        -0.0490    0.9470    1.1290 c3        1 RPC      0.112000
     11 O4'         0.9660    1.1840   -0.0230 os        1 RPC     -0.277000
     12 N1         -1.2290    1.1700    0.7300 n3        1 RPC     -0.220000
     13 C6         -2.3280    0.9050    1.5850 c2        1 RPC      0.099000
     14 C5         -3.6840    1.2960    1.1780 c1        1 RPC     -0.377000
     15 C4         -3.9030    1.9120   -0.1380 c1        1 RPC      0.129000
     16 N4         -5.2190    2.2180   -0.5680 n3        1 RPC     -0.318000
     17 N3         -2.8030    2.1250   -1.0110 n1        1 RPC     -0.373000
     18 C2         -1.4570    1.7200   -0.6050 c1        1 RPC      0.328000
     19 O2         -0.5180    1.9030   -1.3540 o         1 RPC     -0.428000
     20 OP2         3.8430   -1.1370   -3.5000 o         1 RPC     -1.256500
     21 P2          1.3070   -3.6480    0.8940 p3        1 RPC      2.514000
     22 OP4         0.5620   -4.1940    2.0880 o         1 RPC     -1.252000
     23 OP5         2.5670   -4.4510    0.6760 o         1 RPC     -1.252000
     24 OP6         0.4310   -3.7440   -0.3320 os        1 RPC     -1.253000
     25 H2          2.3800   -1.1360   -1.4610 h1        1 RPC      0.041500
     26 H3          1.4050   -0.0020   -2.0280 h1        1 RPC      0.041500
     27 H4          2.5050    0.3040    0.5430 h1        1 RPC      0.104000
     28 H5          0.2250   -1.4690   -0.0760 h1        1 RPC      0.115000
     29 H6         -0.7520   -1.0290    1.5840 h1        1 RPC      0.068000
     30 H7          0.2510   -0.8540    3.4840 ho        1 RPC      0.288000
     31 H8          0.1650    1.5220    1.8900 h2        1 RPC      0.132000
     32 H9         -2.1790    0.4950    2.4590 h4        1 RPC      0.321000
     33 H10        -4.4420    1.1140    1.7650 ha        1 RPC      0.181000
     34 H11        -5.3580    2.5730   -1.3990 hn        1 RPC      0.148000
     35 H12        -5.9300    2.0570   -0.0150 hn        1 RPC      0.148000
     36 OP3         3.2900    1.1540   -4.2230 o         1 RPC     -1.256500
@<TRIPOS>BOND
     1    1    3 1   
     2    1   20 1   
     3    1   36 1   
     4    3    4 1   
     5    4    5 1   
     6    4   25 1   
     7    4   26 1   
     8    5    6 1   
     9    5   11 1   
    10    5   27 1   
    11    6    7 1   
    12    6    8 1   
    13    6   28 1   
    14    7   21 1   
    15    8    9 1   
    16    8   10 1   
    17    8   29 1   
    18    9   30 1   
    19   10   11 1   
    20   10   12 1   
    21   10   31 1   
    22   12   13 1   
    23   12   18 1   
    24   13   14 1   
    25   13   32 1   
    26   14   33 1   
    27   15   16 1   
    28   15   17 1   
    29   16   34 1   
    30   16   35 1   
    31   18   19 1   
    32   21   22 1   
    33   21   23 1   
@<TRIPOS>SUBSTRUCTURE
     1 RPC         1 TEMP              0 ****  ****    0 ROOT
