@<TRIPOS>MOLECULE
RPD
   49    50     1     0     0
SMALL
bcc


@<TRIPOS>ATOM
      1 O1P         0.1600   -2.4500    0.0640 o         1 RPD     -0.932833
      2 O2P         1.9930   -1.2060   -1.2360 o         1 RPD     -0.932833
      3 O3P         2.5030   -2.3100    1.0250 o         1 RPD     -0.932833
      4 P           1.4780   -1.7290    0.0700 p5        1 RPD      1.333900
      5 O5'         1.0970   -0.2870    0.9710 os        1 RPD     -0.559200
      6 C5'         0.5750   -0.5270    2.2120 c3        1 RPD      0.232400
      7 C4'         1.6470   -0.3000    3.3080 c3        1 RPD      0.064100
      8 O4'         1.0180    0.2980    4.4730 os        1 RPD     -0.435600
      9 C3'         2.3570   -1.5890    3.7560 c3        1 RPD      0.128100
     10 O3'         3.7150   -1.5710    3.3850 oh        1 RPD     -0.671800
     11 C2'         2.2690   -1.6140    5.3000 c3        1 RPD      0.137100
     12 O2'         3.5000   -1.4560    5.9580 oh        1 RPD     -0.598800
     13 C1'         1.2950   -0.4430    5.6500 c3        1 RPD      0.167200
     14 N1          0.0230   -0.9030    6.2650 n         1 RPD     -0.508900
     15 C2         -0.2400   -0.1000    7.4140 c         1 RPD      0.780500
     16 O2         -1.2930   -0.1250    8.0790 o         1 RPD     -0.649500
     17 N3          0.9010    0.6940    7.7290 n         1 RPD     -0.521400
     18 C4          1.8790    0.5490    6.7200 c         1 RPD      0.713500
     19 O4          2.9710    1.1170    6.7030 o         1 RPD     -0.587500
     20 C5A         0.9820    1.5790    8.8580 c3        1 RPD      0.115000
     21 C6A         1.0740    0.9050   10.2300 c3        1 RPD     -0.103400
     22 C7A         1.2330    1.9650   11.3030 c3        1 RPD     -0.087400
     23 C8A         1.3510    1.3850   12.7160 c3        1 RPD      0.000500
     24 C9A         0.5400    2.3150   13.6880 c         1 RPD      0.928600
     25 OJA         1.0720    3.3930   14.0870 o         1 RPD     -0.840800
     26 OKA        -0.6160    1.9350   14.0080 o         1 RPD     -0.840800
     27 NAA         2.7180    1.1660   13.2440 n3        1 RPD     -0.474100
     28 OAA         3.4600    2.2930   13.2500 oh        1 RPD     -0.493300
     29 CBA         3.4660    0.1870   12.4190 c3        1 RPD      0.338600
     30 OBA         4.7080   -0.1780   13.0130 oh        1 RPD     -0.625800
     31 H5'1       -0.2630    0.2040    2.4200 h1        1 RPD      0.000200
     32 H5'2        0.1700   -1.5760    2.2870 h1        1 RPD      0.000200
     33 H4          2.3960    0.4560    2.9480 h1        1 RPD      0.078700
     34 H3          1.8540   -2.4950    3.3170 h1        1 RPD      0.109700
     35 HO3'        3.7200   -1.8040    2.4250 ho        1 RPD      0.506000
     36 H2          1.8670   -2.5950    5.6700 h1        1 RPD      0.080700
     37 HO2'        4.0260   -0.8240    5.4460 ho        1 RPD      0.432000
     38 HN1        -0.7400   -1.0090    5.6310 hn        1 RPD      0.314500
     39 H51         0.0650    2.2370    8.8530 h1        1 RPD      0.053700
     40 H52         1.8940    2.2260    8.7050 h1        1 RPD      0.053700
     41 H61         1.9380    0.1930   10.2540 hc        1 RPD      0.050700
     42 H62         0.1410    0.3100   10.4170 hc        1 RPD      0.050700
     43 H71         2.1300    2.6020   11.0810 hc        1 RPD      0.049200
     44 H72         0.3350    2.6390   11.2780 hc        1 RPD      0.049200
     45 H81         0.8540    0.3730   12.7440 h1        1 RPD      0.063700
     46 H10         2.9660    2.9340   13.8090 ho        1 RPD      0.467000
     47 H111        2.8730   -0.7670   12.3790 h2        1 RPD      0.044700
     48 H112        3.6790    0.5720   11.3790 h2        1 RPD      0.044700
     49 H11         5.1480    0.6330   13.2950 ho        1 RPD      0.407000
@<TRIPOS>BOND
     1    1    4 1   
     2    2    4 1   
     3    3    4 1   
     4    4    5 1   
     5    5    6 1   
     6    6    7 1   
     7    6   31 1   
     8    6   32 1   
     9    7    8 1   
    10    7    9 1   
    11    7   33 1   
    12    8   13 1   
    13    9   10 1   
    14    9   11 1   
    15    9   34 1   
    16   10   35 1   
    17   11   12 1   
    18   11   13 1   
    19   11   36 1   
    20   12   37 1   
    21   13   14 1   
    22   13   18 1   
    23   14   15 1   
    24   14   38 1   
    25   15   16 2   
    26   15   17 1   
    27   17   18 1   
    28   17   20 1   
    29   18   19 2   
    30   20   21 1   
    31   20   39 1   
    32   20   40 1   
    33   21   22 1   
    34   21   41 1   
    35   21   42 1   
    36   22   23 1   
    37   22   43 1   
    38   22   44 1   
    39   23   24 1   
    40   23   27 1   
    41   23   45 1   
    42   24   25 1   
    43   24   26 1   
    44   27   28 1   
    45   27   29 1   
    46   28   46 1   
    47   29   30 1   
    48   29   47 1   
    49   29   48 1   
    50   30   49 1   
@<TRIPOS>SUBSTRUCTURE
     1 RPD         1 TEMP              0 ****  ****    0 ROOT
