@<TRIPOS>MOLECULE
RPD
   49    50     1     0     0
SMALL
bcc


@<TRIPOS>ATOM
      1 O1P         0.5590   -1.1340   -7.1860 o         1 RPD     -0.933167
      2 O2P         0.3770    1.3200   -7.9180 o         1 RPD     -0.933167
      3 O3P         1.8730    0.6440   -5.9440 o         1 RPD     -0.933167
      4 P           0.6980    0.3220   -6.8470 p5        1 RPD      1.333900
      5 O5'        -0.5760    0.5450   -5.6790 os        1 RPD     -0.559200
      6 C5'        -0.4980   -0.2950   -4.6030 c3        1 RPD      0.232400
      7 C4'         0.0560    0.4530   -3.3650 c3        1 RPD      0.063100
      8 O4'        -0.6290   -0.0210   -2.1760 os        1 RPD     -0.436600
      9 C3'         1.5680    0.2630   -3.1530 c3        1 RPD      0.128100
     10 O3'         2.2600    1.4750   -3.3440 oh        1 RPD     -0.671800
     11 C2'         1.7440   -0.1760   -1.6810 c3        1 RPD      0.138100
     12 O2'         2.3780    0.7710   -0.8600 oh        1 RPD     -0.596800
     13 C1'         0.2890   -0.4590   -1.1870 c3        1 RPD      0.166200
     14 N1          0.0430   -1.8900   -0.8730 n         1 RPD     -0.507900
     15 C2         -0.6300   -1.9680    0.3820 c         1 RPD      0.781500
     16 O2         -1.1310   -3.0010    0.8650 o         1 RPD     -0.650500
     17 N3         -0.6040   -0.6990    1.0310 n         1 RPD     -0.520400
     18 C4         -0.0670    0.2740    0.1570 c         1 RPD      0.713500
     19 O4          0.0660    1.4700    0.4200 o         1 RPD     -0.586500
     20 C5A        -1.1820   -0.4440    2.3210 c3        1 RPD      0.113000
     21 C6A        -0.2380   -0.5560    3.5230 c3        1 RPD     -0.097400
     22 C7A        -0.9030    0.0690    4.7330 c3        1 RPD     -0.090400
     23 C8A        -0.0590   -0.0640    6.0070 c3        1 RPD     -0.022500
     24 C9A        -0.5810   -1.2980    6.8270 c         1 RPD      0.932600
     25 OJA        -1.6870   -1.1870    7.4370 o         1 RPD     -0.838800
     26 OKA         0.1320   -2.3330    6.8260 o         1 RPD     -0.838800
     27 NAA        -0.0180    1.1360    6.8780 n3        1 RPD     -0.461100
     28 OAA        -1.2570    1.5470    7.2230 oh        1 RPD     -0.486300
     29 CBA         0.6110    2.3170    6.2260 c3        1 RPD      0.337600
     30 OBA         1.6370    2.0470    5.2890 oh        1 RPD     -0.615800
     31 H5'1        0.1500   -1.1880   -4.8310 h1        1 RPD     -0.000300
     32 H5'2       -1.5340   -0.6570   -4.3290 h1        1 RPD     -0.000300
     33 H4         -0.1950    1.5450   -3.4440 h1        1 RPD      0.078700
     34 H3          1.9750   -0.5200   -3.8510 h1        1 RPD      0.108700
     35 HO3'        2.3240    1.5810   -4.3240 ho        1 RPD      0.506000
     36 H2          2.3810   -1.0980   -1.6030 h1        1 RPD      0.081700
     37 HO2'        2.0760    1.6480   -1.1390 ho        1 RPD      0.432000
     38 HN1        -0.3640   -2.4220   -1.6120 hn        1 RPD      0.314500
     39 H51        -2.0300   -1.1730    2.4700 h1        1 RPD      0.054700
     40 H52        -1.6030    0.6030    2.2890 h1        1 RPD      0.054700
     41 H61         0.7330   -0.0390    3.3050 hc        1 RPD      0.056700
     42 H62        -0.0050   -1.6320    3.7320 hc        1 RPD      0.056700
     43 H71        -1.8960   -0.4220    4.9140 hc        1 RPD      0.039700
     44 H72        -1.1110    1.1520    4.5160 hc        1 RPD      0.039700
     45 H81         1.0140   -0.2820    5.7390 h1        1 RPD      0.071700
     46 H10        -1.6800    0.7740    7.6620 ho        1 RPD      0.466000
     47 H111        1.1390    2.8770    7.0500 h2        1 RPD      0.032200
     48 H112       -0.1650    2.9880    5.7500 h2        1 RPD      0.032200
     49 H11         1.2510    1.5590    4.5480 ho        1 RPD      0.416000
@<TRIPOS>BOND
     1    1    4 1   
     2    2    4 1   
     3    3    4 1   
     4    4    5 1   
     5    5    6 1   
     6    6    7 1   
     7    6   31 1   
     8    6   32 1   
     9    7    8 1   
    10    7    9 1   
    11    7   33 1   
    12    8   13 1   
    13    9   10 1   
    14    9   11 1   
    15    9   34 1   
    16   10   35 1   
    17   11   12 1   
    18   11   13 1   
    19   11   36 1   
    20   12   37 1   
    21   13   14 1   
    22   13   18 1   
    23   14   15 1   
    24   14   38 1   
    25   15   16 2   
    26   15   17 1   
    27   17   18 1   
    28   17   20 1   
    29   18   19 2   
    30   20   21 1   
    31   20   39 1   
    32   20   40 1   
    33   21   22 1   
    34   21   41 1   
    35   21   42 1   
    36   22   23 1   
    37   22   43 1   
    38   22   44 1   
    39   23   24 1   
    40   23   27 1   
    41   23   45 1   
    42   24   25 1   
    43   24   26 1   
    44   27   28 1   
    45   27   29 1   
    46   28   46 1   
    47   29   30 1   
    48   29   47 1   
    49   29   48 1   
    50   30   49 1   
@<TRIPOS>SUBSTRUCTURE
     1 RPD         1 TEMP              0 ****  ****    0 ROOT
