@<TRIPOS>MOLECULE
RPD
   49    50     1     0     0
SMALL
bcc


@<TRIPOS>ATOM
      1 O1P        -4.9210   -0.8710   -5.5870 o         1 RPD     -0.933167
      2 O2P        -3.0920   -2.4030   -6.2350 o         1 RPD     -0.933167
      3 O3P        -2.6520    0.0030   -6.0070 o         1 RPD     -0.933167
      4 P          -3.4340   -1.1580   -5.4590 p5        1 RPD      1.335900
      5 O5'        -3.0750   -1.3650   -3.9650 os        1 RPD     -0.562200
      6 C5'        -3.2110   -0.2850   -3.0940 c3        1 RPD      0.240400
      7 C4'        -3.8440   -0.7090   -1.9200 c3        1 RPD      0.062100
      8 O4'        -2.8660   -1.4120   -1.0220 os        1 RPD     -0.420600
      9 C3'        -4.3730    0.5540   -1.0850 c3        1 RPD      0.130100
     10 O3'        -5.8890    0.6150   -1.1340 oh        1 RPD     -0.687800
     11 C2'        -3.9900    0.3580    0.0670 c3        1 RPD      0.134100
     12 O2'        -5.0430   -0.3560    0.8400 oh        1 RPD     -0.597800
     13 C1'        -2.6450   -0.5770   -0.0550 c3        1 RPD      0.164200
     14 N1         -2.4110   -1.2720    1.1560 n         1 RPD     -0.517900
     15 C2         -1.1310   -0.8370    1.6800 c         1 RPD      0.785500
     16 O2         -0.6310   -1.1900    2.7300 o         1 RPD     -0.650500
     17 N3         -0.5790    0.1300    0.7600 n         1 RPD     -0.516400
     18 C4         -1.4720    0.2430   -0.3460 c         1 RPD      0.714500
     19 O4         -1.3510    1.0050   -1.2810 o         1 RPD     -0.593500
     20 C5A         0.6170    0.8820    0.9550 c3        1 RPD      0.114000
     21 C6A         1.8020   -0.0730    1.0830 c3        1 RPD     -0.104400
     22 C7A         2.8660    0.5410    2.0630 c3        1 RPD     -0.070400
     23 C8A         4.2500   -0.0080    1.7230 c3        1 RPD      0.024500
     24 C9A         4.4700   -1.2670    2.4510 c         1 RPD      0.922600
     25 OJA         4.5630   -1.2610    3.7030 o         1 RPD     -0.845800
     26 OKA         4.6020   -2.3420    1.8170 o         1 RPD     -0.845800
     27 NAA         5.2540    0.9520    2.1040 n3        1 RPD     -0.508100
     28 OAA         5.1190    2.0790    1.3400 oh        1 RPD     -0.445300
     29 CBA         6.5610    0.3840    1.8960 c3        1 RPD      0.369600
     30 OBA         7.5370    1.3180    2.2500 oh        1 RPD     -0.642800
     31 H5'1       -3.7560    0.4210   -3.5270 h1        1 RPD      0.006700
     32 H5'2       -2.3070    0.0800   -2.8730 h1        1 RPD      0.006700
     33 H4         -4.5840   -1.3000   -2.1350 h1        1 RPD      0.061700
     34 H3         -3.9930    1.3630   -1.4290 h1        1 RPD      0.109700
     35 HO3'       -6.1480    1.3780   -1.5520 ho        1 RPD      0.512000
     36 H2         -3.7740    1.2010    0.4970 h1        1 RPD      0.081700
     37 HO2'       -5.4510    0.2260    1.4070 ho        1 RPD      0.428000
     38 HN1        -2.9110   -1.9230    1.4850 hn        1 RPD      0.317500
     39 H51         0.7570    1.4700    0.1970 h1        1 RPD      0.050200
     40 H52         0.5350    1.4250    1.7860 h1        1 RPD      0.050200
     41 H61         1.4880   -0.9430    1.4380 hc        1 RPD      0.054700
     42 H62         2.2090   -0.2070    0.2010 hc        1 RPD      0.054700
     43 H71         2.8710    1.5130    1.9700 hc        1 RPD      0.054700
     44 H72         2.6330    0.2990    3.0020 hc        1 RPD      0.054700
     45 H81         4.3090   -0.1760    0.7490 h1        1 RPD      0.028700
     46 H10         5.4280    2.8100    1.8120 ho        1 RPD      0.410000
     47 H111        6.6610   -0.4210    2.4510 h2        1 RPD      0.041200
     48 H112        6.6660    0.1440    0.9530 h2        1 RPD      0.041200
     49 H11         8.3350    0.9650    2.1400 ho        1 RPD      0.447000
@<TRIPOS>BOND
     1    1    4 1   
     2    2    4 1   
     3    3    4 1   
     4    4    5 1   
     5    5    6 1   
     6    6    7 1   
     7    6   31 1   
     8    6   32 1   
     9    7    8 1   
    10    7    9 1   
    11    7   33 1   
    12    8   13 1   
    13    9   10 1   
    14    9   11 1   
    15    9   34 1   
    16   10   35 1   
    17   11   12 1   
    18   11   13 1   
    19   11   36 1   
    20   12   37 1   
    21   13   14 1   
    22   13   18 1   
    23   14   15 1   
    24   14   38 1   
    25   15   16 2   
    26   15   17 1   
    27   17   18 1   
    28   17   20 1   
    29   18   19 2   
    30   20   21 1   
    31   20   39 1   
    32   20   40 1   
    33   21   22 1   
    34   21   41 1   
    35   21   42 1   
    36   22   23 1   
    37   22   43 1   
    38   22   44 1   
    39   23   24 1   
    40   23   27 1   
    41   23   45 1   
    42   24   25 1   
    43   24   26 1   
    44   27   28 1   
    45   27   29 1   
    46   28   46 1   
    47   29   30 1   
    48   29   47 1   
    49   29   48 1   
    50   30   49 1   
@<TRIPOS>SUBSTRUCTURE
     1 RPD         1 TEMP              0 ****  ****    0 ROOT
