@<TRIPOS>MOLECULE
RPD
   50    51     1     0     0
SMALL
bcc


@<TRIPOS>ATOM
      1 O1P         0.0000    0.0000    0.0000 o         1 RPD     -0.701833
      2 O2P         2.0160    1.3150   -0.7600 o         1 RPD     -0.701833
      3 O3P         2.0160   -1.3140   -0.7590 o         1 RPD     -0.701833
      4 P           1.4790    0.0000    0.0000 p5        1 RPD      0.709900
      5 O5'         2.0170    0.0000    1.5170 os        1 RPD     -0.443200
      6 C5'         1.5110   -1.1840    2.1350 c3        1 RPD      0.230400
      7 C4'         1.9850   -1.2460    3.5880 c3        1 RPD      0.151100
      8 O4'         1.4880   -0.1170    4.3260 os        1 RPD     -0.333600
      9 C3'         1.3920   -2.4880    4.2990 c3        1 RPD      0.127100
     10 O3'         2.2160   -3.6380    4.1000 oh        1 RPD     -0.556800
     11 C2'         1.4240   -2.0250    5.7820 c3        1 RPD      0.132100
     12 O2'         2.7040   -2.2720    6.3660 oh        1 RPD     -0.537800
     13 C1'         1.1610   -0.5160    5.6530 c3        1 RPD      0.085200
     14 N1         -0.2320   -0.2040    5.9810 ns        1 RPD     -0.202900
     15 C2         -0.1950    0.6260    7.0410 c         1 RPD      0.628500
     16 O2         -1.1850    1.0850    7.5750 o         1 RPD     -0.716500
     17 N3          1.0560    0.8890    7.4390 n         1 RPD     -0.148400
     18 C4          1.9650    0.2550    6.6690 c         1 RPD      0.637500
     19 O4          3.1720    0.2940    6.7750 o         1 RPD     -0.592500
     20 C5A         1.3940    1.7600    8.5670 c3        1 RPD      0.065000
     21 C6A         1.4690    0.9290    9.8490 c3        1 RPD     -0.060400
     22 C7A         1.8220    1.8380   11.0270 c3        1 RPD     -0.003400
     23 C8A         1.9850    0.9950   12.2930 c3        1 RPD     -0.147500
     24 C9A         0.6620    0.3790   12.6590 c         1 RPD      0.964600
     25 OJA        -0.1180    0.9620   13.5820 o         1 RPD     -0.843800
     26 OKA         0.3000   -0.6420   12.1220 o         1 RPD     -0.843800
     27 NAA         2.4500    1.8480   13.3940 nx        1 RPD      0.172100
     28 OAA         1.5990    3.0380   13.3920 oh        1 RPD     -0.465300
     29 CBA         3.8040    2.2960   13.0390 c3        1 RPD      0.203600
     30 OBA         4.6550    1.1610   12.8820 oh        1 RPD     -0.572800
     31 H5'1        0.4280   -1.1700    2.1090 h1        1 RPD      0.009700
     32 H5'2        1.8730   -2.0540    1.5990 h1        1 RPD      0.009700
     33 H4          3.0670   -1.2730    3.6340 h1        1 RPD      0.044700
     34 H3          0.3750   -2.6690    3.9730 h1        1 RPD      0.020700
     35 HO3'        1.6720   -4.3880    3.9240 ho        1 RPD      0.373000
     36 H2          0.6350   -2.5030    6.3500 h1        1 RPD      0.004700
     37 HO2'        2.6470   -3.0130    6.9470 ho        1 RPD      0.375000
     38 HN1        -1.0270   -0.3790    5.3980 hn        1 RPD      0.222500
     39 H51         0.6320    2.5230    8.6750 h1        1 RPD      0.030200
     40 H52         2.3530    2.2310    8.3860 h1        1 RPD      0.030200
     41 H61         0.5100    0.4580   10.0310 hc        1 RPD      0.051700
     42 H62         2.2310    0.1660    9.7410 hc        1 RPD      0.051700
     43 H71         1.0290    2.5610   11.1750 hc        1 RPD      0.021700
     44 H72         2.7490    2.3570   10.8170 hc        1 RPD      0.021700
     45 H81         2.7110    0.2110   12.1130 hx        1 RPD      0.086700
     46 H10         1.5610    3.3990   14.2620 ho        1 RPD      0.401000
     47 H111        4.1910    2.9320   13.8250 hx        1 RPD      0.034200
     48 H112        3.7680    2.8510   12.1100 hx        1 RPD      0.034200
     49 H11         5.5450    1.4070   13.0730 ho        1 RPD      0.408000
     50 HAA1        2.4300    1.3720   14.2740 hn        1 RPD      0.233800
@<TRIPOS>BOND
     1    1    4 1   
     2    2    4 1   
     3    3    4 1   
     4    4    5 1   
     5    5    6 1   
     6    6    7 1   
     7    6   31 1   
     8    6   32 1   
     9    7    8 1   
    10    7    9 1   
    11    7   33 1   
    12    8   13 1   
    13    9   10 1   
    14    9   11 1   
    15    9   34 1   
    16   10   35 1   
    17   11   12 1   
    18   11   13 1   
    19   11   36 1   
    20   12   37 1   
    21   13   14 1   
    22   13   18 1   
    23   14   15 1   
    24   14   38 1   
    25   15   16 2   
    26   15   17 1   
    27   17   18 1   
    28   17   20 1   
    29   18   19 2   
    30   20   21 1   
    31   20   39 1   
    32   20   40 1   
    33   21   22 1   
    34   21   41 1   
    35   21   42 1   
    36   22   23 1   
    37   22   43 1   
    38   22   44 1   
    39   23   24 1   
    40   23   27 1   
    41   23   45 1   
    42   24   25 1   
    43   24   26 1   
    44   27   28 1   
    45   27   29 1   
    46   27   50 1   
    47   28   46 1   
    48   29   30 1   
    49   29   47 1   
    50   29   48 1   
    51   30   49 1   
@<TRIPOS>SUBSTRUCTURE
     1 RPD         1 TEMP              0 ****  ****    0 ROOT
