@<TRIPOS>MOLECULE
RPF
   76    75     1     0     0
SMALL
bcc


@<TRIPOS>ATOM
      1 C1          5.9320   -4.2200   -2.3720 c2        1 RPF      0.145000
      2 O1          5.3610   -3.2770   -1.8280 o         1 RPF     -0.298000
      3 C2          5.7870   -0.7810    0.4650 ca        1 RPF     -0.105500
      4 C3          6.2180    0.2350   -0.3980 ca        1 RPF     -0.140000
      5 C4          6.3340   -0.0350   -1.8510 c3        1 RPF     -0.086000
      6 O2          7.6860   -0.4440   -2.2530 os        1 RPF     -0.088000
      7 C5          5.6610   -0.5310    1.8300 ca        1 RPF     -0.135000
      8 C6          5.9630    0.7320    2.3410 ca        1 RPF     -0.112000
      9 C7          6.3870    1.7480    1.4850 ca        1 RPF     -0.135000
     10 C8          6.5110    1.5030    0.1180 ca        1 RPF     -0.105500
     11 C9         11.7040   -4.4040   -1.8760 c2        1 RPF     -0.039000
     12 C10        12.9880   -4.2700   -1.4470 c2        1 RPF     -0.062000
     13 C11        13.8850   -5.4390   -1.4260 c2        1 RPF     -0.013000
     14 C12        13.4570   -6.6010   -2.3030 c3        1 RPF     -0.137000
     15 C13        11.9520   -6.8320   -2.2820 c3        1 RPF     -0.203000
     16 C14        11.1000   -5.6600   -2.2070 c1        1 RPF     -0.067000
     17 C20        10.8420    0.0420   -2.9690 c2        1 RPF      0.066000
     18 C21        10.2420    0.3110   -4.3360 c3        1 RPF     -0.080000
     19 N2         10.7480    1.4780   -5.0270 n3        1 RPF     -0.181000
     20 C22        11.0520    2.5410   -4.1450 c2        1 RPF     -0.455000
     21 C23        11.4130    2.4260   -2.8140 c2        1 RPF      0.269000
     22 N3         11.4420    0.9930   -2.2810 n         1 RPF     -0.090000
     23 C24         9.5520   -3.4580   -2.1660 c3        1 RPF     -0.069000
     24 O6         10.9440   -3.2440   -1.9320 os        1 RPF     -0.231000
     25 C25        14.8460   -0.4190    3.7600 c1        1 RPF     -0.152000
     26 C26        12.1160    0.7670   -1.0600 c2        1 RPF     -0.075000
     27 C27        12.3370   -0.4410   -0.4880 c2        1 RPF     -0.141000
     28 C28        13.0460   -0.6560    0.7410 c2        1 RPF     -0.159000
     29 C29        13.5980    0.2670    1.5710 c2        1 RPF      0.147000
     30 C30        14.2750   -0.0960    2.7580 c1        1 RPF     -0.183000
     31 O7         13.5050    1.6090    1.2670 oh        1 RPF     -0.243000
     32 C31         6.6130    2.6350   -4.2210 c2        1 RPF     -0.231000
     33 C32         7.5740    3.5000   -3.9230 c2        1 RPF     -0.231000
     34 C33         8.7480    0.0610   -1.7680 c1        1 RPF     -0.085000
     35 C34        15.6690   -7.6060   -1.7150 c3        1 RPF     -0.188000
     36 C35        15.8800   -6.4980   -0.6850 c3        1 RPF     -0.107000
     37 N1         14.9710   -5.3900   -0.7230 n2        1 RPF     -0.147000
     38 C36        14.1940   -7.8760   -1.9170 c3        1 RPF     -0.154000
     39 H1C1        6.8330    2.3120   -0.5570 ha        1 RPF      0.148000
     40 H1C2        5.3750   -5.0790   -2.8010 h4        1 RPF      0.076500
     41 H1C3        7.0400   -4.2640   -2.4630 h4        1 RPF      0.076500
     42 H4C1        5.7070   -0.9140   -2.1640 h1        1 RPF      0.129000
     43 H4C2        6.0900    0.8700   -2.4700 h1        1 RPF      0.129000
     44 H5          5.5440   -1.7760    0.0540 ha        1 RPF      0.148000
     45 H6          5.3200   -1.3310    2.5040 ha        1 RPF      0.137500
     46 H7          5.8640    0.9270    3.4190 ha        1 RPF      0.134000
     47 H8          6.6240    2.7450    1.8850 ha        1 RPF      0.137500
     48 H10        13.3830   -3.3010   -1.0950 ha        1 RPF      0.167000
     49 H13        11.6630   -7.4660   -1.3890 hc        1 RPF      0.143000
     50 H14        11.6560   -7.4280   -3.1920 hc        1 RPF      0.143000
     51 H20         9.1180   -4.0990   -1.3620 h1        1 RPF      0.090000
     52 H211       10.8430   -1.0130   -2.6220 h4        1 RPF      0.174000
     53 H212        9.1300    0.4610   -4.1840 h1        1 RPF      0.114500
     54 H2         10.3860   -0.6120   -4.9640 h1        1 RPF      0.114500
     55 H221       11.5790    1.2300   -5.5450 hn        1 RPF      0.126000
     56 H222       11.0300    3.5390   -4.5990 h4        1 RPF      0.173000
     57 H241        9.1230   -2.4210   -2.1380 h1        1 RPF      0.090000
     58 H242        9.3970   -3.9380   -3.1620 h1        1 RPF      0.090000
     59 H25        15.3540   -0.7010    4.6470 ha        1 RPF      0.230000
     60 H27        12.4680    1.7210   -0.6050 h4        1 RPF      0.220000
     61 H28        11.9690   -1.3770   -0.9540 ha        1 RPF      0.137000
     62 H30        13.1500   -1.7160    1.0350 ha        1 RPF      0.140000
     63 H311       13.9530    2.1170    1.9580 ho        1 RPF      0.228000
     64 H312        5.5480    2.8410   -4.0510 ha        1 RPF      0.115250
     65 H321        6.8230    1.6570   -4.6770 ha        1 RPF      0.115250
     66 H322        7.3660    4.4820   -3.4780 ha        1 RPF      0.115250
     67 H331        8.6430    3.2920   -4.1020 ha        1 RPF      0.115250
     68 H332        8.7100    0.8320   -0.9710 ha        1 RPF      0.075000
     69 H341       13.7590   -8.2930   -0.9710 hc        1 RPF      0.088000
     70 H342       16.1340   -7.3080   -2.6910 hc        1 RPF      0.092500
     71 H351       16.1850   -8.5370   -1.3660 hc        1 RPF      0.092500
     72 H352       15.8200   -6.9350    0.3540 h1        1 RPF      0.112000
     73 H1         16.9150   -6.0650   -0.8090 h1        1 RPF      0.112000
     74 H361       13.7560   -6.3220   -3.3560 hc        1 RPF      0.112000
     75 H362       14.0500   -8.6430   -2.7200 hc        1 RPF      0.088000
     76 O5         11.6650    3.3010   -1.9550 o         1 RPF     -0.429000
@<TRIPOS>BOND
     1    1    2 1   
     2    1   40 1   
     3    1   41 1   
     4    3    4 1   
     5    3    7 1   
     6    3   44 1   
     7    4    5 1   
     8    4   10 1   
     9    5    6 1   
    10    5   42 1   
    11    5   43 1   
    12    6   34 1   
    13    7    8 1   
    14    7   45 1   
    15    8    9 1   
    16    8   46 1   
    17    9   10 1   
    18    9   47 1   
    19   10   39 1   
    20   11   12 1   
    21   11   16 1   
    22   11   24 1   
    23   12   13 1   
    24   12   48 1   
    25   13   14 1   
    26   13   37 1   
    27   14   15 1   
    28   14   38 1   
    29   14   74 1   
    30   15   16 1   
    31   15   49 1   
    32   15   50 1   
    33   17   18 1   
    34   17   22 1   
    35   17   52 1   
    36   18   19 1   
    37   18   53 1   
    38   18   54 1   
    39   19   20 1   
    40   19   55 1   
    41   20   21 1   
    42   20   56 1   
    43   21   22 1   
    44   21   76 1   
    45   22   26 1   
    46   23   24 1   
    47   23   51 1   
    48   23   57 1   
    49   23   58 1   
    50   25   30 1   
    51   25   59 1   
    52   26   27 1   
    53   26   60 1   
    54   27   28 1   
    55   27   61 1   
    56   28   29 1   
    57   28   62 1   
    58   29   30 1   
    59   29   31 1   
    60   31   63 1   
    61   32   33 1   
    62   32   64 1   
    63   32   65 1   
    64   33   66 1   
    65   33   67 1   
    66   34   68 1   
    67   35   36 1   
    68   35   38 1   
    69   35   70 1   
    70   35   71 1   
    71   36   37 1   
    72   36   72 1   
    73   36   73 1   
    74   38   69 1   
    75   38   75 1   
@<TRIPOS>SUBSTRUCTURE
     1 RPF         1 TEMP              0 ****  ****    0 ROOT
