@<TRIPOS>MOLECULE
RPF
   76    75     1     0     0
SMALL
bcc


@<TRIPOS>ATOM
      1 C1          6.8630    2.1930   -2.6830 c2        1 RPF      0.170000
      2 O1          5.9790    1.8540   -1.8960 o         1 RPF     -0.343000
      3 C2          1.9940   -0.2140    0.8920 ca        1 RPF     -0.116500
      4 C3          3.0310    0.3080    0.1120 ca        1 RPF     -0.116000
      5 C4          4.1660   -0.5530   -0.3340 c3        1 RPF      0.008000
      6 O2          4.5360   -1.5460    0.6260 os        1 RPF     -0.254000
      7 C5          0.9220    0.5960    1.2640 ca        1 RPF     -0.137000
      8 C6          0.8790    1.9290    0.8560 ca        1 RPF     -0.129000
      9 C7          1.9120    2.4530    0.0790 ca        1 RPF     -0.137000
     10 C8          2.9880    1.6470   -0.2920 ca        1 RPF     -0.116500
     11 C9         14.6510   -3.3870   -3.4640 c2        1 RPF      0.071000
     12 C10        15.4500   -2.1960   -3.1620 c2        1 RPF     -0.219000
     13 C11        16.6810   -2.5670   -2.7910 c1        1 RPF      0.065000
     14 C12        16.0610   -5.5990   -2.3110 c2        1 RPF     -0.194000
     15 C13        15.6870   -5.6430   -3.6080 c2        1 RPF     -0.092000
     16 C14        15.2370   -4.3960   -4.1800 c2        1 RPF     -0.270000
     17 C20        12.1550   -0.6070   -3.8010 c2        1 RPF     -0.033000
     18 C21        12.7600    0.0070   -5.0420 c3        1 RPF     -0.074000
     19 N2         12.5240    1.4220   -5.2220 n3        1 RPF     -0.186000
     20 C22        11.2800    1.8510   -4.7130 c2        1 RPF     -0.384000
     21 C23        10.5060    1.2110   -3.7660 c2        1 RPF      0.250000
     22 N3         11.1110   -0.0770   -3.2080 n         1 RPF     -0.030000
     23 C24        12.8400   -4.7390   -2.7370 c3        1 RPF     -0.086000
     24 O6         13.5270   -3.4900   -2.6690 os        1 RPF     -0.247000
     25 C25        14.1950   -3.5880    0.6140 c2        1 RPF     -0.542000
     26 C26        10.5190   -0.6160   -2.0440 c2        1 RPF     -0.111000
     27 C27        10.9920   -1.6530   -1.3130 c2        1 RPF     -0.014000
     28 C28        10.3270   -2.1110   -0.1750 c1        1 RPF     -0.196000
     29 C29         9.7660   -2.5100    0.8050 c1        1 RPF      0.006000
     30 C30        15.4940   -3.6630    0.5990 c1        1 RPF      0.140000
     31 O7          9.2390   -3.0260    1.8970 oh        1 RPF     -0.146000
     32 C31         6.6420   -0.8330    1.7700 cx        1 RPF     -0.246000
     33 C32         6.0220   -1.9830    2.5160 cx        1 RPF     -0.246000
     34 C33         5.1430   -1.0120    1.7730 cx        1 RPF     -0.012000
     35 C34        18.4470   -5.3800   -1.8050 c3        1 RPF     -0.150000
     36 C35        18.2150   -3.8920   -1.4900 c3        1 RPF     -0.067000
     37 N1         17.7650   -3.1270   -2.6320 n2        1 RPF     -0.133000
     38 C36        17.2160   -6.2850   -1.7040 c3        1 RPF     -0.122000
     39 H1C1        3.8110    2.0590   -0.9020 ha        1 RPF      0.149500
     40 H1C2        7.6170    2.9660   -2.4290 h4        1 RPF      0.086500
     41 H1C3        6.9730    1.7300   -3.6860 h4        1 RPF      0.086500
     42 H4C1        3.8550   -1.1690   -1.2240 h1        1 RPF      0.112500
     43 H4C2        5.0610    0.0730   -0.6020 h1        1 RPF      0.112500
     44 H5          2.0380   -1.2670    1.2100 ha        1 RPF      0.149500
     45 H6          0.1100    0.1810    1.8780 ha        1 RPF      0.129000
     46 H7          0.0320    2.5670    1.1480 ha        1 RPF      0.127000
     47 H8          1.8800    3.5040   -0.2430 ha        1 RPF      0.129000
     48 H10        15.0510   -1.1830   -3.1290 ha        1 RPF      0.162000
     49 H13        15.7950   -4.1160   -5.0920 ha        1 RPF      0.152000
     50 H14        15.9810   -6.4540   -4.2900 ha        1 RPF      0.136000
     51 H20        11.8670   -4.5380   -2.2230 h1        1 RPF      0.093333
     52 H211       12.6400   -1.5300   -3.4140 h4        1 RPF      0.179000
     53 H212       12.2920   -0.5310   -5.9220 h1        1 RPF      0.122500
     54 H2         13.8640   -0.2180   -5.0450 h1        1 RPF      0.122500
     55 H221       13.2650    1.9600   -4.7970 hn        1 RPF      0.141000
     56 H222       10.9150    2.8010   -5.1280 h4        1 RPF      0.181000
     57 H241       12.6840   -5.0460   -3.8000 h1        1 RPF      0.093333
     58 H242       13.4270   -5.5220   -2.1950 h1        1 RPF      0.093333
     59 H25        13.5940   -3.5790   -0.3160 ha        1 RPF      0.201500
     60 H27         9.5830   -0.0810   -1.7680 h4        1 RPF      0.211000
     61 H28        11.9240   -2.2020   -1.5610 ha        1 RPF      0.155000
     62 H30        13.5780   -3.5250    1.5240 ha        1 RPF      0.201500
     63 H311        8.3920   -2.5500    2.0510 ho        1 RPF      0.256000
     64 H312        7.0750    0.0100    2.3360 hc        1 RPF      0.116750
     65 H321        7.1930   -1.0370    0.8340 hc        1 RPF      0.116750
     66 H322        6.1300   -3.0050    2.1110 hc        1 RPF      0.116750
     67 H331        6.0030   -1.9670    3.6200 hc        1 RPF      0.116750
     68 H332        4.4920   -0.2940    2.3070 h1        1 RPF      0.132000
     69 H341       17.0080   -6.5110   -0.6240 hc        1 RPF      0.091500
     70 H342       18.8950   -5.4880   -2.8270 hc        1 RPF      0.096500
     71 H351       19.2060   -5.7460   -1.0630 hc        1 RPF      0.096500
     72 H352       17.5090   -3.8100   -0.6090 h1        1 RPF      0.114500
     73 H1         19.2060   -3.4390   -1.1940 h1        1 RPF      0.114500
     74 H361       15.6190   -4.8280   -1.6460 ha        1 RPF      0.111000
     75 H362       17.4430   -7.2560   -2.2160 hc        1 RPF      0.091500
     76 O5          9.3710    1.4870   -3.3050 o         1 RPF     -0.458000
@<TRIPOS>BOND
     1    1    2 1   
     2    1   40 1   
     3    1   41 1   
     4    3    4 1   
     5    3    7 1   
     6    3   44 1   
     7    4    5 1   
     8    4   10 1   
     9    5    6 1   
    10    5   42 1   
    11    5   43 1   
    12    6   34 1   
    13    7    8 1   
    14    7   45 1   
    15    8    9 1   
    16    8   46 1   
    17    9   10 1   
    18    9   47 1   
    19   10   39 1   
    20   11   12 1   
    21   11   16 1   
    22   11   24 1   
    23   12   13 1   
    24   12   48 1   
    25   13   37 1   
    26   14   15 1   
    27   14   38 1   
    28   14   74 1   
    29   15   16 1   
    30   15   50 1   
    31   16   49 1   
    32   17   18 1   
    33   17   22 1   
    34   17   52 1   
    35   18   19 1   
    36   18   53 1   
    37   18   54 1   
    38   19   20 1   
    39   19   55 1   
    40   20   21 1   
    41   20   56 1   
    42   21   22 1   
    43   21   76 1   
    44   22   26 1   
    45   23   24 1   
    46   23   51 1   
    47   23   57 1   
    48   23   58 1   
    49   25   30 1   
    50   25   59 1   
    51   25   62 1   
    52   26   27 1   
    53   26   60 1   
    54   27   28 1   
    55   27   61 1   
    56   28   29 1   
    57   29   31 1   
    58   31   63 1   
    59   32   33 1   
    60   32   34 1   
    61   32   64 1   
    62   32   65 1   
    63   33   34 1   
    64   33   66 1   
    65   33   67 1   
    66   34   68 1   
    67   35   36 1   
    68   35   38 1   
    69   35   70 1   
    70   35   71 1   
    71   36   37 1   
    72   36   72 1   
    73   36   73 1   
    74   38   69 1   
    75   38   75 1   
@<TRIPOS>SUBSTRUCTURE
     1 RPF         1 TEMP              0 ****  ****    0 ROOT
