@<TRIPOS>MOLECULE
RPF
   76    80     1     0     0
SMALL
bcc


@<TRIPOS>ATOM
      1 C1         10.8480   -0.0420   -2.4030 c3        1 RPF      0.114700
      2 O1          9.5980   -0.0390   -1.7230 os        1 RPF     -0.334900
      3 C2          9.5780    0.5790   -0.4850 ca        1 RPF      0.121100
      4 C3          8.3260    0.5640    0.1720 ca        1 RPF     -0.110300
      5 C4          7.1750   -0.0980   -0.5060 c3        1 RPF      0.185700
      6 O2          6.0170    0.0110    0.3230 os        1 RPF     -0.424600
      7 C5         10.6900    1.1860    0.1080 ca        1 RPF     -0.203000
      8 C6         10.5550    1.7820    1.3620 ca        1 RPF     -0.096000
      9 C7          9.3270    1.7730    2.0180 ca        1 RPF     -0.164000
     10 C8          8.2190    1.1660    1.4240 ca        1 RPF     -0.076000
     11 C9         -4.9940    1.0070   -0.7940 ca        1 RPF      0.156100
     12 C10        -5.6370    1.7460    0.2080 ca        1 RPF     -0.217000
     13 C11        -5.6390    3.1550    0.1420 ca        1 RPF      0.186600
     14 C12        -5.0130    3.7950   -0.9640 ca        1 RPF     -0.166300
     15 C13        -4.3800    3.0270   -1.9370 ca        1 RPF     -0.061000
     16 C14        -4.3570    1.6370   -1.8700 ca        1 RPF     -0.241000
     17 C20        -4.3350   -2.6150   -1.0450 c3        1 RPF      0.122700
     18 C21        -5.8260   -3.0390   -1.1030 c3        1 RPF      0.146800
     19 N2         -6.0530   -4.3210   -0.4760 n3        1 RPF     -0.818200
     20 C22        -5.6510   -4.3320    0.9120 c3        1 RPF      0.090800
     21 C23        -4.2930   -3.6870    1.1950 c         1 RPF      0.711500
     22 N3         -3.6990   -2.8740    0.2350 n         1 RPF     -0.375000
     23 C24        -4.2500   -1.1410   -1.5000 c3        1 RPF      0.110400
     24 O6         -5.0810   -0.3650   -0.6340 os        1 RPF     -0.330900
     25 C25        -2.0260   -1.7380    1.6390 ca        1 RPF     -0.102000
     26 C26        -2.3810   -2.3750    0.4270 ca        1 RPF      0.020600
     27 C27        -1.4030   -2.5110   -0.5770 ca        1 RPF     -0.102000
     28 C28        -0.1160   -2.0110   -0.3930 ca        1 RPF     -0.170500
     29 C29         0.2160   -1.3790    0.8090 ca        1 RPF      0.120100
     30 C30        -0.7440   -1.2480    1.8310 ca        1 RPF     -0.170500
     31 O7          1.4520   -0.8380    1.1030 os        1 RPF     -0.325900
     32 C31         2.4730   -1.0470    0.1200 c3        1 RPF      0.130400
     33 C32         3.7320   -0.4290    0.7000 c3        1 RPF     -0.091400
     34 C33         4.8800   -0.6060   -0.2770 c3        1 RPF      0.135400
     35 C34        -6.2500    5.8560   -0.3730 c3        1 RPF     -0.099400
     36 C35        -6.3470    5.3220    1.0540 c3        1 RPF      0.193800
     37 N1         -6.1940    3.8930    1.1940 nh        1 RPF     -0.735600
     38 C36        -5.0380    5.2770   -1.0730 c3        1 RPF     -0.022100
     39 H1C1       11.1840    1.0010   -2.6160 h1        1 RPF      0.044367
     40 H1C2       11.6190   -0.5900   -1.8090 h1        1 RPF      0.044367
     41 H1C3       10.6240   -0.5870   -3.3560 h1        1 RPF      0.044367
     42 H4C1        6.9780    0.3970   -1.4970 h1        1 RPF      0.043700
     43 H4C2        7.4090   -1.1840   -0.6860 h1        1 RPF      0.043700
     44 H5         11.6640    1.2000   -0.4000 ha        1 RPF      0.136000
     45 H6         11.4280    2.2600    1.8300 ha        1 RPF      0.131000
     46 H7          9.2260    2.2430    3.0070 ha        1 RPF      0.134000
     47 H8          7.2470    1.1580    1.9420 ha        1 RPF      0.156000
     48 H10        -6.1190    1.2120    1.0390 ha        1 RPF      0.148000
     49 H13        -3.8900    3.5330   -2.7850 ha        1 RPF      0.130000
     50 H14        -3.8500    1.0590   -2.6520 ha        1 RPF      0.134000
     51 H20        -3.7750   -3.2100   -1.8320 h1        1 RPF      0.056700
     52 H211       -6.4500   -2.2160   -0.6450 h1        1 RPF      0.053700
     53 H212       -6.1080   -3.1250   -2.1900 h1        1 RPF      0.053700
     54 H2         -7.0160   -4.5890   -0.5600 hn        1 RPF      0.374800
     55 H221       -6.3860   -3.8070    1.5930 h1        1 RPF      0.068700
     56 H222       -5.5770   -5.4080    1.2410 h1        1 RPF      0.068700
     57 H241       -3.1920   -0.7700   -1.4560 h1        1 RPF      0.053700
     58 H242       -4.6410   -1.0670   -2.5490 h1        1 RPF      0.053700
     59 H25        -2.7670   -1.6520    2.4510 ha        1 RPF      0.145500
     60 H27        -1.6380   -3.0200   -1.5250 ha        1 RPF      0.145500
     61 H28         0.6240   -2.1300   -1.1960 ha        1 RPF      0.145000
     62 H30        -0.4640   -0.7560    2.7740 ha        1 RPF      0.145000
     63 H311        2.1790   -0.5430   -0.8380 h1        1 RPF      0.038200
     64 H312        2.6060   -2.1470   -0.0580 h1        1 RPF      0.038200
     65 H321        3.9830   -0.9150    1.6780 hc        1 RPF      0.072200
     66 H322        3.5660    0.6600    0.9040 hc        1 RPF      0.072200
     67 H331        4.6550   -0.1090   -1.2590 h1        1 RPF      0.027200
     68 H332        5.0910   -1.6940   -0.4590 h1        1 RPF      0.027200
     69 H341       -6.1750    6.9720   -0.3340 hc        1 RPF      0.049700
     70 H342       -7.1780    5.5950   -0.9440 hc        1 RPF      0.049700
     71 H351       -5.5280    5.7980    1.6690 h1        1 RPF      0.044700
     72 H352       -7.3330    5.6370    1.4980 h1        1 RPF      0.044700
     73 H1         -6.9540    3.4380    1.6500 hn        1 RPF      0.403800
     74 H361       -4.1020    5.6960   -0.6100 hc        1 RPF      0.050200
     75 H362       -5.0440    5.5860   -2.1520 hc        1 RPF      0.050200
     76 O5         -3.7560   -3.8960    2.2990 o         1 RPF     -0.632500
@<TRIPOS>BOND
     1    1    2 1   
     2    1   39 1   
     3    1   40 1   
     4    1   41 1   
     5    2    3 1   
     6    3    4 ar  
     7    3    7 ar  
     8    4    5 1   
     9    4   10 ar  
    10    5    6 1   
    11    5   42 1   
    12    5   43 1   
    13    6   34 1   
    14    7    8 ar  
    15    7   44 1   
    16    8    9 ar  
    17    8   45 1   
    18    9   10 ar  
    19    9   46 1   
    20   10   47 1   
    21   11   12 ar  
    22   11   16 ar  
    23   11   24 1   
    24   12   13 ar  
    25   12   48 1   
    26   13   14 ar  
    27   13   37 1   
    28   14   15 ar  
    29   14   38 1   
    30   15   16 ar  
    31   15   49 1   
    32   16   50 1   
    33   17   18 1   
    34   17   22 1   
    35   17   23 1   
    36   17   51 1   
    37   18   19 1   
    38   18   52 1   
    39   18   53 1   
    40   19   20 1   
    41   19   54 1   
    42   20   21 1   
    43   20   55 1   
    44   20   56 1   
    45   21   22 1   
    46   21   76 2   
    47   22   26 1   
    48   23   24 1   
    49   23   57 1   
    50   23   58 1   
    51   25   26 ar  
    52   25   30 ar  
    53   25   59 1   
    54   26   27 ar  
    55   27   28 ar  
    56   27   60 1   
    57   28   29 ar  
    58   28   61 1   
    59   29   30 ar  
    60   29   31 1   
    61   30   62 1   
    62   31   32 1   
    63   32   33 1   
    64   32   63 1   
    65   32   64 1   
    66   33   34 1   
    67   33   65 1   
    68   33   66 1   
    69   34   67 1   
    70   34   68 1   
    71   35   36 1   
    72   35   38 1   
    73   35   69 1   
    74   35   70 1   
    75   36   37 1   
    76   36   71 1   
    77   36   72 1   
    78   37   73 1   
    79   38   74 1   
    80   38   75 1   
@<TRIPOS>SUBSTRUCTURE
     1 RPF         1 TEMP              0 ****  ****    0 ROOT
