@<TRIPOS>MOLECULE
RPF
   76    72     1     0     0
SMALL
bcc


@<TRIPOS>ATOM
      1 C1         -1.2490   -8.9910   -1.6980 c3        1 RPF     -0.075000
      2 O1         -1.9780   -7.8130   -1.3180 os        1 RPF     -0.218000
      3 C2         -3.3450   -8.0730   -0.9400 c2        1 RPF      0.076000
      4 C3         -4.3670   -7.2810   -1.4400 c1        1 RPF     -0.105000
      5 C4         -4.0540   -6.1590   -2.4050 c2        1 RPF      0.028000
      6 O2         -4.0550   -4.9260   -1.7150 os        1 RPF     -0.287000
      7 C5         -3.6380   -9.1110   -0.0530 c2        1 RPF     -0.203000
      8 C6         -4.9650   -9.3530    0.3310 c1        1 RPF     -0.096000
      9 C7         -5.9860   -8.5600   -0.1700 c1        1 RPF     -0.163000
     10 C8         -5.6940   -7.5230   -1.0550 c2        1 RPF     -0.076000
     11 C9          2.8750    5.0350    0.1830 c1        1 RPF      0.080000
     12 C10         2.7470    6.0520    1.1760 c1        1 RPF     -0.205000
     13 C11         2.2170    7.2900    0.8380 c1        1 RPF      0.087000
     14 C12         1.7840    7.5550   -0.5560 c1        1 RPF     -0.139000
     15 C13         1.9100    6.5620   -1.5200 c1        1 RPF     -0.075000
     16 C14         2.4550    5.2910   -1.1690 c1        1 RPF     -0.204000
     17 C20         2.8920    1.7790    1.7660 c3        1 RPF     -0.035000
     18 C21         4.4930    1.9970    2.3150 c3        1 RPF     -0.092000
     19 N2          4.9860    0.6710    2.7980 n3        1 RPF     -0.277000
     20 C22         4.4180   -0.0080    3.4240 c3        1 RPF     -0.099000
     21 C23         3.1300    0.0980    3.0890 c2        1 RPF      0.274000
     22 N3          2.7530    0.6660    1.5080 n         1 RPF     -0.285000
     23 O5          2.2840   -0.4900    3.7390 o         1 RPF     -0.351000
     24 C24         2.6490    2.6560    0.4750 c3        1 RPF     -0.043000
     25 O6          3.5240    3.8080    0.5040 os        1 RPF     -0.224000
     26 C25         1.6110   -0.6710   -0.2110 c1        1 RPF     -0.142500
     27 C26         1.5380    0.2240    0.8480 c1        1 RPF      0.013000
     28 C27         0.2840    0.7340    1.2570 c1        1 RPF     -0.108000
     29 C28        -0.8820    0.3350    0.5940 c1        1 RPF     -0.151000
     30 C29        -0.8060   -0.5610   -0.4650 c1        1 RPF      0.079000
     31 C30         0.4530   -1.0690   -0.8710 c1        1 RPF     -0.142500
     32 O7         -1.9890   -0.8550   -1.2520 os        1 RPF     -0.217000
     33 C31        -2.2090   -2.2650   -1.4700 c3        1 RPF     -0.020000
     34 C32        -3.7130   -2.5210   -1.7070 c3        1 RPF     -0.165000
     35 C33        -3.8920   -3.7920   -2.5660 c3        1 RPF     -0.017000
     36 C34         0.9190    9.7620    0.2420 c3        1 RPF     -0.161000
     37 C35         1.9050    9.7000    1.3220 c3        1 RPF     -0.046000
     38 N1          2.1890    8.4570    1.8240 n3        1 RPF     -0.286000
     39 C36         1.1400    8.9330   -0.8550 c3        1 RPF     -0.113000
     40 H1C1       -1.8690   -9.6490   -2.0800 h1        1 RPF      0.084000
     41 H1C2       -0.8140   -9.3730   -0.9140 h1        1 RPF      0.084000
     42 H1C3       -0.5760   -8.7580   -2.3610 h1        1 RPF      0.084000
     43 H4C1       -4.7100   -6.1390   -3.0860 h4        1 RPF      0.083500
     44 H4C2       -3.1970   -6.3050   -2.7940 h4        1 RPF      0.083500
     45 H5         -2.9160   -9.6720    0.3010 ha        1 RPF      0.136000
     46 H6         -5.1680  -10.0740    0.9470 ha        1 RPF      0.132000
     47 H7         -6.9120   -8.7280    0.0970 ha        1 RPF      0.136000
     48 H8         -6.4240   -6.9580   -1.4110 ha        1 RPF      0.154000
     49 H10         3.0210    5.8830    2.0630 ha        1 RPF      0.145000
     50 H13         1.6240    6.7350   -2.4430 ha        1 RPF      0.134000
     51 H14         2.5410    4.6190   -1.8240 ha        1 RPF      0.142000
     52 H20         2.2660    2.0370    2.4610 h1        1 RPF      0.117000
     53 H211        4.5070    2.6390    3.0430 h1        1 RPF      0.115000
     54 H212        5.0830    2.3290    1.5480 h1        1 RPF      0.115000
     55 H2          5.3360    0.2160    2.1100 hn        1 RPF      0.158000
     56 H221        4.7630   -0.9390    3.3840 h1        1 RPF      0.126500
     57 H222        4.5450    0.2010    4.3790 h1        1 RPF      0.126500
     58 H241        2.8340    2.1350   -0.3040 h1        1 RPF      0.102000
     59 H242        1.7300    2.9490    0.4540 h1        1 RPF      0.102000
     60 H25         2.4620   -1.0150   -0.4880 ha        1 RPF      0.148000
     61 H27         0.2310    1.3630    2.0000 ha        1 RPF      0.139000
     62 H28        -1.7900    0.7020    0.8890 ha        1 RPF      0.150000
     63 H30         0.5070   -1.6910   -1.6070 ha        1 RPF      0.148000
     64 H311       -1.6950   -2.5600   -2.2600 h1        1 RPF      0.087000
     65 H312       -1.9240   -2.7480   -0.7120 h1        1 RPF      0.087000
     66 H321       -4.1710   -2.6440   -0.8310 hc        1 RPF      0.106000
     67 H322       -4.1150   -1.7350   -2.1860 hc        1 RPF      0.106000
     68 H331       -4.6640   -3.6950   -3.1180 h1        1 RPF      0.070500
     69 H332       -3.0700   -3.9230   -3.1540 h1        1 RPF      0.070500
     70 H341        0.8810   10.6660   -0.0730 hc        1 RPF      0.093000
     71 H342        0.0260    9.5310    0.6280 hc        1 RPF      0.093000
     72 H351        2.7560   10.0830    0.9720 h1        1 RPF      0.075000
     73 H352        1.5570   10.2510    2.0740 h1        1 RPF      0.075000
     74 H1          2.9990    8.4870    2.2980 hn        1 RPF      0.199000
     75 H361        1.7380    9.4240   -1.5010 hc        1 RPF      0.088500
     76 H362        0.2710    8.7760   -1.2990 hc        1 RPF      0.088500
@<TRIPOS>BOND
     1    1    2 1   
     2    1   40 1   
     3    1   41 1   
     4    1   42 1   
     5    2    3 1   
     6    3    4 1   
     7    3    7 1   
     8    4   10 1   
     9    5    6 1   
    10    5   43 1   
    11    5   44 1   
    12    6   35 1   
    13    7    8 1   
    14    7   45 1   
    15    8   46 1   
    16    9   10 1   
    17    9   47 1   
    18   10   48 1   
    19   11   16 1   
    20   11   25 1   
    21   12   13 1   
    22   12   49 1   
    23   13   38 1   
    24   14   15 1   
    25   14   39 1   
    26   15   50 1   
    27   16   51 1   
    28   17   18 1   
    29   17   22 1   
    30   17   24 1   
    31   17   52 1   
    32   18   19 1   
    33   18   53 1   
    34   18   54 1   
    35   19   20 1   
    36   19   55 1   
    37   20   21 1   
    38   20   56 1   
    39   20   57 1   
    40   21   22 1   
    41   21   23 1   
    42   22   27 1   
    43   24   25 1   
    44   24   58 1   
    45   24   59 1   
    46   26   31 1   
    47   26   60 1   
    48   27   28 1   
    49   28   61 1   
    50   29   30 1   
    51   29   62 1   
    52   30   32 1   
    53   31   63 1   
    54   32   33 1   
    55   33   34 1   
    56   33   64 1   
    57   33   65 1   
    58   34   35 1   
    59   34   66 1   
    60   34   67 1   
    61   35   68 1   
    62   35   69 1   
    63   36   37 1   
    64   36   39 1   
    65   36   70 1   
    66   36   71 1   
    67   37   38 1   
    68   37   72 1   
    69   37   73 1   
    70   38   74 1   
    71   39   75 1   
    72   39   76 1   
@<TRIPOS>SUBSTRUCTURE
     1 RPF         1 TEMP              0 ****  ****    0 ROOT
