@<TRIPOS>MOLECULE
RPH
   27    28     1     0     0
SMALL
bcc


@<TRIPOS>ATOM
      1 O2          1.2080    0.6610   -0.9350 o         1 RPH     -0.529100
      2 OH2        -1.1410   -3.1210    4.7940 oh        1 RPH     -0.601800
      3 N5          1.0300    0.1350    2.5250 n3        1 RPH     -0.809200
      4 C7          0.9940   -0.0200    0.0670 c         1 RPH      0.577900
      5 C8          1.8580    0.1120    1.3130 c3        1 RPH      0.046500
      6 C9          2.8100   -1.1050    1.4000 c3        1 RPH     -0.085400
      7 C10         2.3220   -1.9120    2.6100 c3        1 RPH     -0.065700
      8 C11         1.4460   -3.0630    2.1490 c3        1 RPH     -0.069400
      9 C12         0.5810   -3.6240    3.2530 c3        1 RPH     -0.074400
     10 C13        -0.3070   -2.5170    3.8110 c3        1 RPH      0.144100
     11 C14         0.5480   -1.4220    4.4310 c3        1 RPH     -0.099400
     12 C15         1.5810   -0.8510    3.4670 c3        1 RPH      0.177500
     13 HN5         1.0160    1.0480    2.9330 hn        1 RPH      0.366800
     14 H7          0.1810   -0.7760    0.1120 h4        1 RPH      0.013200
     15 H8          2.4690    1.0570    1.2130 h1        1 RPH      0.060700
     16 H91         2.7880   -1.7090    0.4620 hc        1 RPH      0.057200
     17 H92         3.8580   -0.7530    1.5590 hc        1 RPH      0.057200
     18 H10         3.1840   -2.3170    3.2000 hc        1 RPH      0.061700
     19 H111        0.7840   -2.7120    1.3120 hc        1 RPH      0.044700
     20 H112        2.1020   -3.8760    1.7390 hc        1 RPH      0.044700
     21 H121       -0.0620   -4.4520    2.8570 hc        1 RPH      0.056200
     22 H122        1.2100   -4.0480    4.0760 hc        1 RPH      0.056200
     23 H13        -0.9500   -2.0860    2.9920 h1        1 RPH      0.046700
     24 H141        1.0950   -1.8510    5.3120 hc        1 RPH      0.050700
     25 H142       -0.1160   -0.6030    4.8150 hc        1 RPH      0.050700
     26 H15         2.3710   -0.3540    4.1160 h1        1 RPH      0.021700
     27 HO2        -1.6990   -2.4200    5.1510 ho        1 RPH      0.399000
@<TRIPOS>BOND
     1    1    4 2   
     2    2   10 1   
     3    2   27 1   
     4    3    5 1   
     5    3   12 1   
     6    3   13 1   
     7    4    5 1   
     8    4   14 1   
     9    5    6 1   
    10    5   15 1   
    11    6    7 1   
    12    6   16 1   
    13    6   17 1   
    14    7    8 1   
    15    7   12 1   
    16    7   18 1   
    17    8    9 1   
    18    8   19 1   
    19    8   20 1   
    20    9   10 1   
    21    9   21 1   
    22    9   22 1   
    23   10   11 1   
    24   10   23 1   
    25   11   12 1   
    26   11   24 1   
    27   11   25 1   
    28   12   26 1   
@<TRIPOS>SUBSTRUCTURE
     1 RPH         1 TEMP              0 ****  ****    0 ROOT
