@<TRIPOS>MOLECULE
RPH
   27    28     1     0     0
SMALL
bcc


@<TRIPOS>ATOM
      1 O2          1.0560    0.4080   -3.9000 o         1 RPH     -0.530100
      2 OH2         0.9530    0.0870    3.3720 oh        1 RPH     -0.602800
      3 N5          0.4540   -1.2600   -0.8650 n3        1 RPH     -0.809200
      4 C7          0.8740    0.3480   -2.6850 c         1 RPH      0.576900
      5 C8         -0.1020   -0.6510   -2.0790 c3        1 RPH      0.046500
      6 C9         -1.4070    0.0890   -1.6930 c3        1 RPH     -0.084400
      7 C10        -1.4460    0.0610   -0.1590 c3        1 RPH     -0.065700
      8 C11        -0.9300    1.3750    0.3980 c3        1 RPH     -0.065400
      9 C12        -0.5220    1.2750    1.8480 c3        1 RPH     -0.112400
     10 C13         0.5560    0.2080    2.0100 c3        1 RPH      0.145100
     11 C14         0.0130   -1.1540    1.6030 c3        1 RPH     -0.062400
     12 C15        -0.5630   -1.1660    0.1930 c3        1 RPH      0.175500
     13 HN5         0.7150   -2.2120   -1.0260 hn        1 RPH      0.368800
     14 H7          1.3900    1.0250   -1.9700 h4        1 RPH      0.012200
     15 H8         -0.3340   -1.4290   -2.8640 h1        1 RPH      0.060700
     16 H91        -2.2870   -0.4520   -2.1190 hc        1 RPH      0.056700
     17 H92        -1.4170    1.1330   -2.0900 hc        1 RPH      0.056700
     18 H10        -2.4860   -0.1180    0.2150 hc        1 RPH      0.061700
     19 H111       -1.7270    2.1560    0.2840 hc        1 RPH      0.044200
     20 H112       -0.0430    1.7100   -0.2060 hc        1 RPH      0.044200
     21 H121       -1.4030    1.0150    2.4900 hc        1 RPH      0.047700
     22 H122       -0.1300    2.2640    2.2000 hc        1 RPH      0.047700
     23 H13         1.4530    0.4710    1.3820 h1        1 RPH      0.047700
     24 H141        0.8300   -1.9160    1.7010 hc        1 RPH      0.059700
     25 H142       -0.8030   -1.4430    2.3180 hc        1 RPH      0.059700
     26 H15        -1.2440   -2.0750    0.1460 h1        1 RPH      0.021700
     27 HO2         1.2830    0.9520    3.6400 ho        1 RPH      0.399000
@<TRIPOS>BOND
     1    1    4 2   
     2    2   10 1   
     3    2   27 1   
     4    3    5 1   
     5    3   12 1   
     6    3   13 1   
     7    4    5 1   
     8    4   14 1   
     9    5    6 1   
    10    5   15 1   
    11    6    7 1   
    12    6   16 1   
    13    6   17 1   
    14    7    8 1   
    15    7   12 1   
    16    7   18 1   
    17    8    9 1   
    18    8   19 1   
    19    8   20 1   
    20    9   10 1   
    21    9   21 1   
    22    9   22 1   
    23   10   11 1   
    24   10   23 1   
    25   11   12 1   
    26   11   24 1   
    27   11   25 1   
    28   12   26 1   
@<TRIPOS>SUBSTRUCTURE
     1 RPH         1 TEMP              0 ****  ****    0 ROOT
