@<TRIPOS>MOLECULE
RPH
   27    27     1     0     0
SMALL
bcc


@<TRIPOS>ATOM
      1 O2         -2.8340   -2.0450   -0.5850 o         1 RPH     -0.281000
      2 OH2         2.1330    2.1910   -1.7420 oh        1 RPH     -0.325000
      3 N5          0.6430   -1.6890    0.3800 n3        1 RPH     -0.255000
      4 C7         -1.6160   -2.0020   -0.5930 c1        1 RPH      0.174000
      5 C8         -0.8860   -1.9990    0.6540 c2        1 RPH     -0.115000
      6 C9         -1.2370   -0.9300    1.5500 c3        1 RPH     -0.170000
      7 C10        -0.3120    0.2570    1.1970 c3        1 RPH     -0.131000
      8 C11        -0.9780    0.8460   -0.1220 c3        1 RPH     -0.149000
      9 C12        -0.0750    1.7650   -0.8750 c3        1 RPH     -0.193000
     10 C13         1.2480    1.1640   -1.1280 c3        1 RPH      0.029000
     11 C14         1.8710    0.6750    0.0920 c3        1 RPH     -0.157000
     12 C15         0.8970   -0.2810    0.9590 c3        1 RPH     -0.041000
     13 HO2         2.3330    1.9500   -2.5790 ho        1 RPH      0.200000
     14 HN5         0.7950   -1.6800   -0.5180 hn        1 RPH      0.141000
     15 H7         -1.1360   -2.0410   -1.4360 ha        1 RPH      0.095000
     16 H8         -1.1250   -2.8730    1.0230 h4        1 RPH      0.131000
     17 H91        -1.0930   -1.2040    2.4710 hc        1 RPH      0.103500
     18 H92        -2.1690   -0.6770    1.4180 hc        1 RPH      0.103500
     19 H10        -0.2830    0.9230    1.9230 hc        1 RPH      0.104000
     20 H111       -1.2290    0.0940   -0.7130 hc        1 RPH      0.084000
     21 H112       -1.7790    1.3300    0.1240 hc        1 RPH      0.084000
     22 H121        0.0470    2.6050   -0.3460 hc        1 RPH      0.089500
     23 H122       -0.4880    1.9850   -1.7250 hc        1 RPH      0.089500
     24 H13         1.1430    0.4170   -1.7530 h1        1 RPH      0.068000
     25 H141        2.6700    0.1740   -0.1440 hc        1 RPH      0.106500
     26 H142        2.1320    1.4490    0.6470 hc        1 RPH      0.106500
     27 H15         1.3260   -0.4050    1.8220 h1        1 RPH      0.106000
@<TRIPOS>BOND
     1    1    4 1   
     2    2   10 1   
     3    2   13 1   
     4    3    5 1   
     5    3   12 1   
     6    3   14 1   
     7    4   15 1   
     8    5    6 1   
     9    5   16 1   
    10    6    7 1   
    11    6   17 1   
    12    6   18 1   
    13    7    8 1   
    14    7   12 1   
    15    7   19 1   
    16    8    9 1   
    17    8   20 1   
    18    8   21 1   
    19    9   10 1   
    20    9   22 1   
    21    9   23 1   
    22   10   11 1   
    23   10   24 1   
    24   11   12 1   
    25   11   25 1   
    26   11   26 1   
    27   12   27 1   
@<TRIPOS>SUBSTRUCTURE
     1 RPH         1 TEMP              0 ****  ****    0 ROOT
