@<TRIPOS>MOLECULE
RPH
   27    28     1     0     0
SMALL
bcc


@<TRIPOS>ATOM
      1 O2          1.2280    0.7830   -0.8610 o         1 RPH     -0.530100
      2 OH2        -1.1110   -2.9640    4.9250 oh        1 RPH     -0.602800
      3 N5          1.0710    0.1710    2.5950 n3        1 RPH     -0.809200
      4 C7          0.9910    0.1000    0.1340 c         1 RPH      0.576900
      5 C8          1.8780    0.1660    1.3700 c3        1 RPH      0.046500
      6 C9          2.7950   -1.0820    1.4010 c3        1 RPH     -0.084400
      7 C10         2.3090   -1.9080    2.5990 c3        1 RPH     -0.065700
      8 C11         1.3820   -3.0130    2.1280 c3        1 RPH     -0.065400
      9 C12         0.5290   -3.5750    3.2390 c3        1 RPH     -0.111400
     10 C13        -0.3020   -2.4610    3.8660 c3        1 RPH      0.145100
     11 C14         0.6070   -1.4110    4.4880 c3        1 RPH     -0.062400
     12 C15         1.6230   -0.8480    3.5020 c3        1 RPH      0.175500
     13 HN5         1.0770    1.0730    3.0270 hn        1 RPH      0.368800
     14 H7          0.1390   -0.6110    0.1790 h4        1 RPH      0.012200
     15 H8          2.5160    1.0950    1.2890 h1        1 RPH      0.060700
     16 H91         2.7330   -1.6580    0.4460 hc        1 RPH      0.056700
     17 H92         3.8570   -0.7660    1.5450 hc        1 RPH      0.056700
     18 H10         3.1710   -2.3570    3.1550 hc        1 RPH      0.061700
     19 H111        1.9980   -3.8330    1.6730 hc        1 RPH      0.044200
     20 H112        0.7090   -2.6120    1.3220 hc        1 RPH      0.044200
     21 H121       -0.1490   -4.3690    2.8310 hc        1 RPH      0.047700
     22 H122        1.1700   -4.0500    4.0260 hc        1 RPH      0.047700
     23 H13        -0.9630   -1.9890    3.0860 h1        1 RPH      0.047700
     24 H141       -0.0240   -0.5890    4.9150 hc        1 RPH      0.059700
     25 H142        1.1680   -1.8810    5.3390 hc        1 RPH      0.059700
     26 H15         2.4450   -0.3860    4.1360 h1        1 RPH      0.021700
     27 HO2        -1.6780   -3.6410    4.5400 ho        1 RPH      0.399000
@<TRIPOS>BOND
     1    1    4 2   
     2    2   10 1   
     3    2   27 1   
     4    3    5 1   
     5    3   12 1   
     6    3   13 1   
     7    4    5 1   
     8    4   14 1   
     9    5    6 1   
    10    5   15 1   
    11    6    7 1   
    12    6   16 1   
    13    6   17 1   
    14    7    8 1   
    15    7   12 1   
    16    7   18 1   
    17    8    9 1   
    18    8   19 1   
    19    8   20 1   
    20    9   10 1   
    21    9   21 1   
    22    9   22 1   
    23   10   11 1   
    24   10   23 1   
    25   11   12 1   
    26   11   24 1   
    27   11   25 1   
    28   12   26 1   
@<TRIPOS>SUBSTRUCTURE
     1 RPH         1 TEMP              0 ****  ****    0 ROOT
