@<TRIPOS>MOLECULE
RPL
   49    50     1     0     0
SMALL
bcc


@<TRIPOS>ATOM
      1 O1P         0.1480   -1.6730   -7.2780 o         1 RPL     -0.933500
      2 O2P         0.3930    0.6710   -8.2990 o         1 RPL     -0.933500
      3 O3P         1.8230   -0.0440   -6.2900 o         1 RPL     -0.933500
      4 P           0.5700   -0.2390   -7.1220 p5        1 RPL      1.333900
      5 O5'        -0.5880    0.3540   -5.9630 os        1 RPL     -0.559200
      6 C5'        -0.6230   -0.3580   -4.7950 c3        1 RPL      0.231400
      7 C4'         0.1140    0.4050   -3.6670 c3        1 RPL      0.063100
      8 O4'        -0.5950    0.2090   -2.4150 os        1 RPL     -0.436600
      9 C3'         1.5720   -0.0440   -3.4670 c3        1 RPL      0.128100
     10 O3'         2.4690    0.9850   -3.8140 oh        1 RPL     -0.671800
     11 C2'         1.7260   -0.3440   -1.9580 c3        1 RPL      0.138100
     12 O2'         2.5560    0.5550   -1.2660 oh        1 RPL     -0.596800
     13 C1'         0.2660   -0.2950   -1.4050 c3        1 RPL      0.166200
     14 N1         -0.2280   -1.6160   -0.9380 n         1 RPL     -0.508900
     15 C2         -0.8480   -1.4410    0.3340 c         1 RPL      0.780500
     16 O2         -1.5080   -2.3100    0.9350 o         1 RPL     -0.652500
     17 N3         -0.5640   -0.1410    0.8440 n         1 RPL     -0.518400
     18 C4          0.1070    0.6220   -0.1380 c         1 RPL      0.714500
     19 O4          0.4700    1.7910   -0.0080 o         1 RPL     -0.585500
     20 C5A        -1.0010    0.3280    2.1300 c3        1 RPL      0.114000
     21 C6A        -0.1100   -0.0350    3.3210 c3        1 RPL     -0.097400
     22 C7A        -0.7200    0.5300    4.5880 c3        1 RPL     -0.048400
     23 C8A         0.1600    0.3340    5.8210 c3        1 RPL     -0.014500
     24 C9A        -0.4190    1.1810    6.9970 c         1 RPL      0.883600
     25 OJA        -1.5930    0.9260    7.3930 o         1 RPL     -0.843800
     26 OKA         0.3500    2.0220    7.5460 o         1 RPL     -0.843800
     27 NAA         0.3190   -1.0910    6.2150 n3        1 RPL     -0.449100
     28 OAA        -0.8510   -1.7040    6.4050 oh        1 RPL     -0.435300
     29 CBA         1.1070   -1.1950    7.4840 c3        1 RPL      0.325600
     30 OBA         2.2190   -0.3310    7.5970 oh        1 RPL     -0.637800
     31 H5'1       -0.1650   -1.3790   -4.9280 h1        1 RPL     -0.000300
     32 H5'2       -1.6960   -0.4810   -4.4580 h1        1 RPL     -0.000300
     33 H4          0.0680    1.5090   -3.8700 h1        1 RPL      0.078700
     34 H3          1.7950   -0.9630   -4.0770 h1        1 RPL      0.108700
     35 HO3'        2.5090    0.9670   -4.8000 ho        1 RPL      0.506000
     36 H2          2.1880   -1.3530   -1.7860 h1        1 RPL      0.081700
     37 HO2'        2.4010    1.4370   -1.6350 ho        1 RPL      0.431000
     38 HN1        -0.7590   -2.1310   -1.6080 hn        1 RPL      0.314500
     39 H51        -2.0300   -0.0960    2.3170 h1        1 RPL      0.052700
     40 H52        -1.0750    1.4520    2.0630 h1        1 RPL      0.052700
     41 H61         0.9200    0.3800    3.1730 hc        1 RPL      0.057200
     42 H62        -0.0190   -1.1490    3.4070 hc        1 RPL      0.057200
     43 H71        -1.7240    0.0640    4.7720 hc        1 RPL      0.044700
     44 H72        -0.8770    1.6350    4.4720 hc        1 RPL      0.044700
     45 H81         1.2000    0.6970    5.5830 h1        1 RPL      0.071700
     46 H10        -1.4860   -1.1020    6.8600 ho        1 RPL      0.414000
     47 H111        1.5530   -2.2290    7.4860 h2        1 RPL      0.030700
     48 H112        0.4320   -1.0630    8.3810 h2        1 RPL      0.030700
     49 H11         1.8900    0.5840    7.6570 ho        1 RPL      0.446000
@<TRIPOS>BOND
     1    1    4 1   
     2    2    4 1   
     3    3    4 1   
     4    4    5 1   
     5    5    6 1   
     6    6    7 1   
     7    6   31 1   
     8    6   32 1   
     9    7    8 1   
    10    7    9 1   
    11    7   33 1   
    12    8   13 1   
    13    9   10 1   
    14    9   11 1   
    15    9   34 1   
    16   10   35 1   
    17   11   12 1   
    18   11   13 1   
    19   11   36 1   
    20   12   37 1   
    21   13   14 1   
    22   13   18 1   
    23   14   15 1   
    24   14   38 1   
    25   15   16 2   
    26   15   17 1   
    27   17   18 1   
    28   17   20 1   
    29   18   19 2   
    30   20   21 1   
    31   20   39 1   
    32   20   40 1   
    33   21   22 1   
    34   21   41 1   
    35   21   42 1   
    36   22   23 1   
    37   22   43 1   
    38   22   44 1   
    39   23   24 1   
    40   23   27 1   
    41   23   45 1   
    42   24   25 1   
    43   24   26 1   
    44   27   28 1   
    45   27   29 1   
    46   28   46 1   
    47   29   30 1   
    48   29   47 1   
    49   29   48 1   
    50   30   49 1   
@<TRIPOS>SUBSTRUCTURE
     1 RPL         1 TEMP              0 ****  ****    0 ROOT
