@<TRIPOS>MOLECULE
RPL
   50    51     1     0     0
SMALL
bcc


@<TRIPOS>ATOM
      1 O1P         0.0000    0.0000    0.0000 o         1 RPL     -0.719833
      2 O2P         2.0160    1.3140   -0.7600 o         1 RPL     -0.719833
      3 O3P         2.0160   -1.3140   -0.7590 o         1 RPL     -0.719833
      4 P           1.4800    0.0000    0.0000 p5        1 RPL      0.693900
      5 O5'         2.0160    0.0000    1.5190 os        1 RPL     -0.442200
      6 C5'         1.5090   -1.1830    2.1350 c3        1 RPL      0.230400
      7 C4'         1.9840   -1.2450    3.5890 c3        1 RPL      0.148100
      8 O4'         1.4850   -0.1150    4.3250 os        1 RPL     -0.325600
      9 C3'         1.3890   -2.4870    4.2990 c3        1 RPL      0.128100
     10 O3'         2.2140   -3.6380    4.1000 oh        1 RPL     -0.555800
     11 C2'         1.4210   -2.0240    5.7830 c3        1 RPL      0.130100
     12 O2'         2.7010   -2.2720    6.3670 oh        1 RPL     -0.533800
     13 C1'         1.1590   -0.5150    5.6530 c3        1 RPL      0.085200
     14 N1         -0.2350   -0.2030    5.9800 ns        1 RPL     -0.197900
     15 C2         -0.1980    0.6280    7.0400 c         1 RPL      0.628500
     16 O2         -1.1890    1.0880    7.5740 o         1 RPL     -0.740500
     17 N3          1.0530    0.8900    7.4390 n         1 RPL     -0.161400
     18 C4          1.9630    0.2570    6.6700 c         1 RPL      0.632500
     19 O4          3.1690    0.2950    6.7760 o         1 RPL     -0.569500
     20 C5A         1.3910    1.7610    8.5670 c3        1 RPL      0.071000
     21 C6A         1.4640    0.9310    9.8490 c3        1 RPL     -0.071400
     22 C7A         1.8180    1.8400   11.0280 c3        1 RPL     -0.020400
     23 C8A         1.8910    1.0090   12.3100 c3        1 RPL     -0.143500
     24 C9A         2.2400    1.9050   13.4700 c         1 RPL      0.964600
     25 OJA         1.2650    2.4980   14.1770 o         1 RPL     -0.835800
     26 OKA         3.3970    2.0890   13.7640 o         1 RPL     -0.835800
     27 NAA         0.5900    0.3750   12.5560 nx        1 RPL      0.169100
     28 OAA        -0.3570    1.4510   12.8400 oh        1 RPL     -0.395300
     29 CBA         0.7280   -0.4040   13.7940 c3        1 RPL      0.208600
     30 OBA         1.7510   -1.3880   13.6270 oh        1 RPL     -0.583800
     31 H5'1        0.4260   -1.1690    2.1090 h1        1 RPL      0.009700
     32 H5'2        1.8710   -2.0530    1.5990 h1        1 RPL      0.009700
     33 H4          3.0660   -1.2720    3.6350 h1        1 RPL      0.047700
     34 H3          0.3720   -2.6670    3.9730 h1        1 RPL      0.021700
     35 HO3'        1.6720   -4.3790    3.8860 ho        1 RPL      0.374000
     36 H2          0.6320   -2.5020    6.3500 h1        1 RPL     -0.006300
     37 HO2'        2.6510   -3.0320    6.9230 ho        1 RPL      0.372000
     38 HN1        -1.0290   -0.3760    5.3960 hn        1 RPL      0.224500
     39 H51         2.3500    2.2310    8.3860 h1        1 RPL      0.043700
     40 H52         0.6300    2.5250    8.6750 h1        1 RPL      0.043700
     41 H61         2.2250    0.1670    9.7410 hc        1 RPL      0.013200
     42 H62         0.5050    0.4610   10.0300 hc        1 RPL      0.013200
     43 H71         2.7770    2.3090   10.8460 hc        1 RPL      0.053200
     44 H72         1.0570    2.6030   11.1350 hc        1 RPL      0.053200
     45 H81         2.6510    0.2440   12.2020 hx        1 RPL      0.087700
     46 H10        -1.2380    1.1220   12.7690 ho        1 RPL      0.378000
     47 H111       -0.2110   -0.8950   14.0180 hx        1 RPL      0.057700
     48 H112        0.9940    0.2580   14.6100 hx        1 RPL      0.057700
     49 H11         1.6880   -2.0270   14.3170 ho        1 RPL      0.416000
     50 HAA1        0.2950   -0.1920   11.7850 hn        1 RPL      0.212800
@<TRIPOS>BOND
     1    1    4 1   
     2    2    4 1   
     3    3    4 1   
     4    4    5 1   
     5    5    6 1   
     6    6    7 1   
     7    6   31 1   
     8    6   32 1   
     9    7    8 1   
    10    7    9 1   
    11    7   33 1   
    12    8   13 1   
    13    9   10 1   
    14    9   11 1   
    15    9   34 1   
    16   10   35 1   
    17   11   12 1   
    18   11   13 1   
    19   11   36 1   
    20   12   37 1   
    21   13   14 1   
    22   13   18 1   
    23   14   15 1   
    24   14   38 1   
    25   15   16 2   
    26   15   17 1   
    27   17   18 1   
    28   17   20 1   
    29   18   19 2   
    30   20   21 1   
    31   20   39 1   
    32   20   40 1   
    33   21   22 1   
    34   21   41 1   
    35   21   42 1   
    36   22   23 1   
    37   22   43 1   
    38   22   44 1   
    39   23   24 1   
    40   23   27 1   
    41   23   45 1   
    42   24   25 1   
    43   24   26 1   
    44   27   28 1   
    45   27   29 1   
    46   27   50 1   
    47   28   46 1   
    48   29   30 1   
    49   29   47 1   
    50   29   48 1   
    51   30   49 1   
@<TRIPOS>SUBSTRUCTURE
     1 RPL         1 TEMP              0 ****  ****    0 ROOT
