@<TRIPOS>MOLECULE
RPL
   49    50     1     0     0
SMALL
bcc


@<TRIPOS>ATOM
      1 O1P        -0.3340   -1.9410   -0.0530 o         1 RPL     -0.932833
      2 O2P         1.8570   -1.4630   -1.3060 o         1 RPL     -0.932833
      3 O3P         1.8730   -2.6810    0.9540 o         1 RPL     -0.932833
      4 P           1.1570   -1.7600   -0.0150 p5        1 RPL      1.333900
      5 O5'         1.3170   -0.2810    0.8920 os        1 RPL     -0.559200
      6 C5'         0.7150   -0.3120    2.1200 c3        1 RPL      0.232400
      7 C4'         1.7680   -0.5020    3.2400 c3        1 RPL      0.063100
      8 O4'         1.3790    0.2830    4.3980 os        1 RPL     -0.434600
      9 C3'         1.9380   -1.9640    3.6870 c3        1 RPL      0.128100
     10 O3'         3.2160   -2.4500    3.3470 oh        1 RPL     -0.671800
     11 C2'         1.8070   -1.9600    5.2280 c3        1 RPL      0.137100
     12 O2'         2.9920   -2.2700    5.9160 oh        1 RPL     -0.598800
     13 C1'         1.3230   -0.5140    5.5700 c3        1 RPL      0.167200
     14 N1         -0.0480   -0.4760    6.1400 n         1 RPL     -0.508900
     15 C2         -0.0330    0.3570    7.2970 c         1 RPL      0.781500
     16 O2         -1.0420    0.7150    7.9370 o         1 RPL     -0.656500
     17 N3          1.3080    0.6780    7.6550 n         1 RPL     -0.521400
     18 C4          2.1980    0.1840    6.6740 c         1 RPL      0.714500
     19 O4          3.4220    0.3070    6.6990 o         1 RPL     -0.586500
     20 C5A         1.6680    1.4220    8.8310 c3        1 RPL      0.114000
     21 C6A         1.4830    0.6890   10.1620 c3        1 RPL     -0.100400
     22 C7A         1.7780    1.6340   11.3090 c3        1 RPL     -0.065400
     23 C8A         1.7780    0.9480   12.6750 c3        1 RPL      0.024500
     24 C9A         2.3600    1.9170   13.7550 c         1 RPL      0.902600
     25 OJA         2.4940    1.4580   14.9280 o         1 RPL     -0.844800
     26 OKA         2.7070    3.0790   13.4140 o         1 RPL     -0.844800
     27 NAA         0.4700    0.3260   12.9990 n3        1 RPL     -0.522100
     28 OAA        -0.5540    1.1950   12.8790 oh        1 RPL     -0.431300
     29 CBA         0.4530   -0.2020   14.3800 c3        1 RPL      0.357600
     30 OBA        -0.5820   -1.1660   14.5670 oh        1 RPL     -0.639800
     31 H5'1       -0.0530   -1.1350    2.1750 h1        1 RPL     -0.000300
     32 H5'2        0.2040    0.6780    2.3170 h1        1 RPL     -0.000300
     33 H4          2.7520   -0.0770    2.9040 h1        1 RPL      0.078700
     34 H3          1.1480   -2.6180    3.2250 h1        1 RPL      0.109700
     35 HO3'        3.1590   -2.6660    2.3850 ho        1 RPL      0.506000
     36 H2          1.0630   -2.7260    5.5760 h1        1 RPL      0.080700
     37 HO2'        3.7270   -1.8720    5.4250 ho        1 RPL      0.432000
     38 HN1        -0.7760   -0.2910    5.4840 hn        1 RPL      0.315500
     39 H51         1.0380    2.3590    8.8530 h1        1 RPL      0.054700
     40 H52         2.7510    1.7170    8.7200 h1        1 RPL      0.054700
     41 H61         2.1670   -0.1960   10.2100 hc        1 RPL      0.047200
     42 H62         0.4310    0.3060   10.2340 hc        1 RPL      0.047200
     43 H71         1.0400    2.4790   11.3170 hc        1 RPL      0.055700
     44 H72         2.7940    2.0940   11.1780 hc        1 RPL      0.055700
     45 H81         2.4870    0.0690   12.6300 h1        1 RPL      0.045700
     46 H10        -0.7850    1.1700   11.9320 ho        1 RPL      0.406000
     47 H111        1.4500   -0.6860   14.5790 h2        1 RPL      0.073700
     48 H112        0.2470    0.5910   15.1550 h2        1 RPL      0.073700
     49 H11        -0.6340   -1.7150   13.7770 ho        1 RPL      0.393000
@<TRIPOS>BOND
     1    1    4 1   
     2    2    4 1   
     3    3    4 1   
     4    4    5 1   
     5    5    6 1   
     6    6    7 1   
     7    6   31 1   
     8    6   32 1   
     9    7    8 1   
    10    7    9 1   
    11    7   33 1   
    12    8   13 1   
    13    9   10 1   
    14    9   11 1   
    15    9   34 1   
    16   10   35 1   
    17   11   12 1   
    18   11   13 1   
    19   11   36 1   
    20   12   37 1   
    21   13   14 1   
    22   13   18 1   
    23   14   15 1   
    24   14   38 1   
    25   15   16 2   
    26   15   17 1   
    27   17   18 1   
    28   17   20 1   
    29   18   19 2   
    30   20   21 1   
    31   20   39 1   
    32   20   40 1   
    33   21   22 1   
    34   21   41 1   
    35   21   42 1   
    36   22   23 1   
    37   22   43 1   
    38   22   44 1   
    39   23   24 1   
    40   23   27 1   
    41   23   45 1   
    42   24   25 1   
    43   24   26 1   
    44   27   28 1   
    45   27   29 1   
    46   28   46 1   
    47   29   30 1   
    48   29   47 1   
    49   29   48 1   
    50   30   49 1   
@<TRIPOS>SUBSTRUCTURE
     1 RPL         1 TEMP              0 ****  ****    0 ROOT
