@<TRIPOS>MOLECULE
RPN
   23    23     1     0     0
SMALL
bcc


@<TRIPOS>ATOM
      1 C1         -0.2540    0.2970    0.0570 c3        1 RPN      0.135800
      2 C2          1.2800    0.1230    0.0030 c3        1 RPN      0.151400
      3 O3          1.7980   -0.0740    1.3080 oh        1 RPN     -0.588800
      4 C4          1.9000    1.2990   -0.6960 ca        1 RPN     -0.076300
      5 N5         -1.0140   -0.8630    0.4570 n2        1 RPN     -0.446200
      6 N6         -0.7980   -1.4510    1.5480 n1        1 RPN      0.224000
      7 N7         -0.7570   -2.1150    2.4650 n1        1 RPN     -0.033000
      8 C8          2.5200    1.1170   -1.9360 ca        1 RPN     -0.130000
      9 C9          3.0980    2.1930   -2.6060 ca        1 RPN     -0.063500
     10 C10         3.0520    3.4670   -2.0180 ca        1 RPN     -0.171200
     11 C11         2.4340    3.6640   -0.7730 ca        1 RPN     -0.063500
     12 C12         1.8610    2.5750   -0.1220 ca        1 RPN     -0.130000
     13 N13         3.6670    4.6240   -2.7230 no        1 RPN      0.313200
     14 O14         4.1910    4.4430   -3.7890 o         1 RPN     -0.204000
     15 O15         3.6220    5.7090   -2.2070 o         1 RPN     -0.204000
     16 HC11       -0.4820    1.1950    0.7010 h1        1 RPN      0.068700
     17 HC12       -0.6370    0.5010   -0.9840 h1        1 RPN      0.068700
     18 HC2         1.5460   -0.8350   -0.5340 h1        1 RPN      0.099700
     19 H03         1.7570    0.7680    1.7780 ho        1 RPN      0.404000
     20 HC8         2.5590    0.1150   -2.3920 ha        1 RPN      0.148500
     21 HC9         3.5870    2.0470   -3.5840 ha        1 RPN      0.174500
     22 H11         2.4030    4.6700   -0.3180 ha        1 RPN      0.174500
     23 H12         1.3700    2.7300    0.8510 ha        1 RPN      0.148500
@<TRIPOS>BOND
     1    1    2 1   
     2    1    5 1   
     3    1   16 1   
     4    1   17 1   
     5    2    3 1   
     6    2    4 1   
     7    2   18 1   
     8    3   19 1   
     9    4    8 ar  
    10    4   12 ar  
    11    5    6 1   
    12    6    7 3   
    13    8    9 ar  
    14    8   20 1   
    15    9   10 ar  
    16    9   21 1   
    17   10   11 ar  
    18   10   13 1   
    19   11   12 ar  
    20   11   22 1   
    21   12   23 1   
    22   13   14 1   
    23   13   15 1   
@<TRIPOS>SUBSTRUCTURE
     1 RPN         1 TEMP              0 ****  ****    0 ROOT
