@<TRIPOS>MOLECULE
RPN
   23    23     1     0     0
SMALL
bcc


@<TRIPOS>ATOM
      1 C1         -2.3810   -0.6230   -0.7720 c3        1 RPN      0.134800
      2 C2         -1.6950   -0.2080    0.5480 c3        1 RPN      0.149400
      3 O3         -2.2740    0.9880    1.0380 oh        1 RPN     -0.589800
      4 C4         -0.2080   -0.1160    0.3620 ca        1 RPN     -0.074300
      5 N5         -3.7520   -1.0660   -0.6630 n2        1 RPN     -0.447200
      6 N6         -4.6420   -0.3420   -0.1460 n1        1 RPN      0.222000
      7 N7         -5.5740    0.1410    0.2820 n1        1 RPN     -0.031000
      8 C8          0.5030   -1.2620   -0.0180 ca        1 RPN     -0.134500
      9 C9          1.8830   -1.2200   -0.1890 ca        1 RPN     -0.063000
     10 C10         2.5620   -0.0100    0.0310 ca        1 RPN     -0.175200
     11 C11         1.8660    1.1410    0.4290 ca        1 RPN     -0.063000
     12 C12         0.4840    1.0770    0.5940 ca        1 RPN     -0.134500
     13 N13         4.0360    0.0490   -0.1550 no        1 RPN      0.313200
     14 O14         4.6200   -0.9470   -0.4890 o         1 RPN     -0.205000
     15 O15         4.6040    1.0910    0.0330 o         1 RPN     -0.205000
     16 HC11       -2.2690    0.2250   -1.5090 h1        1 RPN      0.069700
     17 HC12       -1.8620   -1.5290   -1.1970 h1        1 RPN      0.069700
     18 HC2        -1.9110   -0.9610    1.3640 h1        1 RPN      0.107700
     19 H03        -2.1260    1.6800    0.3800 ho        1 RPN      0.403000
     20 HC8        -0.0300   -2.2140   -0.1770 ha        1 RPN      0.153000
     21 HC9         2.4380   -2.1250   -0.4910 ha        1 RPN      0.174000
     22 H11         2.4070    2.0860    0.6120 ha        1 RPN      0.174000
     23 H12        -0.0560    1.9760    0.9310 ha        1 RPN      0.153000
@<TRIPOS>BOND
     1    1    2 1   
     2    1    5 1   
     3    1   16 1   
     4    1   17 1   
     5    2    3 1   
     6    2    4 1   
     7    2   18 1   
     8    3   19 1   
     9    4    8 ar  
    10    4   12 ar  
    11    5    6 1   
    12    6    7 3   
    13    8    9 ar  
    14    8   20 1   
    15    9   10 ar  
    16    9   21 1   
    17   10   11 ar  
    18   10   13 1   
    19   11   12 ar  
    20   11   22 1   
    21   12   23 1   
    22   13   14 1   
    23   13   15 1   
@<TRIPOS>SUBSTRUCTURE
     1 RPN         1 TEMP              0 ****  ****    0 ROOT
