@<TRIPOS>MOLECULE
RPN
   23    21     1     0     0
SMALL
bcc


@<TRIPOS>ATOM
      1 C1         -1.6360   -1.5270    1.1890 c3        1 RPN     -0.107000
      2 C2         -0.0740   -1.5720    0.8230 c3        1 RPN      0.078000
      3 O3          0.7010   -1.6680    2.0300 oh        1 RPN     -0.307000
      4 C4          0.2800   -0.3710    0.1340 c2        1 RPN     -0.062000
      5 N5         -2.2130   -2.5120    0.7130 n2        1 RPN     -0.287000
      6 N6         -3.4140   -2.3890    0.2500 n2        1 RPN      0.215000
      7 N7         -4.7150   -2.2550   -0.2510 n1        1 RPN     -0.037000
      8 C8          0.5310   -0.4060   -1.1970 c1        1 RPN     -0.114000
      9 C9          1.1250    0.7110   -1.8450 c1        1 RPN     -0.068000
     10 C10         1.4480    1.8300   -1.1300 c1        1 RPN     -0.129000
     11 C11         1.1910    1.8790    0.2500 c1        1 RPN     -0.067000
     12 C12         0.6070    0.7760    0.8810 c2        1 RPN     -0.136000
     13 N13         1.9940    3.1010   -1.8700 no        1 RPN      0.568000
     14 O14         2.2510    3.0440   -3.2300 o         1 RPN     -0.358000
     15 O15         1.9910    4.1750   -1.3040 o         1 RPN     -0.358000
     16 HC11       -1.7560   -1.5250    2.2940 h1        1 RPN      0.088000
     17 HC12       -2.0350   -0.7070    0.8120 h1        1 RPN      0.088000
     18 HC2         0.1220   -2.3940    0.2160 h1        1 RPN      0.147000
     19 H03         0.1750   -1.2740    2.8020 ho        1 RPN      0.199000
     20 HC8         0.2800   -1.2780   -1.7640 ha        1 RPN      0.162000
     21 HC9         1.2600    0.6860   -2.5690 ha        1 RPN      0.173000
     22 H11         1.4730    2.8750    0.8890 ha        1 RPN      0.171000
     23 H12         0.4150    0.8040    1.8780 ha        1 RPN      0.142000
@<TRIPOS>BOND
     1    1    2 1   
     2    1    5 1   
     3    1   16 1   
     4    1   17 1   
     5    2    3 1   
     6    2    4 1   
     7    2   18 1   
     8    3   19 1   
     9    4    8 1   
    10    4   12 1   
    11    5    6 1   
    12    6    7 1   
    13    8   20 1   
    14    9   10 1   
    15    9   21 1   
    16   10   13 1   
    17   11   12 1   
    18   11   22 1   
    19   12   23 1   
    20   13   14 1   
    21   13   15 1   
@<TRIPOS>SUBSTRUCTURE
     1 RPN         1 TEMP              0 ****  ****    0 ROOT
