@<TRIPOS>MOLECULE
RPN
   23    23     1     0     0
SMALL
bcc


@<TRIPOS>ATOM
      1 C1         -0.2440    0.3370    0.0490 c3        1 RPN      0.135800
      2 C2          1.2880    0.1410    0.0150 c3        1 RPN      0.151400
      3 O3          1.7850   -0.0740    1.3240 oh        1 RPN     -0.588800
      4 C4          1.9340    1.3130   -0.6670 ca        1 RPN     -0.076300
      5 N5         -1.0260   -0.8160    0.4300 n2        1 RPN     -0.446200
      6 N6         -0.8340   -1.4150    1.5190 n1        1 RPN      0.224000
      7 N7         -0.8140   -2.0860    2.4320 n1        1 RPN     -0.033000
      8 C8          2.5680    1.1320   -1.9010 ca        1 RPN     -0.130000
      9 C9          3.1700    2.2050   -2.5540 ca        1 RPN     -0.063500
     10 C10         3.1350    3.4750   -1.9570 ca        1 RPN     -0.171200
     11 C11         2.5030    3.6710   -0.7180 ca        1 RPN     -0.063500
     12 C12         1.9060    2.5850   -0.0840 ca        1 RPN     -0.130000
     13 N13         3.7750    4.6280   -2.6440 no        1 RPN      0.313200
     14 O14         4.3110    4.4470   -3.7050 o         1 RPN     -0.204000
     15 O15         3.7390    5.7090   -2.1210 o         1 RPN     -0.204000
     16 HC11       -0.4680    1.2330    0.6970 h1        1 RPN      0.068700
     17 HC12       -0.6100    0.5540   -0.9950 h1        1 RPN      0.068700
     18 HC2         1.5470   -0.8170   -0.5260 h1        1 RPN      0.099700
     19 H03         1.7500    0.7650    1.8010 ho        1 RPN      0.404000
     20 HC8         2.5980    0.1330   -2.3640 ha        1 RPN      0.148500
     21 HC9         3.6700    2.0590   -3.5270 ha        1 RPN      0.174500
     22 H11         2.4800    4.6730   -0.2560 ha        1 RPN      0.174500
     23 H12         1.4040    2.7390    0.8840 ha        1 RPN      0.148500
@<TRIPOS>BOND
     1    1    2 1   
     2    1    5 1   
     3    1   16 1   
     4    1   17 1   
     5    2    3 1   
     6    2    4 1   
     7    2   18 1   
     8    3   19 1   
     9    4    8 ar  
    10    4   12 ar  
    11    5    6 1   
    12    6    7 3   
    13    8    9 ar  
    14    8   20 1   
    15    9   10 ar  
    16    9   21 1   
    17   10   11 ar  
    18   10   13 1   
    19   11   12 ar  
    20   11   22 1   
    21   12   23 1   
    22   13   14 1   
    23   13   15 1   
@<TRIPOS>SUBSTRUCTURE
     1 RPN         1 TEMP              0 ****  ****    0 ROOT
