@<TRIPOS>MOLECULE
RPP
   35    37     1     0     0
SMALL
bcc


@<TRIPOS>ATOM
      1 I           0.0730   -0.5590    0.2080 i         1 RPP     -0.151900
      2 N1          3.5540   -3.2150   -1.9900 nb        1 RPP     -0.727000
      3 C2          4.4170   -3.5870   -1.0120 ca        1 RPP      0.723900
      4 N3          4.5920   -3.0370    0.2220 nb        1 RPP     -0.659000
      5 C4          3.7950   -1.9710    0.4910 ca        1 RPP      0.691200
      6 C5          2.8340   -1.4550   -0.5000 ca        1 RPP     -0.387900
      7 C6          2.7560   -2.1400   -1.7030 ca        1 RPP      0.548200
      8 N6          1.7700   -1.7380   -2.7280 n4        1 RPP     -0.831300
      9 C7          2.1420   -0.2970    0.1310 c3        1 RPP      0.328700
     10 N8          2.6910   -0.2290    1.5160 n3        1 RPP     -0.463000
     11 N9          3.6240   -1.2590    1.6920 nh        1 RPP     -0.526100
     12 C1'         4.7450   -1.0290    2.6500 c3        1 RPP      0.374300
     13 C2'         4.2300   -0.5760    4.0580 c3        1 RPP      0.091100
     14 C3'         4.5990   -1.7460    5.0030 c3        1 RPP      0.092100
     15 C4'         5.2490   -2.8140    4.1090 c3        1 RPP      0.086100
     16 O4'         5.5050   -2.2090    2.8240 os        1 RPP     -0.381600
     17 O2'         4.8480    0.6340    4.4060 oh        1 RPP     -0.581800
     18 O3'         5.5740   -1.3220    5.9340 oh        1 RPP     -0.583800
     19 C5'         4.3580   -4.0410    3.9260 c3        1 RPP      0.120400
     20 O5'         5.0040   -5.0300    3.1580 oh        1 RPP     -0.583800
     21 HN61        0.9190   -1.3990   -2.2500 hn        1 RPP      0.477467
     22 HN62        2.1690   -0.9900   -3.3070 hn        1 RPP      0.477467
     23 H7          2.2980    0.6570   -0.4380 h2        1 RPP      0.097700
     24 HN8         3.1440    0.6740    1.6540 hn        1 RPP      0.378800
     25 H1'         5.4560   -0.2650    2.2070 h2        1 RPP      0.092700
     26 H2'         3.1280   -0.3620    4.0910 h1        1 RPP      0.118700
     27 H3'         3.6880   -2.1420    5.5230 h1        1 RPP      0.079700
     28 H4'         6.2690   -3.1110    4.4850 h1        1 RPP      0.127700
     29 HO'2        5.7630    0.4480    4.6750 ho        1 RPP      0.434000
     30 HO'3        5.1140   -0.8300    6.6280 ho        1 RPP      0.428000
     31 H5'1        3.3890   -3.7450    3.4420 h1        1 RPP      0.058700
     32 H5'2        4.1600   -4.5250    4.9200 h1        1 RPP      0.058700
     33 HO'5        5.3240   -4.6070    2.3500 ho        1 RPP      0.415000
     34 H63         1.5320   -2.5370   -3.3330 hn        1 RPP      0.477467
     35 H2          5.0680   -4.4640   -1.2500 h5        1 RPP      0.102100
@<TRIPOS>BOND
     1    1    9 1   
     2    2    3 ar  
     3    2    7 ar  
     4    3    4 ar  
     5    3   35 1   
     6    4    5 ar  
     7    5    6 ar  
     8    5   11 1   
     9    6    7 ar  
    10    6    9 1   
    11    7    8 1   
    12    8   21 1   
    13    8   22 1   
    14    8   34 1   
    15    9   10 1   
    16    9   23 1   
    17   10   11 1   
    18   10   24 1   
    19   11   12 1   
    20   12   13 1   
    21   12   16 1   
    22   12   25 1   
    23   13   14 1   
    24   13   17 1   
    25   13   26 1   
    26   14   15 1   
    27   14   18 1   
    28   14   27 1   
    29   15   16 1   
    30   15   19 1   
    31   15   28 1   
    32   17   29 1   
    33   18   30 1   
    34   19   20 1   
    35   19   31 1   
    36   19   32 1   
    37   20   33 1   
@<TRIPOS>SUBSTRUCTURE
     1 RPP         1 TEMP              0 ****  ****    0 ROOT
