@<TRIPOS>MOLECULE
RPP
   34    36     1     0     0
SMALL
bcc


@<TRIPOS>ATOM
      1 I          -0.7820    0.6700    2.8990 i         1 RPP     -0.264900
      2 N1          3.6240   -0.3800    0.9480 nb        1 RPP     -0.760000
      3 C2          3.5180   -0.1300   -0.3670 ca        1 RPP      0.691900
      4 N3          2.3970   -0.0420   -1.1520 nb        1 RPP     -0.716000
      5 C4          1.2450   -0.2310   -0.4720 ca        1 RPP      0.652200
      6 C5          1.2130   -0.4860    0.9490 ca        1 RPP     -0.471900
      7 C6          2.4380   -0.5810    1.6470 ca        1 RPP      0.728200
      8 N6          2.4800   -0.9330    2.9820 nh        1 RPP     -0.935500
      9 C7         -0.2120   -0.6220    1.3470 c3        1 RPP      0.386700
     10 N8         -0.9860   -0.4130    0.0930 n3        1 RPP     -0.540000
     11 N9         -0.1100   -0.1340   -0.9820 nh        1 RPP     -0.519100
     12 C1'        -0.3950   -0.9970   -2.1720 c3        1 RPP      0.395300
     13 C2'        -1.8190   -0.7240   -2.7480 c3        1 RPP      0.093100
     14 C3'        -1.5810    0.0520   -4.0670 c3        1 RPP      0.087100
     15 C4'        -0.0530    0.1570   -4.2030 c3        1 RPP      0.059100
     16 O4'         0.5280   -0.7200   -3.2260 os        1 RPP     -0.387600
     17 O2'        -2.3820   -1.9970   -3.0050 oh        1 RPP     -0.592800
     18 O3'        -2.1780   -0.6170   -5.1550 oh        1 RPP     -0.590800
     19 C5'         0.4550    1.5830   -3.9970 c3        1 RPP      0.124400
     20 O5'         1.8480    1.6560   -4.2010 oh        1 RPP     -0.599800
     21 HN61        3.3450   -0.8460    3.4630 hn        1 RPP      0.431800
     22 HN62        1.6550   -0.7680    3.5100 hn        1 RPP      0.431800
     23 H7         -0.4590   -1.6470    1.7280 h2        1 RPP      0.109700
     24 HN8        -1.5650    0.4150    0.1800 hn        1 RPP      0.384800
     25 H1'        -0.2570   -2.0950   -1.9390 h2        1 RPP      0.103700
     26 H2'        -2.4870   -0.1440   -2.0600 h1        1 RPP      0.069700
     27 H3'        -2.0700    1.0620   -4.0500 h1        1 RPP      0.096700
     28 H4'         0.3090   -0.2420   -5.1910 h1        1 RPP      0.096700
     29 HO'2       -3.2330   -1.8400   -3.4380 ho        1 RPP      0.421000
     30 HO'3       -1.7580   -1.4860   -5.2290 ho        1 RPP      0.418000
     31 H5'1        0.0090    2.2640   -4.7690 h1        1 RPP      0.053200
     32 H5'2        0.1920    1.9430   -2.9670 h1        1 RPP      0.053200
     33 HO'5        2.2590    1.0360   -3.5820 ho        1 RPP      0.427000
     34 H2          4.4780    0.0290   -0.9070 h5        1 RPP      0.061100
@<TRIPOS>BOND
     1    1    9 1   
     2    2    3 ar  
     3    2    7 ar  
     4    3    4 ar  
     5    3   34 1   
     6    4    5 ar  
     7    5    6 ar  
     8    5   11 1   
     9    6    7 ar  
    10    6    9 1   
    11    7    8 1   
    12    8   21 1   
    13    8   22 1   
    14    9   10 1   
    15    9   23 1   
    16   10   11 1   
    17   10   24 1   
    18   11   12 1   
    19   12   13 1   
    20   12   16 1   
    21   12   25 1   
    22   13   14 1   
    23   13   17 1   
    24   13   26 1   
    25   14   15 1   
    26   14   18 1   
    27   14   27 1   
    28   15   16 1   
    29   15   19 1   
    30   15   28 1   
    31   17   29 1   
    32   18   30 1   
    33   19   20 1   
    34   19   31 1   
    35   19   32 1   
    36   20   33 1   
@<TRIPOS>SUBSTRUCTURE
     1 RPP         1 TEMP              0 ****  ****    0 ROOT
