@<TRIPOS>MOLECULE
RPP
   34    36     1     0     0
SMALL
bcc


@<TRIPOS>ATOM
      1 I          -0.0500   -0.6790    0.2700 i         1 RPP     -0.218900
      2 N1          3.5330   -3.1950   -2.0080 nb        1 RPP     -0.761000
      3 C2          4.2870   -3.6500   -0.9920 ca        1 RPP      0.690900
      4 N3          4.3980   -3.1820    0.2910 nb        1 RPP     -0.721000
      5 C4          3.6170   -2.1090    0.5440 ca        1 RPP      0.641200
      6 C5          2.7470   -1.5280   -0.4520 ca        1 RPP     -0.467900
      7 C6          2.7330   -2.0890   -1.7480 ca        1 RPP      0.724200
      8 N6          1.9940   -1.5140   -2.7670 nh        1 RPP     -0.931500
      9 C7          2.0230   -0.3980    0.1850 c3        1 RPP      0.373700
     10 N8          2.5490   -0.3410    1.5790 n3        1 RPP     -0.498000
     11 N9          3.4170   -1.4230    1.8050 nh        1 RPP     -0.492100
     12 C1'         4.6460   -1.0970    2.5840 c3        1 RPP      0.330300
     13 C2'         4.2920   -0.4980    3.9900 c3        1 RPP      0.134100
     14 C3'         4.6880   -1.6060    4.9930 c3        1 RPP      0.087100
     15 C4'         5.2240   -2.7670    4.1380 c3        1 RPP      0.056100
     16 O4'         5.4360   -2.2620    2.8100 os        1 RPP     -0.375600
     17 O2'         4.9700    0.7200    4.1610 oh        1 RPP     -0.580800
     18 O3'         5.6910   -1.0710    5.8380 oh        1 RPP     -0.596800
     19 C5'         4.2630   -3.9540    4.0920 c3        1 RPP      0.119400
     20 O5'         4.8220   -5.0210    3.3580 oh        1 RPP     -0.599800
     21 HN61        1.8930   -2.0300   -3.6120 hn        1 RPP      0.427300
     22 HN62        1.2030   -0.9830   -2.4820 hn        1 RPP      0.427300
     23 H7          2.1560    0.5660   -0.3680 h2        1 RPP      0.083700
     24 HN8         3.0440    0.5420    1.6980 hn        1 RPP      0.348800
     25 H1'         5.3230   -0.3930    2.0110 h2        1 RPP      0.078700
     26 H2'         3.2040   -0.2410    4.1070 h1        1 RPP      0.115700
     27 H3'         3.8010   -1.9240    5.6020 h1        1 RPP      0.068700
     28 H4'         6.2440   -3.1030    4.4720 h1        1 RPP      0.091700
     29 HO'2        5.8910    0.5310    4.3880 ho        1 RPP      0.428000
     30 HO'3        5.9360   -1.7670    6.4590 ho        1 RPP      0.418000
     31 H5'1        3.2820   -3.6410    3.6450 h1        1 RPP      0.056200
     32 H5'2        4.1030   -4.3620    5.1250 h1        1 RPP      0.056200
     33 HO'5        4.9990   -4.6890    2.4660 ho        1 RPP      0.428000
     34 H2          4.9170   -4.5380   -1.2200 h5        1 RPP      0.059100
@<TRIPOS>BOND
     1    1    9 1   
     2    2    3 ar  
     3    2    7 ar  
     4    3    4 ar  
     5    3   34 1   
     6    4    5 ar  
     7    5    6 ar  
     8    5   11 1   
     9    6    7 ar  
    10    6    9 1   
    11    7    8 1   
    12    8   21 1   
    13    8   22 1   
    14    9   10 1   
    15    9   23 1   
    16   10   11 1   
    17   10   24 1   
    18   11   12 1   
    19   12   13 1   
    20   12   16 1   
    21   12   25 1   
    22   13   14 1   
    23   13   17 1   
    24   13   26 1   
    25   14   15 1   
    26   14   18 1   
    27   14   27 1   
    28   15   16 1   
    29   15   19 1   
    30   15   28 1   
    31   17   29 1   
    32   18   30 1   
    33   19   20 1   
    34   19   31 1   
    35   19   32 1   
    36   20   33 1   
@<TRIPOS>SUBSTRUCTURE
     1 RPP         1 TEMP              0 ****  ****    0 ROOT
