@<TRIPOS>MOLECULE
RPP
   34    36     1     0     0
SMALL
bcc


@<TRIPOS>ATOM
      1 I          -0.0140   -0.6280    0.3680 i         1 RPP     -0.217900
      2 N1          3.4870   -3.1940   -1.9900 nb        1 RPP     -0.761000
      3 C2          4.2590   -3.6510   -0.9890 ca        1 RPP      0.691900
      4 N3          4.4030   -3.1770    0.2890 nb        1 RPP     -0.720000
      5 C4          3.6370   -2.0960    0.5540 ca        1 RPP      0.642200
      6 C5          2.7530   -1.5110   -0.4270 ca        1 RPP     -0.469900
      7 C6          2.7030   -2.0780   -1.7180 ca        1 RPP      0.725200
      8 N6          1.9470   -1.5020   -2.7240 nv        1 RPP     -0.931500
      9 C7          2.0580   -0.3670    0.2180 c3        1 RPP      0.373700
     10 N8          2.6260   -0.2980    1.5960 n7        1 RPP     -0.496000
     11 N9          3.4680   -1.4020    1.8140 nh        1 RPP     -0.496100
     12 C1'         4.7060   -1.1140    2.5920 c3        1 RPP      0.340300
     13 C2'         4.3720   -0.5330    4.0060 c3        1 RPP      0.086100
     14 C3'         4.6230   -1.7100    4.9780 c3        1 RPP      0.088100
     15 C4'         5.2110   -2.8400    4.1180 c3        1 RPP      0.091100
     16 O4'         5.4700   -2.2960    2.8120 os        1 RPP     -0.381600
     17 O2'         5.2080    0.5650    4.2850 oh        1 RPP     -0.591800
     18 O3'         5.5980   -1.3570    5.9420 oh        1 RPP     -0.592800
     19 C5'         4.2650   -4.0350    4.0050 c3        1 RPP      0.122400
     20 O5'         4.8580   -5.0740    3.2590 oh        1 RPP     -0.599800
     21 HN61        1.8230   -2.0210   -3.5640 hn        1 RPP      0.427800
     22 HN62        1.1670   -0.9620   -2.4250 hn        1 RPP      0.427800
     23 H7          2.1830    0.5900   -0.3480 h2        1 RPP      0.084700
     24 HN8         3.1550    0.5700    1.6750 hn        1 RPP      0.342800
     25 H1'         5.3990   -0.4210    2.0250 h2        1 RPP      0.077700
     26 H2'         3.3290   -0.1330    4.1030 h1        1 RPP      0.116700
     27 H3'         3.6720   -2.0250    5.4830 h1        1 RPP      0.069700
     28 H4'         6.2210   -3.1690    4.4920 h1        1 RPP      0.108700
     29 HO'2        6.1140    0.2340    4.3700 ho        1 RPP      0.422000
     30 HO'3        5.2390   -0.6130    6.4440 ho        1 RPP      0.417000
     31 H5'1        4.0790   -4.4720    5.0210 h1        1 RPP      0.057200
     32 H5'2        3.2960   -3.7190    3.5350 h1        1 RPP      0.057200
     33 HO'5        5.0740   -4.7110    2.3890 ho        1 RPP      0.426000
     34 H2          4.8750   -4.5460   -1.2260 h5        1 RPP      0.060100
@<TRIPOS>BOND
     1    1    9 1   
     2    2    3 ar  
     3    2    7 ar  
     4    3    4 ar  
     5    3   34 1   
     6    4    5 ar  
     7    5    6 ar  
     8    5   11 1   
     9    6    7 ar  
    10    6    9 1   
    11    7    8 1   
    12    8   21 1   
    13    8   22 1   
    14    9   10 1   
    15    9   23 1   
    16   10   11 1   
    17   10   24 1   
    18   11   12 1   
    19   12   13 1   
    20   12   16 1   
    21   12   25 1   
    22   13   14 1   
    23   13   17 1   
    24   13   26 1   
    25   14   15 1   
    26   14   18 1   
    27   14   27 1   
    28   15   16 1   
    29   15   19 1   
    30   15   28 1   
    31   17   29 1   
    32   18   30 1   
    33   19   20 1   
    34   19   31 1   
    35   19   32 1   
    36   20   33 1   
@<TRIPOS>SUBSTRUCTURE
     1 RPP         1 TEMP              0 ****  ****    0 ROOT
