@<TRIPOS>MOLECULE
RPR
   64    66     1     0     0
SMALL
bcc


@<TRIPOS>ATOM
      1 C1         -1.2680    0.0300    6.2680 ca        1 RPR     -0.094000
      2 C2          0.0480   -0.3770    6.0080 cp        1 RPR     -0.050000
      3 C3          0.8190   -0.9140    7.0490 ca        1 RPR     -0.112000
      4 C4          0.2800   -1.0380    8.3280 ca        1 RPR     -0.133000
      5 C5         -1.0290   -0.6300    8.5820 ca        1 RPR     -0.120000
      6 C6         -1.8080   -0.0960    7.5500 ca        1 RPR     -0.095300
      7 C7          1.9680   -1.1180    2.8560 ca        1 RPR     -0.090500
      8 C8          1.6800    0.0150    2.0860 ca        1 RPR     -0.140600
      9 C9          0.8670    1.0230    2.6100 ca        1 RPR     -0.090500
     10 C10         0.3360    0.8940    3.8920 ca        1 RPR     -0.129500
     11 C11         0.6100   -0.2430    4.6650 cp        1 RPR     -0.012000
     12 C12         1.4330   -1.2470    4.1350 ca        1 RPR     -0.129500
     13 N14         1.5040    0.6510   -0.2760 n         1 RPR     -0.579900
     14 C15         1.9790    0.7850   -1.6340 c3        1 RPR      0.115700
     15 C16         2.5800    2.1680   -1.9070 c3        1 RPR     -0.115100
     16 C17         0.8630    0.5250   -2.6820 c3        1 RPR     -0.121700
     17 C18        -0.1240   -0.5010   -2.1880 c         1 RPR      0.637100
     18 O19        -1.1450    0.0610   -1.4640 os        1 RPR     -0.453900
     19 C20         1.4780    0.0570   -3.9990 c3        1 RPR     -0.037100
     20 C21        -3.2290    0.3080    7.8150 c3        1 RPR      0.203100
     21 N22        -3.5500    1.6390    7.3510 n3        1 RPR     -0.916800
     22 C23        -0.0250   -0.5480   -5.9120 ca        1 RPR     -0.070000
     23 C24        -0.7850   -0.1840   -7.0270 ca        1 RPR     -0.131900
     24 C25        -0.8740    1.1560   -7.4150 ca        1 RPR     -0.121000
     25 C26        -0.2030    2.1330   -6.6810 ca        1 RPR     -0.132000
     26 C27         0.5520    1.7760   -5.5660 ca        1 RPR     -0.119000
     27 C28         0.6450    0.4350   -5.1750 ca        1 RPR     -0.094300
     28 N30        -2.8900   -1.0390   -7.9230 nh        1 RPR     -0.961800
     29 N31        -0.8100   -2.2490   -8.2580 n2        1 RPR     -0.824100
     30 O32        -0.1300   -1.7220   -2.3440 o         1 RPR     -0.526000
     31 C34        -2.1470   -0.8300   -0.9710 c3        1 RPR      0.124700
     32 H11        -1.8850    0.4450    5.4550 ha        1 RPR      0.150000
     33 H31         1.8550   -1.2300    6.8560 ha        1 RPR      0.137000
     34 H41         0.8900   -1.4570    9.1410 ha        1 RPR      0.134000
     35 H51        -1.4470   -0.7310    9.5950 ha        1 RPR      0.132000
     36 H71         2.6270   -1.8990    2.4430 ha        1 RPR      0.146000
     37 H91         0.6520    1.9330    2.0290 ha        1 RPR      0.146000
     38 H101       -0.2980    1.6940    4.3040 ha        1 RPR      0.142500
     39 H121        1.6550   -2.1450    4.7320 ha        1 RPR      0.142500
     40 H141        0.5820    0.9630   -0.0760 hn        1 RPR      0.323500
     41 H151        2.7940    0.0100   -1.7830 h1        1 RPR      0.094700
     42 H161        1.8370    2.9780   -1.7130 hc        1 RPR      0.046033
     43 H162        3.4700    2.3330   -1.2520 hc        1 RPR      0.046033
     44 H163        2.9050    2.2320   -2.9730 hc        1 RPR      0.046033
     45 H171        0.3000    1.4880   -2.8480 hc        1 RPR      0.087700
     46 H201        2.4970    0.5180   -4.1170 hc        1 RPR      0.074700
     47 H202        1.6200   -1.0590   -3.9640 hc        1 RPR      0.074700
     48 H211       -3.9080   -0.4080    7.2640 h1        1 RPR      0.034700
     49 H212       -3.4410    0.1760    8.9190 h1        1 RPR      0.034700
     50 H221       -4.4480    1.9160    7.6940 hn        1 RPR      0.352300
     51 H222       -2.8630    2.3020    7.6490 hn        1 RPR      0.352300
     52 H231        0.0500   -1.6070   -5.6180 ha        1 RPR      0.162000
     53 H251       -1.4560    1.4430   -8.3030 ha        1 RPR      0.130000
     54 H261       -0.2660    3.1880   -6.9870 ha        1 RPR      0.134000
     55 H271        1.0840    2.5490   -4.9900 ha        1 RPR      0.131000
     56 H301       -3.3580   -1.4960   -8.6700 hn        1 RPR      0.399800
     57 H302       -3.2120   -0.1200   -7.7310 hn        1 RPR      0.399800
     58 H311       -1.3120   -2.9370   -8.7800 hn        1 RPR      0.383400
     59 H341       -2.8600   -0.1570   -0.4350 h1        1 RPR      0.052367
     60 H342       -2.6420   -1.3550   -1.8230 h1        1 RPR      0.052367
     61 H343       -1.6860   -1.5750   -0.2790 h1        1 RPR      0.052367
     62 C13         2.2860    0.1110    0.7270 c         1 RPR      0.677700
     63 C29        -1.4980   -1.2400   -7.8160 ce        1 RPR      0.652800
     64 O33         3.4430   -0.2950    0.4950 o         1 RPR     -0.603100
@<TRIPOS>BOND
     1    1    2 ar  
     2    1    6 ar  
     3    1   32 1   
     4    2    3 ar  
     5    2   11 1   
     6    3    4 ar  
     7    3   33 1   
     8    4    5 ar  
     9    4   34 1   
    10    5    6 ar  
    11    5   35 1   
    12    6   20 1   
    13    7    8 ar  
    14    7   12 ar  
    15    7   36 1   
    16    8    9 ar  
    17    8   62 1   
    18    9   10 ar  
    19    9   37 1   
    20   10   11 ar  
    21   10   38 1   
    22   11   12 ar  
    23   12   39 1   
    24   13   14 1   
    25   13   40 1   
    26   13   62 1   
    27   14   15 1   
    28   14   16 1   
    29   14   41 1   
    30   15   42 1   
    31   15   43 1   
    32   15   44 1   
    33   16   17 1   
    34   16   19 1   
    35   16   45 1   
    36   17   18 1   
    37   17   30 2   
    38   18   31 1   
    39   19   27 1   
    40   19   46 1   
    41   19   47 1   
    42   20   21 1   
    43   20   48 1   
    44   20   49 1   
    45   21   50 1   
    46   21   51 1   
    47   22   23 ar  
    48   22   27 ar  
    49   22   52 1   
    50   23   24 ar  
    51   23   63 1   
    52   24   25 ar  
    53   24   53 1   
    54   25   26 ar  
    55   25   54 1   
    56   26   27 ar  
    57   26   55 1   
    58   28   56 1   
    59   28   57 1   
    60   28   63 1   
    61   29   58 1   
    62   29   63 2   
    63   31   59 1   
    64   31   60 1   
    65   31   61 1   
    66   62   64 2   
@<TRIPOS>SUBSTRUCTURE
     1 RPR         1 TEMP              0 ****  ****    0 ROOT
