@<TRIPOS>MOLECULE
RPR
   67    64     1     0     0
SMALL
bcc


@<TRIPOS>ATOM
      1 C1        149.4830 -150.6170 -132.7500 c2        1 RPR     -0.037000
      2 C2        149.8670 -149.6050 -133.5490 c2        1 RPR     -0.235000
      3 C3       -746.0980  172.0500    0.9580 c1        1 RPR      0.453000
      4 C4       -747.1200  171.2190    0.7400 c2        1 RPR     -0.477000
      5 C5       -748.4770  171.4240    0.8500 c1        1 RPR      0.232000
      6 C6       -749.6720  171.5900    0.9420 c1        1 RPR     -0.341000
      7 C7        148.8350 -146.3520 -135.0670 c2        1 RPR      0.145000
      8 C8        147.4910 -146.1990 -134.6090 c2        1 RPR     -0.177000
      9 C9        146.9400 -147.1390 -133.7920 c2        1 RPR      0.008000
     10 C10       147.6850 -148.3370 -133.3700 c3        1 RPR     -0.213000
     11 C11       149.0630 -148.4660 -133.8920 c2        1 RPR      0.181000
     12 C12       149.5850 -147.4680 -134.7190 c2        1 RPR     -0.227000
     13 N14       145.4430 -144.9350 -135.1690 nt        1 RPR     -0.408000
     14 C15       120.3040   49.7370 -304.6260 c2        1 RPR     -0.211000
     15 C16       121.4040   50.2750 -305.1470 c2        1 RPR     -0.152000
     16 C17       119.5950   50.3060 -303.4390 c3        1 RPR     -0.063000
     17 C18       119.6590   49.3090 -302.3150 c2        1 RPR      0.201000
     18 O19       120.3110   49.8010 -301.1520 os        1 RPR     -0.157000
     19 C20       118.1400   50.6010 -303.7980 c3        1 RPR     -0.157000
     20 C21      -751.0490  171.7070    0.0250 c2        1 RPR      0.309000
     21 N22      -751.6850  172.8040    0.3820 n8        1 RPR     -0.207000
     22 C23       117.4240   51.4070 -301.4780 c2        1 RPR     -0.118000
     23 C24       116.2680   51.3920 -300.8000 c2        1 RPR     -0.152000
     24 C25       114.9220   51.7330 -301.3490 c3        1 RPR     -0.077000
     25 C26       114.9820   52.1500 -302.8290 c2        1 RPR     -0.123000
     26 C27       116.1960   52.0510 -303.2500 c1        1 RPR      0.232000
     27 C28       117.5620   51.7510 -302.9830 c3        1 RPR     -0.057000
     28 N30       117.0550   51.8140 -298.5330 n8        1 RPR     -0.322000
     29 N31       115.6620   49.9220 -298.8990 n2        1 RPR     -0.242000
     30 O32       119.2090   48.1720 -302.2400 o         1 RPR     -0.271000
     31 C34       120.7300   49.0730 -300.1790 c1        1 RPR      0.063000
     32 H11       148.4930 -150.6740 -132.2710 ha        1 RPR      0.148500
     33 H31       150.8840 -149.6190 -133.9930 ha        1 RPR      0.177000
     34 H41      -746.8080  170.1860    0.4150 ha        1 RPR      0.253000
     35 H51       150.1590 -151.4600 -132.5300 ha        1 RPR      0.148500
     36 H71       150.6200 -147.5620 -135.0990 ha        1 RPR      0.193000
     37 H91       147.7190 -148.3530 -132.2330 hc        1 RPR      0.201000
     38 H101      147.0860 -149.2570 -133.6630 hc        1 RPR      0.201000
     39 H121      149.2690 -145.5460 -135.6990 ha        1 RPR      0.212000
     40 H141      145.9130 -147.0410 -133.3910 ha        1 RPR      0.181000
     41 H151      144.9190 -145.7710 -135.1450 hn        1 RPR      0.245000
     42 H161      121.9070   49.8310 -306.0190 ha        1 RPR      0.134000
     43 H162      121.8830   51.1800 -304.7470 ha        1 RPR      0.134000
     44 H163      119.8510   48.8180 -305.0330 ha        1 RPR      0.152000
     45 H171      120.1090   51.2530 -303.1000 hc        1 RPR      0.132000
     46 H201      118.0920   50.8860 -304.8850 hc        1 RPR      0.131500
     47 H202      117.5230   49.6720 -303.6620 hc        1 RPR      0.131500
     48 H211      234.3330  -74.8080  -98.7050 ha        1 RPR      0.000000
     49 H212      234.1880  -74.1590  -98.5830 ha        1 RPR      0.000000
     50 H221     -752.6870  172.8300    0.4240 hn        1 RPR      0.282500
     51 H222     -751.6590  170.8010    0.7690 h4        1 RPR      0.215000
     52 H231      118.4100   51.1730 -301.0260 ha        1 RPR      0.232000
     53 H251      114.4730   52.6000 -300.7850 hc        1 RPR      0.171500
     54 H261      114.0470   52.4680 -303.3190 ha        1 RPR      0.260000
     55 H271      118.2370   52.6580 -303.0720 hc        1 RPR      0.192000
     56 H301      116.8880   52.7870 -298.6680 hn        1 RPR      0.212500
     57 H302      114.2200   50.8550 -301.2740 hc        1 RPR      0.171500
     58 H311      115.2430   49.3290 -299.5810 hn        1 RPR      0.165000
     59 H341      138.8120  -31.9940  -83.4350 ha        1 RPR      0.000000
     60 H342      138.4080  -31.4660  -83.5600 ha        1 RPR      0.000000
     61 H343      120.6160   47.9680 -300.2210 ha        1 RPR      0.064000
     62 H142      144.9910 -144.0970 -135.4560 hn        1 RPR      0.245000
     63 H223     -751.2020  173.6490    0.6240 hn        1 RPR      0.282500
     64 H303      117.0970   51.5520 -297.5670 hn        1 RPR      0.212500
     65 C13       146.8000 -144.9280 -135.0150 c2        1 RPR      0.336000
     66 C29       116.2580   50.9810 -299.3420 c2        1 RPR      0.109000
     67 O33       147.4800 -143.8990 -135.1910 o         1 RPR     -0.325000
@<TRIPOS>BOND
     1    1    2 1   
     2    1   32 1   
     3    1   35 1   
     4    2   11 1   
     5    2   33 1   
     6    3    4 1   
     7    4    5 1   
     8    4   34 1   
     9    5    6 1   
    10    6   20 1   
    11    7    8 1   
    12    7   12 1   
    13    7   39 1   
    14    8    9 1   
    15    8   65 1   
    16    9   10 1   
    17    9   40 1   
    18   10   11 1   
    19   10   37 1   
    20   10   38 1   
    21   11   12 1   
    22   12   36 1   
    23   13   41 1   
    24   13   62 1   
    25   13   65 1   
    26   14   15 1   
    27   14   16 1   
    28   14   44 1   
    29   15   42 1   
    30   15   43 1   
    31   16   17 1   
    32   16   19 1   
    33   16   45 1   
    34   17   18 1   
    35   17   30 1   
    36   18   31 1   
    37   19   27 1   
    38   19   46 1   
    39   19   47 1   
    40   20   21 1   
    41   20   51 1   
    42   21   50 1   
    43   21   63 1   
    44   22   23 1   
    45   22   27 1   
    46   22   52 1   
    47   23   24 1   
    48   23   66 1   
    49   24   25 1   
    50   24   53 1   
    51   24   57 1   
    52   25   26 1   
    53   25   54 1   
    54   26   27 1   
    55   27   55 1   
    56   28   56 1   
    57   28   64 1   
    58   28   66 1   
    59   29   58 1   
    60   29   66 1   
    61   31   61 1   
    62   48   49 1   
    63   59   60 1   
    64   65   67 1   
@<TRIPOS>SUBSTRUCTURE
     1 RPR         1 TEMP              0 ****  ****    0 ROOT
