@<TRIPOS>MOLECULE
RPR
   67    66     1     0     0
SMALL
bcc


@<TRIPOS>ATOM
      1 C1          1.2900   -1.2490    1.3430 c2        1 RPR     -0.110000
      2 C2          0.8700   -0.0530    0.9000 c2        1 RPR     -0.138000
      3 C3          0.1710    0.9220    1.7970 c3        1 RPR     -0.087000
      4 C4         -0.2710    0.4280    3.0590 c1        1 RPR      0.177000
      5 C5         -0.6820    0.0940    4.1570 c1        1 RPR     -0.285000
      6 C6         -1.1690   -0.2050    5.3930 c2        1 RPR      0.341000
      7 C7          1.2280    2.1230   -2.1910 c2        1 RPR      0.129000
      8 C8          1.5350    1.1880   -3.1630 c2        1 RPR     -0.253000
      9 C9          1.6450   -0.1880   -2.8650 c1        1 RPR     -0.099000
     10 C10         1.4390   -0.6340   -1.5000 c3        1 RPR     -0.207000
     11 C11         1.0950    0.3910   -0.4750 c2        1 RPR      0.063000
     12 C12         1.0050    1.7070   -0.8460 c2        1 RPR     -0.225000
     13 N14         2.0880    0.6850   -5.5020 n3        1 RPR     -0.294000
     14 C15         3.2360   -2.3330  -10.2680 c2        1 RPR     -0.050000
     15 C16         1.8500    3.4330   -6.1070 c3        1 RPR     -0.091000
     16 C17         3.6620   -1.1910  -10.8280 c2        1 RPR     -0.180000
     17 C18         3.3020    0.1150  -10.2770 c2        1 RPR      0.293000
     18 O19         2.9270    0.1070   -8.8860 os        1 RPR     -0.131000
     19 C20         4.5810   -1.1600  -12.0050 c3        1 RPR     -0.119000
     20 C21        -1.0090   -1.5420    6.0260 c3        1 RPR     -0.088000
     21 N22        -1.6160   -1.6000    7.3120 n3        1 RPR     -0.400000
     22 C23         3.1060    0.1480  -13.6050 c2        1 RPR     -0.165000
     23 C24         3.3660    0.9860  -14.6210 c2        1 RPR     -0.110000
     24 C25         4.3460    0.7440  -15.7210 c3        1 RPR     -0.070000
     25 C26         5.0840   -0.6040  -15.5730 c2        1 RPR     -0.101000
     26 C27         4.6890   -1.1830  -14.4930 c1        1 RPR      0.213000
     27 C28         3.8420   -1.1820  -13.3440 c3        1 RPR     -0.040000
     28 N30         2.2210    2.6910  -15.9540 n3        1 RPR     -0.322000
     29 N31         2.5860    3.1090  -13.6330 n2        1 RPR     -0.237000
     30 O32         3.2630    1.2250  -10.7930 o         1 RPR     -0.287000
     31 C34         2.6660    1.1840   -8.2350 c1        1 RPR     -0.045000
     32 H11         1.8180   -1.9760    0.7080 ha        1 RPR      0.143500
     33 H31        -0.7370    1.3480    1.2610 hc        1 RPR      0.177000
     34 H41         0.8640    1.8010    2.0020 hc        1 RPR      0.177000
     35 H51        -1.7110    0.5970    5.9560 ha        1 RPR      0.222000
     36 H71         0.7670    2.5010   -0.1170 ha        1 RPR      0.160000
     37 H91         0.6370   -1.4370   -1.5280 hc        1 RPR      0.197500
     38 H101        2.3940   -1.1750   -1.2040 hc        1 RPR      0.197500
     39 H121        1.1510    3.2030   -2.4270 ha        1 RPR      0.179000
     40 H141        2.1560   -0.2790   -5.2160 hn        1 RPR      0.305500
     41 H151        1.1120    2.9980   -6.8240 h1        1 RPR      0.121333
     42 H161        2.9000    3.2460   -6.4380 h1        1 RPR      0.121333
     43 H162        1.6650    4.5300   -5.9530 h1        1 RPR      0.121333
     44 H163        2.5940   -2.3480   -9.3720 ha        1 RPR      0.157500
     45 H171        3.5060   -3.3210  -10.6750 ha        1 RPR      0.157500
     46 H201        5.2300   -0.2430  -11.9530 hc        1 RPR      0.133000
     47 H202        5.2580   -2.0580  -11.9600 hc        1 RPR      0.133000
     48 H211       -1.4460   -2.3030    5.2990 h1        1 RPR      0.166000
     49 H212        1.1380   -1.5780    2.3820 ha        1 RPR      0.143500
     50 H221       -2.3920   -2.2220    7.3770 hn        1 RPR      0.218000
     51 H222        0.1110   -1.7550    6.0560 h1        1 RPR      0.166000
     52 H231        2.3520    0.3510  -12.8250 ha        1 RPR      0.200000
     53 H251        5.1250    1.5590  -15.7530 hc        1 RPR      0.191000
     54 H261        5.8010   -0.8890  -16.3630 ha        1 RPR      0.272000
     55 H271        3.0870   -2.0260  -13.3550 hc        1 RPR      0.186000
     56 H301        1.5850    2.0240  -16.3410 hn        1 RPR      0.211500
     57 H302        3.8290    0.7110  -16.7250 hc        1 RPR      0.191000
     58 H311        3.0410    2.8030  -12.7990 hn        1 RPR      0.171000
     59 H341        3.5370    3.6410  -10.6860 ha        1 RPR      0.002500
     60 H342        2.8730    3.6130  -10.5550 ha        1 RPR      0.002500
     61 H343        2.7220    2.1690   -8.7500 ha        1 RPR      0.097000
     62 H142        2.2710    0.9180   -6.4980 hn        1 RPR      0.305500
     63 H223       -0.9740   -1.6980    8.0690 hn        1 RPR      0.218000
     64 H303        1.8720    3.6290  -16.0220 hn        1 RPR      0.211500
     65 C13         1.7740    1.5670   -4.5660 c2        1 RPR      0.353000
     66 C29         2.6720    2.3320  -14.6640 c2        1 RPR      0.101000
     67 O33         1.6410    2.9000   -4.7900 os        1 RPR     -0.191000
@<TRIPOS>BOND
     1    1    2 1   
     2    1   32 1   
     3    1   49 1   
     4    2    3 1   
     5    2   11 1   
     6    3    4 1   
     7    3   33 1   
     8    3   34 1   
     9    4    5 1   
    10    5    6 1   
    11    6   20 1   
    12    6   35 1   
    13    7    8 1   
    14    7   12 1   
    15    7   39 1   
    16    8    9 1   
    17    8   65 1   
    18    9   10 1   
    19   10   11 1   
    20   10   37 1   
    21   10   38 1   
    22   11   12 1   
    23   12   36 1   
    24   13   40 1   
    25   13   62 1   
    26   13   65 1   
    27   14   16 1   
    28   14   44 1   
    29   14   45 1   
    30   15   41 1   
    31   15   42 1   
    32   15   43 1   
    33   15   67 1   
    34   16   17 1   
    35   16   19 1   
    36   17   18 1   
    37   17   30 1   
    38   18   31 1   
    39   19   27 1   
    40   19   46 1   
    41   19   47 1   
    42   20   21 1   
    43   20   48 1   
    44   20   51 1   
    45   21   50 1   
    46   21   63 1   
    47   22   23 1   
    48   22   27 1   
    49   22   52 1   
    50   23   24 1   
    51   23   66 1   
    52   24   25 1   
    53   24   53 1   
    54   24   57 1   
    55   25   26 1   
    56   25   54 1   
    57   26   27 1   
    58   27   55 1   
    59   28   56 1   
    60   28   64 1   
    61   28   66 1   
    62   29   58 1   
    63   29   66 1   
    64   31   61 1   
    65   59   60 1   
    66   65   67 1   
@<TRIPOS>SUBSTRUCTURE
     1 RPR         1 TEMP              0 ****  ****    0 ROOT
