@<TRIPOS>MOLECULE
RPR
   64    55     1     0     0
SMALL
bcc


@<TRIPOS>ATOM
      1 C1         -0.3540    0.4000    6.5950 c1        1 RPR     -0.106000
      2 C2          0.7050    0.6400    5.7290 c1        1 RPR     -0.028500
      3 C3          1.6920    1.5470    6.0780 c1        1 RPR     -0.121000
      4 C4          1.6230    2.2180    7.2960 c1        1 RPR     -0.117833
      5 C5          0.5580    1.9760    8.1660 c1        1 RPR     -0.117833
      6 C6         -0.4240    1.0740    7.8190 c1        1 RPR     -0.123000
      7 C7          0.1810   -0.0160    2.1260 c1        1 RPR     -0.099000
      8 C8          0.8080   -1.2390    1.9820 c1        1 RPR     -0.119000
      9 C9          1.4010   -1.8420    3.0690 c1        1 RPR     -0.117833
     10 C10         1.3690   -1.2240    4.3050 c1        1 RPR     -0.117833
     11 C11         0.7410    0.0030    4.4510 c1        1 RPR     -0.028500
     12 C12         0.1490    0.6050    3.3650 c1        1 RPR     -0.121000
     13 C13         0.9050   -1.8850    0.6090 c2        1 RPR      0.351000
     14 N14         0.3490   -1.2320   -0.5240 n         1 RPR     -0.390000
     15 C15         0.9990   -1.3500   -1.8270 c3        1 RPR      0.038000
     16 C16         2.1410   -0.3890   -1.9050 c3        1 RPR     -0.233000
     17 C17        -0.0010   -1.0420   -2.9180 c3        1 RPR     -0.109000
     18 C18        -0.7290   -2.3100   -3.3080 c2        1 RPR      0.309000
     19 O19         0.0130   -3.4560   -3.7320 os        1 RPR     -0.272000
     20 C20         0.7260   -0.4920   -4.1160 c3        1 RPR     -0.119000
     21 C21        -1.4660    0.8380    8.9450 c3        1 RPR     -0.049000
     22 N22        -0.8690    0.0530    9.9940 n3        1 RPR     -0.333000
     23 C23        -0.6380    0.6130   -6.0240 c1        1 RPR     -0.104000
     24 C24        -1.2030    1.7790   -6.5550 c1        1 RPR     -0.114000
     25 C25        -1.2280    2.9300   -5.8070 c1        1 RPR     -0.093000
     26 C26        -0.6930    2.9370   -4.5260 c1        1 RPR     -0.117833
     27 C27        -0.1380    1.7900   -4.0050 c1        1 RPR     -0.117833
     28 C28        -0.1120    0.6210   -4.7630 c1        1 RPR     -0.087000
     29 C29        -1.7590    1.7790   -7.9750 c2        1 RPR      0.116000
     30 N30        -0.8900    1.9580   -9.0700 n3        1 RPR     -0.331000
     31 N31        -3.0390    1.6110   -8.1750 n1        1 RPR     -0.303000
     32 O32        -1.9370   -2.3190   -3.3620 o         1 RPR     -0.364000
     33 O33         1.4560   -2.9480    0.4810 o         1 RPR     -0.369000
     34 C34        -0.8180   -4.5740   -4.1550 c3        1 RPR     -0.066000
     35 H11        -1.0380   -0.2270    6.3530 ha        1 RPR      0.138000
     36 H31         2.4690    1.7240    5.4420 ha        1 RPR      0.139000
     37 H41         2.3130    2.8510    7.5390 ha        1 RPR      0.139333
     38 H51         0.5090    2.4540    9.0350 ha        1 RPR      0.139333
     39 H71        -0.2320    0.4030    1.3690 ha        1 RPR      0.137000
     40 H91         1.8530   -2.7230    2.9640 ha        1 RPR      0.139333
     41 H101        1.7860   -1.6500    5.0700 ha        1 RPR      0.139333
     42 H121       -0.2960    1.4780    3.4680 ha        1 RPR      0.139000
     43 H141       -0.4690   -0.7920   -0.4510 hn        1 RPR      0.242000
     44 H151        1.3330   -2.2550   -1.9410 h1        1 RPR      0.133000
     45 H161        2.5100   -0.2480   -1.0040 hc        1 RPR      0.086000
     46 H162        1.8320    0.4550   -2.2640 hc        1 RPR      0.086000
     47 H163        2.8490   -0.7640   -2.5000 hc        1 RPR      0.086000
     48 H171       -0.6550   -0.3720   -2.5890 hc        1 RPR      0.129000
     49 H201        0.8780   -1.2370   -4.7930 hc        1 RPR      0.109000
     50 H202        1.6040   -0.1200   -3.8260 hc        1 RPR      0.109000
     51 H211       -1.7580    1.7030    9.3080 h1        1 RPR      0.100000
     52 H212       -2.2220    0.3720    8.5870 h1        1 RPR      0.100000
     53 H221       -0.8930    0.5300   10.7880 hn        1 RPR      0.143000
     54 H222       -1.3470   -0.7520   10.0970 hn        1 RPR      0.143000
     55 H231       -0.6190   -0.2040   -6.5540 ha        1 RPR      0.150000
     56 H251       -1.6330    3.7690   -6.1880 ha        1 RPR      0.151000
     57 H261       -0.7110    3.7520   -3.9970 ha        1 RPR      0.139333
     58 H271        0.2510    1.7960   -3.0750 ha        1 RPR      0.139333
     59 H301       -1.2320    2.0980   -9.9080 hn        1 RPR      0.193500
     60 H302        0.0060    1.8810   -8.9530 hn        1 RPR      0.193500
     61 H311       -3.5960    1.4950   -7.4700 DU        1 RPR      0.150000
     62 H341       -1.5290   -4.7110   -3.5090 h1        1 RPR      0.093667
     63 H342       -0.2700   -5.3880   -4.2140 h1        1 RPR      0.093667
     64 H343       -1.2130   -4.3760   -5.0450 h1        1 RPR      0.093667
@<TRIPOS>BOND
     1    1    6 1   
     2    1   35 1   
     3    2    3 1   
     4    3   36 1   
     5    4    5 1   
     6    4   37 1   
     7    5   38 1   
     8    6   21 1   
     9    7    8 1   
    10    7   39 1   
    11    8   13 1   
    12    9   10 1   
    13    9   40 1   
    14   10   41 1   
    15   11   12 1   
    16   12   42 1   
    17   13   14 1   
    18   13   33 1   
    19   14   15 1   
    20   14   43 1   
    21   15   16 1   
    22   15   17 1   
    23   15   44 1   
    24   16   45 1   
    25   16   46 1   
    26   16   47 1   
    27   17   18 1   
    28   17   20 1   
    29   17   48 1   
    30   18   19 1   
    31   18   32 1   
    32   19   34 1   
    33   20   28 1   
    34   20   49 1   
    35   20   50 1   
    36   21   22 1   
    37   21   51 1   
    38   21   52 1   
    39   22   53 1   
    40   22   54 1   
    41   23   28 1   
    42   23   55 1   
    43   24   25 1   
    44   24   29 1   
    45   25   56 1   
    46   26   27 1   
    47   26   57 1   
    48   27   58 1   
    49   29   30 1   
    50   29   31 1   
    51   30   59 1   
    52   30   60 1   
    53   34   62 1   
    54   34   63 1   
    55   34   64 1   
@<TRIPOS>SUBSTRUCTURE
     1 RPR         1 TEMP              0 ****  ****    0 ROOT
