@<TRIPOS>MOLECULE
RPR
   67    64     1     0     0
SMALL
bcc


@<TRIPOS>ATOM
      1 C1         44.2830   10.5830  -85.4260 c2        1 RPR     -0.008000
      2 C2         44.4340    9.2580  -85.6300 c2        1 RPR     -0.248000
      3 C3       -266.5410  -40.5750  568.3690 c1        1 RPR      0.473000
      4 C4       -266.3730  -41.4710  569.3460 c2        1 RPR     -0.497000
      5 C5       -266.9710  -41.5870  570.5790 c1        1 RPR      0.307000
      6 C6       -267.4930  -41.6950  571.6660 c1        1 RPR     -0.282000
      7 C7         42.9290    5.8870  -85.1000 c2        1 RPR      0.101000
      8 C8         41.6570    6.1930  -84.5340 c2        1 RPR     -0.229000
      9 C9         41.2910    7.4940  -84.3250 c2        1 RPR      0.018000
     10 C10        42.1830    8.6090  -84.6710 c3        1 RPR     -0.226000
     11 C11        43.4880    8.2500  -85.2640 c2        1 RPR      0.198000
     12 C12        43.8040    6.8940  -85.4610 c2        1 RPR     -0.215000
     13 N14        39.8120    4.4860  -85.0690 n4        1 RPR      0.109000
     14 C15        38.8160    3.6190  -84.5570 c2        1 RPR     -0.607000
     15 C16        39.2490    2.3250  -83.9830 c3        1 RPR     -0.106000
     16 C17        37.4370    4.1120  -84.3700 c3        1 RPR      0.064000
     17 C18        37.3540    5.2380  -83.3590 c2        1 RPR      0.217000
     18 O19        38.2280    6.3240  -83.6550 os        1 RPR     -0.206000
     19 C20        36.5240    2.9570  -83.9650 c3        1 RPR     -0.150000
     20 C21      -268.0680  -41.8180  572.8700 c1        1 RPR      0.457000
     21 N22      -268.5670  -41.9250  573.9140 n2        1 RPR     -0.127000
     22 C23        34.3630    4.1680  -83.2900 c2        1 RPR     -0.140000
     23 C24        33.5480    5.1440  -83.7200 c2        1 RPR     -0.139000
     24 C25        33.1360    5.3760  -85.1360 c3        1 RPR     -0.066000
     25 C26        33.7990    4.3870  -86.1160 c2        1 RPR     -0.129000
     26 C27        34.5700    3.5910  -85.4590 c1        1 RPR      0.225000
     27 C28        35.0300    3.1120  -84.2000 c3        1 RPR     -0.056000
     28 N30        31.6480    6.4610  -82.9160 n3        1 RPR     -0.322000
     29 N31        33.7730    6.7740  -81.8770 n2        1 RPR     -0.232000
     30 O32        36.6770    5.3960  -82.3510 o         1 RPR     -0.309000
     31 C34        38.4390    7.3410  -82.8860 c1        1 RPR     -0.014000
     32 H11        43.3960   11.0310  -84.9480 ha        1 RPR      0.158000
     33 H31        45.3650    8.8890  -86.1080 ha        1 RPR      0.183000
     34 H41      -265.6060  -42.2640  569.1050 ha        1 RPR      0.263000
     35 H51        45.0670   11.2990  -85.7330 ha        1 RPR      0.158000
     36 H71        44.7860    6.6290  -85.9000 ha        1 RPR      0.198000
     37 H91        41.6300    9.3250  -85.3620 hc        1 RPR      0.215500
     38 H101       42.3590    9.2220  -83.7210 hc        1 RPR      0.215500
     39 H121       43.2220    4.8270  -85.2370 ha        1 RPR      0.185000
     40 H141       40.3030    7.7550  -83.8630 ha        1 RPR      0.233000
     41 H151       40.3910    3.9490  -85.7230 hn        1 RPR      0.233500
     42 H161       40.3590    2.2730  -83.8450 hc        1 RPR      0.071667
     43 H162       38.9520    1.4810  -84.6570 hc        1 RPR      0.071667
     44 H163       38.7900    2.1570  -82.9760 hc        1 RPR      0.071667
     45 H171       37.0480    4.5720  -85.3300 hc        1 RPR      0.073000
     46 H201       36.8480    2.0390  -84.5340 hc        1 RPR      0.147500
     47 H202       36.6680    2.7460  -82.8680 hc        1 RPR      0.147500
     48 H211       42.8390   10.9600  -82.7640 ha        1 RPR      0.003333
     49 H212       42.8960   11.1070  -82.1040 ha        1 RPR      0.003333
     50 H221       41.0610   11.9450  -84.4010 ha        1 RPR      0.003333
     51 H222     -268.9900  -42.0160  574.8000 hn        1 RPR      0.406000
     52 H231       34.6610    4.0290  -82.2330 ha        1 RPR      0.223000
     53 H251       33.4050    6.4190  -85.4650 hc        1 RPR      0.180500
     54 H261       33.5370    4.4660  -87.1840 ha        1 RPR      0.261000
     55 H271       34.5540    2.1080  -83.9460 hc        1 RPR      0.193000
     56 H301       31.0730    5.6460  -82.8410 hn        1 RPR      0.207500
     57 H302       32.0220    5.2430  -85.2610 hc        1 RPR      0.180500
     58 H311       34.7450    6.5540  -81.8980 hn        1 RPR      0.174000
     59 H341       36.7070    8.8150  -83.5600 ha        1 RPR      0.003333
     60 H342       37.2050    8.9720  -83.9950 ha        1 RPR      0.003333
     61 H343       37.8860    7.4290  -81.9270 ha        1 RPR      0.089000
     62 H142       39.3750    5.2750  -85.5510 hn        1 RPR      0.233500
     63 H223       41.2770   11.3050  -84.4650 ha        1 RPR      0.003333
     64 H303       31.3130    7.2060  -82.3340 hn        1 RPR      0.207500
     65 C13        40.7910    5.0770  -84.0570 c2        1 RPR      0.189000
     66 C29        33.0210    6.1650  -82.7350 c2        1 RPR      0.098000
     67 O33        40.8400    4.6400  -82.9160 o         1 RPR     -0.150000
@<TRIPOS>BOND
     1    1    2 1   
     2    1   32 1   
     3    1   35 1   
     4    2   11 1   
     5    2   33 1   
     6    3    4 1   
     7    4    5 1   
     8    4   34 1   
     9    5    6 1   
    10    6   20 1   
    11    7    8 1   
    12    7   12 1   
    13    7   39 1   
    14    8    9 1   
    15    8   65 1   
    16    9   10 1   
    17    9   40 1   
    18   10   11 1   
    19   10   37 1   
    20   10   38 1   
    21   11   12 1   
    22   12   36 1   
    23   13   14 1   
    24   13   41 1   
    25   13   62 1   
    26   13   65 1   
    27   14   15 1   
    28   14   16 1   
    29   15   42 1   
    30   15   43 1   
    31   15   44 1   
    32   16   17 1   
    33   16   19 1   
    34   16   45 1   
    35   17   18 1   
    36   17   30 1   
    37   18   31 1   
    38   19   27 1   
    39   19   46 1   
    40   19   47 1   
    41   20   21 1   
    42   21   51 1   
    43   22   23 1   
    44   22   27 1   
    45   22   52 1   
    46   23   24 1   
    47   23   66 1   
    48   24   25 1   
    49   24   53 1   
    50   24   57 1   
    51   25   26 1   
    52   25   54 1   
    53   26   27 1   
    54   27   55 1   
    55   28   56 1   
    56   28   64 1   
    57   28   66 1   
    58   29   58 1   
    59   29   66 1   
    60   31   61 1   
    61   48   49 1   
    62   50   63 1   
    63   59   60 1   
    64   65   67 1   
@<TRIPOS>SUBSTRUCTURE
     1 RPR         1 TEMP              0 ****  ****    0 ROOT
