@<TRIPOS>MOLECULE
RQ3
   47    48     1     0     0
SMALL
bcc


@<TRIPOS>ATOM
      1 C1         -0.6100    2.6050   -0.6740 c         1 RQ3      0.940600
      2 O2         -0.6080    2.5000    0.5780 o         1 RQ3     -0.807800
      3 O3         -0.4750    3.6660   -1.3310 o         1 RQ3     -0.807800
      4 C4         -0.7450    1.2560   -1.5210 c3        1 RQ3      0.004800
      5 C5         -0.7470    0.0280   -0.6320 c3        1 RQ3     -0.108600
      6 C6          0.3860    1.2420   -2.5310 c3        1 RQ3     -0.108600
      7 O7         -2.0230    1.4380   -2.1690 os        1 RQ3     -0.285900
      8 C8         -2.4960    0.5330   -3.0660 ca        1 RQ3      0.188100
      9 C9         -3.6560    0.9670   -3.7590 ca        1 RQ3     -0.206000
     10 C10        -4.2610    0.1380   -4.6870 ca        1 RQ3     -0.091000
     11 C11        -3.7410   -1.1360   -4.9640 ca        1 RQ3     -0.197300
     12 C12        -1.9830   -0.7480   -3.3340 ca        1 RQ3     -0.206000
     13 C13        -2.6040   -1.5650   -4.2740 ca        1 RQ3     -0.091000
     14 C14        -4.4040   -2.0180   -5.9540 c3        1 RQ3     -0.086100
     15 C15        -3.9390   -1.8530   -7.3970 c         1 RQ3      0.665100
     16 O16        -4.1400   -2.7730   -8.2150 o         1 RQ3     -0.622100
     17 N17        -3.3450   -0.6500   -7.7430 n         1 RQ3     -0.463100
     18 C18        -2.8130   -0.2830   -8.9880 ca        1 RQ3      0.084600
     19 C19        -2.0520    0.9090   -9.0650 ca        1 RQ3     -0.177000
     20 C20        -1.5210    1.3350  -10.2810 ca        1 RQ3     -0.053800
     21 C21        -1.7360    0.5840  -11.4400 ca        1 RQ3     -0.167000
     22 C22        -3.0200   -1.0300  -10.1660 ca        1 RQ3     -0.177000
     23 C23        -2.4820   -0.5950  -11.3800 ca        1 RQ3     -0.053800
     24 C24        -0.7160    2.5800  -10.3330 c3        1 RQ3     -0.051800
     25 C25        -2.6980   -1.4060  -12.6020 c3        1 RQ3     -0.051800
     26 H51        -1.7700   -0.4180   -0.5820 hc        1 RQ3      0.037033
     27 H52        -0.0340   -0.7480   -1.0020 hc        1 RQ3      0.037033
     28 H53        -0.4450    0.3230    0.4050 hc        1 RQ3      0.037033
     29 H61         1.3560    1.1560   -1.9850 hc        1 RQ3      0.037033
     30 H62         0.2980    0.3940   -3.2500 hc        1 RQ3      0.037033
     31 H63         0.3780    2.2060   -3.0970 hc        1 RQ3      0.037033
     32 H91        -4.0560    1.9670   -3.5370 ha        1 RQ3      0.151500
     33 H101       -5.1650    0.4810   -5.2140 ha        1 RQ3      0.119000
     34 H121       -1.0930   -1.1130   -2.8020 ha        1 RQ3      0.151500
     35 H131       -2.1920   -2.5660   -4.4720 ha        1 RQ3      0.119000
     36 H141       -5.5130   -1.8340   -5.9580 hc        1 RQ3      0.073200
     37 H142       -4.2390   -3.0970   -5.6880 hc        1 RQ3      0.073200
     38 H171       -3.1640   -0.0100   -6.9940 hn        1 RQ3      0.336500
     39 H191       -1.8690    1.5140   -8.1620 ha        1 RQ3      0.155000
     40 H211       -1.3180    0.9220  -12.3980 ha        1 RQ3      0.124000
     41 H221       -3.6040   -1.9640  -10.1410 ha        1 RQ3      0.155000
     42 H241       -0.6440    2.9700  -11.3770 hc        1 RQ3      0.041533
     43 H242        0.3200    2.3790   -9.9600 hc        1 RQ3      0.041533
     44 H243       -1.1700    3.3720   -9.6880 hc        1 RQ3      0.041533
     45 H251       -2.5600   -0.7900  -13.5240 hc        1 RQ3      0.041533
     46 H252       -3.7300   -1.8370  -12.6150 hc        1 RQ3      0.041533
     47 H253       -1.9670   -2.2520  -12.6320 hc        1 RQ3      0.041533
@<TRIPOS>BOND
     1    1    2 1   
     2    1    3 1   
     3    1    4 1   
     4    4    5 1   
     5    4    6 1   
     6    4    7 1   
     7    5   26 1   
     8    5   27 1   
     9    5   28 1   
    10    6   29 1   
    11    6   30 1   
    12    6   31 1   
    13    7    8 1   
    14    8    9 ar  
    15    8   12 ar  
    16    9   10 ar  
    17    9   32 1   
    18   10   11 ar  
    19   10   33 1   
    20   11   13 ar  
    21   11   14 1   
    22   12   13 ar  
    23   12   34 1   
    24   13   35 1   
    25   14   15 1   
    26   14   36 1   
    27   14   37 1   
    28   15   16 2   
    29   15   17 1   
    30   17   18 1   
    31   17   38 1   
    32   18   19 ar  
    33   18   22 ar  
    34   19   20 ar  
    35   19   39 1   
    36   20   21 ar  
    37   20   24 1   
    38   21   23 ar  
    39   21   40 1   
    40   22   23 ar  
    41   22   41 1   
    42   23   25 1   
    43   24   42 1   
    44   24   43 1   
    45   24   44 1   
    46   25   45 1   
    47   25   46 1   
    48   25   47 1   
@<TRIPOS>SUBSTRUCTURE
     1 RQ3         1 TEMP              0 ****  ****    0 ROOT
