@<TRIPOS>MOLECULE
RQ3
   47    48     1     0     0
SMALL
bcc


@<TRIPOS>ATOM
      1 C1         -0.8170    2.6970   -0.6640 c         1 RQ3      0.940600
      2 O2         -0.8360    2.6020    0.5890 o         1 RQ3     -0.807800
      3 O3         -0.7060    3.7570   -1.3270 o         1 RQ3     -0.807800
      4 C4         -0.8870    1.3380   -1.5020 c3        1 RQ3      0.004800
      5 C5         -0.8650    0.1170   -0.6040 c3        1 RQ3     -0.108600
      6 C6          0.2650    1.3550   -2.4880 c3        1 RQ3     -0.108600
      7 O7         -2.1560    1.4700   -2.1780 os        1 RQ3     -0.285900
      8 C8         -2.5780    0.5420   -3.0790 ca        1 RQ3      0.188100
      9 C9         -3.7370    0.9310   -3.8000 ca        1 RQ3     -0.206000
     10 C10        -4.2930    0.0750   -4.7340 ca        1 RQ3     -0.091000
     11 C11        -3.7220   -1.1820   -4.9890 ca        1 RQ3     -0.197300
     12 C12        -2.0150   -0.7220   -3.3250 ca        1 RQ3     -0.206000
     13 C13        -2.5870   -1.5660   -4.2710 ca        1 RQ3     -0.091000
     14 C14        -4.3330   -2.0940   -5.9860 c3        1 RQ3     -0.086100
     15 C15        -3.8410   -1.9240   -7.4200 c         1 RQ3      0.665100
     16 O16        -3.9940   -2.8570   -8.2350 o         1 RQ3     -0.622100
     17 N17        -3.2800   -0.7050   -7.7620 ns        1 RQ3     -0.463100
     18 C18        -2.7320   -0.3310   -8.9980 ca        1 RQ3      0.084600
     19 C19        -2.0070    0.8850   -9.0670 ca        1 RQ3     -0.177000
     20 C20        -1.4630    1.3190  -10.2740 ca        1 RQ3     -0.053800
     21 C21        -1.6260    0.5520  -11.4310 ca        1 RQ3     -0.167000
     22 C22        -2.8880   -1.0920  -10.1740 ca        1 RQ3     -0.177000
     23 C23        -2.3350   -0.6500  -11.3790 ca        1 RQ3     -0.053800
     24 C24        -0.7200    2.6010  -10.3230 c3        1 RQ3     -0.051800
     25 C25        -2.4960   -1.4770  -12.5990 c3        1 RQ3     -0.051800
     26 H51        -0.1170   -0.6360   -0.9520 hc        1 RQ3      0.037033
     27 H52        -1.8720   -0.3640   -0.5710 hc        1 RQ3      0.037033
     28 H53        -0.5950    0.4310    0.4370 hc        1 RQ3      0.037033
     29 H61         1.2260    1.3080   -1.9220 hc        1 RQ3      0.037033
     30 H62         0.2230    0.5000   -3.2020 hc        1 RQ3      0.037033
     31 H63         0.2360    2.3140   -3.0630 hc        1 RQ3      0.037033
     32 H91        -4.1760    1.9180   -3.5940 ha        1 RQ3      0.151500
     33 H101       -5.1960    0.3820   -5.2830 ha        1 RQ3      0.119000
     34 H121       -1.1250   -1.0520   -2.7710 ha        1 RQ3      0.151500
     35 H131       -2.1360   -2.5540   -4.4520 ha        1 RQ3      0.119000
     36 H141       -4.1370   -3.1650   -5.7070 hc        1 RQ3      0.073200
     37 H142       -5.4470   -1.9480   -6.0160 hc        1 RQ3      0.073200
     38 H171       -3.1370   -0.0540   -7.0150 hn        1 RQ3      0.336500
     39 H191       -1.8620    1.5010   -8.1650 ha        1 RQ3      0.154500
     40 H211       -1.1950    0.8950  -12.3830 ha        1 RQ3      0.124000
     41 H221       -3.4420   -2.0450  -10.1550 ha        1 RQ3      0.154500
     42 H241       -0.0550    2.7070   -9.4290 hc        1 RQ3      0.041533
     43 H242       -1.4390    3.4590  -10.3250 hc        1 RQ3      0.041533
     44 H243       -0.0890    2.6680  -11.2430 hc        1 RQ3      0.041533
     45 H251       -1.7310   -2.2940  -12.6080 hc        1 RQ3      0.041533
     46 H252       -3.5090   -1.9480  -12.6280 hc        1 RQ3      0.041533
     47 H253       -2.3640   -0.8620  -13.5230 hc        1 RQ3      0.041533
@<TRIPOS>BOND
     1    1    2 1   
     2    1    3 1   
     3    1    4 1   
     4    4    5 1   
     5    4    6 1   
     6    4    7 1   
     7    5   26 1   
     8    5   27 1   
     9    5   28 1   
    10    6   29 1   
    11    6   30 1   
    12    6   31 1   
    13    7    8 1   
    14    8    9 ar  
    15    8   12 ar  
    16    9   10 ar  
    17    9   32 1   
    18   10   11 ar  
    19   10   33 1   
    20   11   13 ar  
    21   11   14 1   
    22   12   13 ar  
    23   12   34 1   
    24   13   35 1   
    25   14   15 1   
    26   14   36 1   
    27   14   37 1   
    28   15   16 2   
    29   15   17 1   
    30   17   18 1   
    31   17   38 1   
    32   18   19 ar  
    33   18   22 ar  
    34   19   20 ar  
    35   19   39 1   
    36   20   21 ar  
    37   20   24 1   
    38   21   23 ar  
    39   21   40 1   
    40   22   23 ar  
    41   22   41 1   
    42   23   25 1   
    43   24   42 1   
    44   24   43 1   
    45   24   44 1   
    46   25   45 1   
    47   25   46 1   
    48   25   47 1   
@<TRIPOS>SUBSTRUCTURE
     1 RQ3         1 TEMP              0 ****  ****    0 ROOT
