@<TRIPOS>MOLECULE
RQ3
   47    43     1     0     0
SMALL
bcc


@<TRIPOS>ATOM
      1 C1          2.5100    0.0360    3.3900 c1        1 RQ3      0.323000
      2 O2          1.8050    0.2530    2.3700 os        1 RQ3     -0.538000
      3 O3          2.8380   -1.1420    3.6900 o         1 RQ3     -0.567000
      4 C4          2.9350    1.1880    4.2740 c3        1 RQ3     -0.003000
      5 C5          2.1070    1.1840    5.5400 c3        1 RQ3     -0.204500
      6 C6          4.3980    1.0380    4.6290 c3        1 RQ3     -0.204500
      7 O7          2.7410    2.4000    3.5900 os        1 RQ3     -0.211000
      8 C8          2.0350    2.2650    2.3810 c2        1 RQ3      0.153000
      9 C9          2.7270    2.0810    1.1930 c2        1 RQ3     -0.196000
     10 C10         2.0410    2.0400   -0.0100 c1        1 RQ3     -0.100000
     11 C11         0.6620    2.1830   -0.0260 c1        1 RQ3     -0.185000
     12 C12         0.6570    2.4090    2.3640 c1        1 RQ3     -0.193000
     13 C13        -0.0300    2.3670    1.1600 c1        1 RQ3     -0.092000
     14 C14        -0.0780    2.2150   -1.3450 c3        1 RQ3     -0.122000
     15 C15        -0.5540    0.8220   -1.6900 c2        1 RQ3      0.309000
     16 O16         0.0270   -0.1460   -1.2430 o         1 RQ3     -0.391000
     17 N17        -1.6880    0.6460   -2.5230 n         1 RQ3     -0.313000
     18 C18        -2.1430   -0.6590   -2.8340 c2        1 RQ3      0.090000
     19 C19        -1.2280   -1.6650   -3.1080 c2        1 RQ3     -0.169000
     20 C20        -1.6730   -2.9260   -3.4740 c1        1 RQ3     -0.056000
     21 C21        -3.0320   -3.1820   -3.5640 c1        1 RQ3     -0.169000
     22 C22        -3.5020   -0.9160   -2.9240 c1        1 RQ3     -0.179000
     23 C23        -3.9460   -2.1760   -3.2900 c1        1 RQ3     -0.043000
     24 C24        -0.6740   -4.0150   -3.7990 c3        1 RQ3     -0.173000
     25 C25        -5.4290   -2.4590   -3.3790 c3        1 RQ3     -0.180000
     26 H51         1.1680    1.3560    5.3160 hc        1 RQ3      0.073500
     27 H52         2.1830    0.3100    5.9770 hc        1 RQ3      0.073500
     28 H53         2.4320    1.8820    6.1450 hc        1 RQ3      0.073500
     29 H61         4.6310    1.6790    5.3330 hc        1 RQ3      0.073500
     30 H62         4.9460    1.2110    3.8350 hc        1 RQ3      0.073500
     31 H63         4.5650    0.1260    4.9490 hc        1 RQ3      0.073500
     32 H91         3.6990    1.9880    1.2040 ha        1 RQ3      0.197000
     33 H101        2.5280    1.9100   -0.8460 ha        1 RQ3      0.122000
     34 H121        0.1700    2.5360    3.2000 ha        1 RQ3      0.136000
     35 H131       -0.9980    2.4930    1.1470 ha        1 RQ3      0.117000
     36 H141       -0.8490    2.8140   -1.2720 hc        1 RQ3      0.109500
     37 H142        0.5210    2.5380   -2.0480 hc        1 RQ3      0.109500
     38 H171       -2.1160    1.3730   -2.8690 hn        1 RQ3      0.258000
     39 H191       -0.2710   -1.4810   -3.0550 ha        1 RQ3      0.166000
     40 H211       -3.3450   -4.0640   -3.8390 ha        1 RQ3      0.121000
     41 H221       -4.1450   -0.2040   -2.7470 ha        1 RQ3      0.155000
     42 H241        0.1910   -3.7990   -3.3900 hc        1 RQ3      0.076667
     43 H242       -0.5680   -4.0820   -4.7720 hc        1 RQ3      0.076667
     44 H243       -0.9970   -4.8710   -3.4460 hc        1 RQ3      0.076667
     45 H251       -5.5810   -3.2190   -3.9780 hc        1 RQ3      0.083667
     46 H252       -5.8910   -1.6690   -3.7300 hc        1 RQ3      0.083667
     47 H253       -5.7760   -2.6700   -2.4870 hc        1 RQ3      0.083667
@<TRIPOS>BOND
     1    1    3 1   
     2    1    4 1   
     3    4    5 1   
     4    4    6 1   
     5    4    7 1   
     6    5   26 1   
     7    5   27 1   
     8    5   28 1   
     9    6   29 1   
    10    6   30 1   
    11    6   31 1   
    12    7    8 1   
    13    8    9 1   
    14    8   12 1   
    15    9   10 1   
    16    9   32 1   
    17   10   33 1   
    18   11   13 1   
    19   11   14 1   
    20   12   34 1   
    21   13   35 1   
    22   14   15 1   
    23   14   36 1   
    24   14   37 1   
    25   15   16 1   
    26   15   17 1   
    27   17   18 1   
    28   17   38 1   
    29   18   19 1   
    30   18   22 1   
    31   19   20 1   
    32   19   39 1   
    33   20   24 1   
    34   21   23 1   
    35   21   40 1   
    36   22   41 1   
    37   23   25 1   
    38   24   42 1   
    39   24   43 1   
    40   24   44 1   
    41   25   45 1   
    42   25   46 1   
    43   25   47 1   
@<TRIPOS>SUBSTRUCTURE
     1 RQ3         1 TEMP              0 ****  ****    0 ROOT
