@<TRIPOS>MOLECULE
RQ3
   47    48     1     0     0
SMALL
bcc


@<TRIPOS>ATOM
      1 C1          0.1360   -2.8820   -4.8460 c         1 RQ3      0.940600
      2 O2         -0.0560   -2.8210   -6.0870 o         1 RQ3     -0.807800
      3 O3          0.1790   -3.9260   -4.1510 o         1 RQ3     -0.807800
      4 C4          0.4040   -1.5050   -4.0810 c3        1 RQ3      0.004800
      5 C5          0.4790   -0.3310   -5.0370 c3        1 RQ3     -0.108600
      6 C6          1.6740   -1.6780   -3.2710 c3        1 RQ3     -0.108600
      7 O7         -0.7550   -1.4100   -3.2230 os        1 RQ3     -0.285900
      8 C8         -0.8880   -0.4000   -2.3230 ca        1 RQ3      0.188100
      9 C9         -1.9720   -0.5750   -1.4240 ca        1 RQ3     -0.206000
     10 C10        -2.2420    0.3870   -0.4670 ca        1 RQ3     -0.091000
     11 C11        -1.4520    1.5430   -0.3630 ca        1 RQ3     -0.197300
     12 C12        -0.1050    0.7630   -2.2270 ca        1 RQ3     -0.206000
     13 C13        -0.3920    1.7170   -1.2560 ca        1 RQ3     -0.091000
     14 C14        -1.7580    2.5710    0.6610 c3        1 RQ3     -0.086100
     15 C15        -1.0920    2.3660    2.0170 c         1 RQ3      0.665100
     16 O16        -0.9750    3.3350    2.7950 o         1 RQ3     -0.622100
     17 N17        -0.6830    1.0830    2.3400 n         1 RQ3     -0.463100
     18 C18        -0.0240    0.6610    3.5040 ca        1 RQ3      0.084600
     19 C19         0.5050   -0.6530    3.5350 ca        1 RQ3     -0.177000
     20 C20         1.1470   -1.1330    4.6750 ca        1 RQ3     -0.053800
     21 C21         1.2780   -0.3160    5.8010 ca        1 RQ3     -0.167000
     22 C22         0.1160    1.4730    4.6490 ca        1 RQ3     -0.177000
     23 C23         0.7650    0.9830    5.7850 ca        1 RQ3     -0.053800
     24 C24         1.6800   -2.5170    4.6860 c3        1 RQ3     -0.051800
     25 C25         0.9170    1.8610    6.9710 c3        1 RQ3     -0.051800
     26 H51        -0.4350    0.3050   -4.9500 hc        1 RQ3      0.037033
     27 H52         1.3780    0.3030   -4.8400 hc        1 RQ3      0.037033
     28 H53         0.5380   -0.7140   -6.0870 hc        1 RQ3      0.037033
     29 H61         1.5830   -2.6020   -2.6480 hc        1 RQ3      0.037033
     30 H62         2.5340   -1.8020   -3.9710 hc        1 RQ3      0.037033
     31 H63         1.8720   -0.8060   -2.6050 hc        1 RQ3      0.037033
     32 H91        -2.5840   -1.4840   -1.5120 ha        1 RQ3      0.151500
     33 H101       -3.0900    0.2460    0.2210 ha        1 RQ3      0.119000
     34 H121        0.7320    0.9280   -2.9200 ha        1 RQ3      0.151500
     35 H131        0.2290    2.6240   -1.1940 ha        1 RQ3      0.119000
     36 H141       -2.8650    2.6090    0.8550 hc        1 RQ3      0.073200
     37 H142       -1.4410    3.5870    0.3000 hc        1 RQ3      0.073200
     38 H171       -0.7550    0.3960    1.6160 hn        1 RQ3      0.336500
     39 H191        0.4170   -1.3100    2.6550 ha        1 RQ3      0.154500
     40 H211        1.7860   -0.6960    6.6990 ha        1 RQ3      0.124000
     41 H221       -0.2790    2.5020    4.6580 ha        1 RQ3      0.154500
     42 H241        0.8450   -3.2460    4.8400 hc        1 RQ3      0.041533
     43 H242        2.1760   -2.7570    3.7130 hc        1 RQ3      0.041533
     44 H243        2.4250   -2.6560    5.5070 hc        1 RQ3      0.041533
     45 H251        1.7900    2.5450    6.8270 hc        1 RQ3      0.041533
     46 H252        0.0030    2.4880    7.1190 hc        1 RQ3      0.041533
     47 H253        1.0900    1.2600    7.8970 hc        1 RQ3      0.041533
@<TRIPOS>BOND
     1    1    2 1   
     2    1    3 1   
     3    1    4 1   
     4    4    5 1   
     5    4    6 1   
     6    4    7 1   
     7    5   26 1   
     8    5   27 1   
     9    5   28 1   
    10    6   29 1   
    11    6   30 1   
    12    6   31 1   
    13    7    8 1   
    14    8    9 ar  
    15    8   12 ar  
    16    9   10 ar  
    17    9   32 1   
    18   10   11 ar  
    19   10   33 1   
    20   11   13 ar  
    21   11   14 1   
    22   12   13 ar  
    23   12   34 1   
    24   13   35 1   
    25   14   15 1   
    26   14   36 1   
    27   14   37 1   
    28   15   16 2   
    29   15   17 1   
    30   17   18 1   
    31   17   38 1   
    32   18   19 ar  
    33   18   22 ar  
    34   19   20 ar  
    35   19   39 1   
    36   20   21 ar  
    37   20   24 1   
    38   21   23 ar  
    39   21   40 1   
    40   22   23 ar  
    41   22   41 1   
    42   23   25 1   
    43   24   42 1   
    44   24   43 1   
    45   24   44 1   
    46   25   45 1   
    47   25   46 1   
    48   25   47 1   
@<TRIPOS>SUBSTRUCTURE
     1 RQ3         1 TEMP              0 ****  ****    0 ROOT
