@<TRIPOS>MOLECULE
RQ3
   48    49     1     0     0
SMALL
bcc


@<TRIPOS>ATOM
      1 C1         -0.7210    0.2120   -4.3010 c         1 RQ3      0.902600
      2 O2         -0.9310    1.2470   -5.0220 o         1 RQ3     -0.848800
      3 O3         -0.5770   -0.9240   -4.8290 o         1 RQ3     -0.848800
      4 C4         -0.6790    0.3610   -2.7610 c3        1 RQ3      0.066800
      5 C5         -0.1600    1.7310   -2.3650 c3        1 RQ3     -0.089600
      6 C6          0.1350   -0.7500   -2.1220 c3        1 RQ3     -0.089600
      7 O7         -2.0240    0.2200   -2.1820 os        1 RQ3     -0.354900
      8 C8         -3.0160    0.4750   -3.1090 ca        1 RQ3      0.158100
      9 C9         -3.5500    1.7680   -3.2290 ca        1 RQ3     -0.132000
     10 C10        -4.3200    2.0710   -4.3470 ca        1 RQ3     -0.108500
     11 C11        -4.5530    1.0910   -5.3210 ca        1 RQ3     -0.184300
     12 C12        -3.4500   -0.5640   -3.9530 ca        1 RQ3     -0.132000
     13 C13        -4.2230   -0.2470   -5.0640 ca        1 RQ3     -0.108500
     14 C14        -4.9680    1.4930   -6.6860 c3        1 RQ3     -0.077100
     15 C15        -3.7900    2.0800   -7.4350 c         1 RQ3      0.558100
     16 O16        -3.8410    3.0640   -8.1670 o         1 RQ3     -0.477100
     17 N17        -2.4450    1.4430   -7.2620 n4        1 RQ3     -0.551200
     18 C18        -2.1950    0.3810   -8.2390 ca        1 RQ3     -0.026400
     19 C19        -2.6460    0.5060   -9.5650 ca        1 RQ3     -0.119500
     20 C20        -2.3760   -0.5140  -10.4780 ca        1 RQ3     -0.059300
     21 C21        -1.6550   -1.6430  -10.0660 ca        1 RQ3     -0.109000
     22 C22        -1.4600   -0.7410   -7.8280 ca        1 RQ3     -0.119500
     23 C23        -1.1940   -1.7590   -8.7530 ca        1 RQ3     -0.059300
     24 C24        -2.8330   -0.4000  -11.8830 c3        1 RQ3     -0.063300
     25 C25        -0.4180   -2.9480   -8.3310 c3        1 RQ3     -0.063300
     26 H51        -0.1620    1.8420   -1.2550 hc        1 RQ3      0.044533
     27 H52         0.8780    1.8580   -2.7510 hc        1 RQ3      0.044533
     28 H53        -0.8080    2.5220   -2.8150 hc        1 RQ3      0.044533
     29 H61        -0.2050   -1.7390   -2.5140 hc        1 RQ3      0.044533
     30 H62         0.0130   -0.7310   -1.0140 hc        1 RQ3      0.044533
     31 H63         1.2100   -0.6090   -2.3820 hc        1 RQ3      0.044533
     32 H91        -3.2890    2.5390   -2.4900 ha        1 RQ3      0.163000
     33 H101       -4.6900    3.0960   -4.4970 ha        1 RQ3      0.133500
     34 H121       -3.0870   -1.5890   -3.7820 ha        1 RQ3      0.163000
     35 H131       -4.5190   -1.0370   -5.7700 ha        1 RQ3      0.133500
     36 H141       -5.3520    0.6180   -7.2770 hc        1 RQ3      0.100200
     37 H142       -5.7700    2.2810   -6.6610 hc        1 RQ3      0.100200
     38 H171       -1.7080    2.1560   -7.3690 hn        1 RQ3      0.502800
     39 H191       -3.2000    1.4000   -9.8960 ha        1 RQ3      0.193500
     40 H211       -1.4460   -2.4460  -10.7900 ha        1 RQ3      0.145000
     41 H221       -1.0730   -0.8270   -6.7820 ha        1 RQ3      0.193500
     42 H241       -3.6270    0.3790  -11.9910 hc        1 RQ3      0.056200
     43 H242       -3.2440   -1.3760  -12.2430 hc        1 RQ3      0.056200
     44 H243       -1.9730   -0.1190  -12.5410 hc        1 RQ3      0.056200
     45 H251        0.5470   -2.9970   -8.8960 hc        1 RQ3      0.056200
     46 H252       -0.9950   -3.8830   -8.5410 hc        1 RQ3      0.056200
     47 H253       -0.1850   -2.9100   -7.2360 hc        1 RQ3      0.056200
     48 H172       -2.3140    1.0510   -6.2760 hn        1 RQ3      0.502800
@<TRIPOS>BOND
     1    1    2 1   
     2    1    3 1   
     3    1    4 1   
     4    4    5 1   
     5    4    6 1   
     6    4    7 1   
     7    5   26 1   
     8    5   27 1   
     9    5   28 1   
    10    6   29 1   
    11    6   30 1   
    12    6   31 1   
    13    7    8 1   
    14    8    9 ar  
    15    8   12 ar  
    16    9   10 ar  
    17    9   32 1   
    18   10   11 ar  
    19   10   33 1   
    20   11   13 ar  
    21   11   14 1   
    22   12   13 ar  
    23   12   34 1   
    24   13   35 1   
    25   14   15 1   
    26   14   36 1   
    27   14   37 1   
    28   15   16 2   
    29   15   17 1   
    30   17   18 1   
    31   17   38 1   
    32   17   48 1   
    33   18   19 ar  
    34   18   22 ar  
    35   19   20 ar  
    36   19   39 1   
    37   20   21 ar  
    38   20   24 1   
    39   21   23 ar  
    40   21   40 1   
    41   22   23 ar  
    42   22   41 1   
    43   23   25 1   
    44   24   42 1   
    45   24   43 1   
    46   24   44 1   
    47   25   45 1   
    48   25   46 1   
    49   25   47 1   
@<TRIPOS>SUBSTRUCTURE
     1 RQ3         1 TEMP              0 ****  ****    0 ROOT
