@<TRIPOS>MOLECULE
RQQ
   38    40     1     0     0
SMALL
bcc


@<TRIPOS>ATOM
      1 O1          0.1630   -0.6870   -0.0700 o         1 RQQ     -0.425100
      2 C6          1.3570   -0.4740    0.1030 c         1 RQQ      0.565700
      3 C4          2.0640   -0.3260    1.3770 ca        1 RQQ     -0.209600
      4 C3          3.4740   -0.4580    1.4920 ca        1 RQQ     -0.127000
      5 C2          4.0910   -0.3200    2.7080 ca        1 RQQ     -0.127300
      6 C5          1.2840   -0.0710    2.4960 ca        1 RQQ     -0.035300
      7 C           1.8990    0.0850    3.7700 ca        1 RQQ      0.259300
      8 N2          1.1130    0.3510    4.8870 nb        1 RQQ     -0.601000
      9 C16         1.7420    0.4800    6.0370 ca        1 RQQ      0.318900
     10 C15         3.1880    0.3560    6.1500 ca        1 RQQ      0.343900
     11 N1          3.9590    0.1060    5.1100 nb        1 RQQ     -0.618000
     12 C1          3.3260   -0.0390    3.8820 ca        1 RQQ      0.330300
     13 N           2.1940   -0.3260   -1.1490 n4        1 RQQ     -0.678800
     14 C7          1.3790   -0.0810   -2.3910 c3        1 RQQ      0.188100
     15 C8          2.2620    0.0150   -3.5810 ca        1 RQQ     -0.244300
     16 C14         2.6360   -1.1500   -4.2700 ca        1 RQQ     -0.060500
     17 C13         3.4240   -1.0730   -5.4050 ca        1 RQQ     -0.182000
     18 C11         3.8460    0.1940   -5.8710 ca        1 RQQ      0.187100
     19 O           4.6230    0.1620   -6.9970 os        1 RQQ     -0.304900
     20 C12         5.0260    1.4200   -7.5410 c3        1 RQQ      0.105700
     21 C10         3.4700    1.3630   -5.1910 ca        1 RQQ     -0.182000
     22 C9          2.6800    1.2650   -4.0500 ca        1 RQQ     -0.060500
     23 H           2.7430   -1.1840   -1.2800 hn        1 RQQ      0.456300
     24 H3          4.0950   -0.6980    0.6160 ha        1 RQQ      0.129000
     25 H5          0.1840    0.0120    2.4100 ha        1 RQQ      0.187000
     26 H2          5.1870   -0.4290    2.7990 ha        1 RQQ      0.181000
     27 H16         1.1310    0.6910    6.9350 h4        1 RQQ      0.062100
     28 H15         3.6800    0.4720    7.1350 h4        1 RQQ      0.062100
     29 H71C        0.6470   -0.9350   -2.4890 hx        1 RQQ      0.113200
     30 H72C        0.7950    0.8700   -2.2270 hx        1 RQQ      0.113200
     31 H14         2.2860   -2.1340   -3.9190 ha        1 RQQ      0.139000
     32 H9          2.3720    2.1850   -3.5280 ha        1 RQQ      0.139000
     33 H13         3.7220   -1.9760   -5.9610 ha        1 RQQ      0.168000
     34 H10         3.7850    2.3530   -5.5550 ha        1 RQQ      0.168000
     35 H121        5.6710    1.9700   -6.8140 h1        1 RQQ      0.061367
     36 H122        4.1340    2.0280   -7.8250 h1        1 RQQ      0.061367
     37 H123        5.6120    1.1240   -8.4490 h1        1 RQQ      0.061367
     38 HN3         2.8520    0.4500   -1.0190 hn        1 RQQ      0.456300
@<TRIPOS>BOND
     1    1    2 2   
     2    2    3 1   
     3    2   13 1   
     4    3    4 ar  
     5    3    6 ar  
     6    4    5 ar  
     7    4   24 1   
     8    5   12 ar  
     9    5   26 1   
    10    6    7 ar  
    11    6   25 1   
    12    7    8 ar  
    13    7   12 ar  
    14    8    9 ar  
    15    9   10 ar  
    16    9   27 1   
    17   10   11 ar  
    18   10   28 1   
    19   11   12 ar  
    20   13   14 1   
    21   13   23 1   
    22   13   38 1   
    23   14   15 1   
    24   14   29 1   
    25   14   30 1   
    26   15   16 ar  
    27   15   22 ar  
    28   16   17 ar  
    29   16   31 1   
    30   17   18 ar  
    31   17   33 1   
    32   18   19 1   
    33   18   21 ar  
    34   19   20 1   
    35   20   35 1   
    36   20   36 1   
    37   20   37 1   
    38   21   22 ar  
    39   21   34 1   
    40   22   32 1   
@<TRIPOS>SUBSTRUCTURE
     1 RQQ         1 TEMP              0 ****  ****    0 ROOT
