@<TRIPOS>MOLECULE
RQQ
   37    32     1     0     0
SMALL
bcc


@<TRIPOS>ATOM
      1 O1         -2.8790    0.4160    0.9010 o         1 RQQ     -0.359000
      2 C6         -1.6800    0.2630    0.8770 c1        1 RQQ      0.337000
      3 C4         -0.9050    0.0340    2.1870 c1        1 RQQ     -0.115000
      4 C3          0.4780   -0.1590    2.2820 c2        1 RQQ     -0.108000
      5 C2          1.0660   -0.3780    3.5280 c1        1 RQQ     -0.095000
      6 C5         -1.6910    0.0070    3.3340 c1        1 RQQ     -0.033000
      7 C          -1.0920   -0.2160    4.5970 c1        1 RQQ     -0.044000
      8 N2         -1.8640   -0.1900    5.7390 n1        1 RQQ     -0.091000
      9 C16        -1.2880   -0.3510    6.9510 c1        1 RQQ     -0.101500
     10 C15         0.0980   -0.5450    7.0480 c1        1 RQQ     -0.101500
     11 N1          0.8560   -0.5700    5.9320 n1        1 RQQ     -0.091000
     12 C1          0.2670   -0.4060    4.6910 c1        1 RQQ     -0.044000
     13 N          -0.9980    0.2900   -0.3390 n3        1 RQQ     -0.360000
     14 C7         -1.7430    0.3090   -1.5870 c3        1 RQQ      0.011000
     15 C8         -0.7730    0.2770   -2.7600 c2        1 RQQ     -0.159000
     16 C14        -0.1620    1.4420   -3.1850 c2        1 RQQ     -0.090000
     17 C13         0.7530    1.4030   -4.2370 c1        1 RQQ     -0.162000
     18 C11         1.0480    0.1960   -4.8550 c1        1 RQQ      0.085000
     19 O           1.8660    0.1720   -5.9670 os        1 RQQ     -0.211000
     20 C12         3.2070   -0.0510   -5.6770 c3        1 RQQ     -0.077000
     21 C10         0.4350   -0.9690   -4.4270 c1        1 RQQ     -0.206000
     22 C9         -0.4750   -0.9310   -3.3820 c1        1 RQQ     -0.076000
     23 H          -0.0960    0.2380   -0.3520 hn        1 RQQ      0.220000
     24 H3          1.0330   -0.1520    1.4730 ha        1 RQQ      0.141000
     25 H5         -2.6800    0.0940    3.2630 ha        1 RQQ      0.174000
     26 H2          2.0490   -0.5170    3.5970 ha        1 RQQ      0.157000
     27 H16        -1.8360   -0.3340    7.7570 ha        1 RQQ      0.173500
     28 H15         0.5190   -0.6610    7.9330 ha        1 RQQ      0.173500
     29 H71C       -2.3270   -0.4690   -1.6270 h1        1 RQQ      0.109500
     30 H72C       -2.3020    1.1540   -1.6350 h1        1 RQQ      0.109500
     31 H14        -0.3730    2.2980   -2.7450 ha        1 RQQ      0.132000
     32 H9         -0.9140   -1.7680   -3.0780 ha        1 RQQ      0.155000
     33 H13         1.1860    2.2240   -4.5380 ha        1 RQQ      0.150000
     34 H10         0.6490   -1.8400   -4.8740 ha        1 RQQ      0.140000
     35 H121        3.3060   -0.9250   -5.2340 h1        1 RQQ      0.084667
     36 H122        3.5350    0.6590   -5.0810 h1        1 RQQ      0.084667
     37 H123        3.7260   -0.0450   -6.5090 h1        1 RQQ      0.084667
@<TRIPOS>BOND
     1    1    2 1   
     2    2   13 1   
     3    3    4 1   
     4    3    6 1   
     5    4    5 1   
     6    4   24 1   
     7    5   26 1   
     8    6   25 1   
     9    7    8 1   
    10    7   12 1   
    11    9   10 1   
    12    9   27 1   
    13   10   28 1   
    14   11   12 1   
    15   13   14 1   
    16   13   23 1   
    17   14   15 1   
    18   14   29 1   
    19   14   30 1   
    20   15   16 1   
    21   15   22 1   
    22   16   17 1   
    23   16   31 1   
    24   17   33 1   
    25   18   19 1   
    26   18   21 1   
    27   19   20 1   
    28   20   35 1   
    29   20   36 1   
    30   20   37 1   
    31   21   34 1   
    32   22   32 1   
@<TRIPOS>SUBSTRUCTURE
     1 RQQ         1 TEMP              0 ****  ****    0 ROOT
