@<TRIPOS>MOLECULE
RQQ
   38    40     1     0     0
SMALL
bcc


@<TRIPOS>ATOM
      1 O1          0.1560   -0.6800   -0.0690 o         1 RQQ     -0.425100
      2 C6          1.3510   -0.4750    0.1020 c         1 RQQ      0.565700
      3 C4          2.0600   -0.3310    1.3750 ca        1 RQQ     -0.209600
      4 C3          3.4680   -0.4830    1.4900 ca        1 RQQ     -0.127000
      5 C2          4.0880   -0.3490    2.7050 ca        1 RQQ     -0.127300
      6 C5          1.2850   -0.0600    2.4940 ca        1 RQQ     -0.035300
      7 C           1.9030    0.0930    3.7680 ca        1 RQQ      0.259300
      8 N2          1.1210    0.3760    4.8830 nb        1 RQQ     -0.601000
      9 C16         1.7540    0.5010    6.0320 ca        1 RQQ      0.318900
     10 C15         3.1970    0.3560    6.1450 ca        1 RQQ      0.343900
     11 N1          3.9640    0.0900    5.1060 nb        1 RQQ     -0.618000
     12 C1          3.3280   -0.0510    3.8790 ca        1 RQQ      0.330300
     13 N           2.1880   -0.3320   -1.1500 n4        1 RQQ     -0.678800
     14 C7          1.3750   -0.0640   -2.3890 c3        1 RQQ      0.188100
     15 C8          2.2570    0.0260   -3.5790 ca        1 RQQ     -0.244300
     16 C14         2.6070   -1.1410   -4.2790 ca        1 RQQ     -0.060000
     17 C13         3.3940   -1.0690   -5.4160 ca        1 RQQ     -0.182000
     18 C11         3.8390    0.1940   -5.8720 ca        1 RQQ      0.187100
     19 O           4.6130    0.1570   -6.9990 os        1 RQQ     -0.304900
     20 C12         5.0400    1.4110   -7.5330 c3        1 RQQ      0.105700
     21 C10         3.4880    1.3640   -5.1800 ca        1 RQQ     -0.182000
     22 C9          2.6980    1.2710   -4.0390 ca        1 RQQ     -0.060000
     23 H           2.7220   -1.1980   -1.2880 hn        1 RQQ      0.456300
     24 H3          4.0850   -0.7370    0.6150 ha        1 RQQ      0.129000
     25 H5          0.1860    0.0380    2.4090 ha        1 RQQ      0.187000
     26 H2          5.1820   -0.4740    2.7960 ha        1 RQQ      0.181000
     27 H16         1.1460    0.7240    6.9290 h4        1 RQQ      0.062100
     28 H15         3.6910    0.4700    7.1290 h4        1 RQQ      0.062100
     29 H71C        0.8080    0.8950   -2.2160 hx        1 RQQ      0.113200
     30 H72C        0.6280   -0.9050   -2.4910 hx        1 RQQ      0.113200
     31 H14         2.2390   -2.1210   -3.9360 ha        1 RQQ      0.139000
     32 H9          2.4090    2.1920   -3.5080 ha        1 RQQ      0.139000
     33 H13         3.6730   -1.9730   -5.9800 ha        1 RQQ      0.168000
     34 H10         3.8210    2.3510   -5.5360 ha        1 RQQ      0.168000
     35 H121        5.6970    1.9420   -6.8030 h1        1 RQQ      0.061367
     36 H122        5.6190    1.1120   -8.4450 h1        1 RQQ      0.061367
     37 H123        4.1590    2.0390   -7.8100 h1        1 RQQ      0.061367
     38 HN3         2.8600    0.4310   -1.0160 hn        1 RQQ      0.456300
@<TRIPOS>BOND
     1    1    2 2   
     2    2    3 1   
     3    2   13 1   
     4    3    4 ar  
     5    3    6 ar  
     6    4    5 ar  
     7    4   24 1   
     8    5   12 ar  
     9    5   26 1   
    10    6    7 ar  
    11    6   25 1   
    12    7    8 ar  
    13    7   12 ar  
    14    8    9 ar  
    15    9   10 ar  
    16    9   27 1   
    17   10   11 ar  
    18   10   28 1   
    19   11   12 ar  
    20   13   14 1   
    21   13   23 1   
    22   13   38 1   
    23   14   15 1   
    24   14   29 1   
    25   14   30 1   
    26   15   16 ar  
    27   15   22 ar  
    28   16   17 ar  
    29   16   31 1   
    30   17   18 ar  
    31   17   33 1   
    32   18   19 1   
    33   18   21 ar  
    34   19   20 1   
    35   20   35 1   
    36   20   36 1   
    37   20   37 1   
    38   21   22 ar  
    39   21   34 1   
    40   22   32 1   
@<TRIPOS>SUBSTRUCTURE
     1 RQQ         1 TEMP              0 ****  ****    0 ROOT
