@<TRIPOS>MOLECULE
RQQ
   37    39     1     0     0
SMALL
bcc


@<TRIPOS>ATOM
      1 O1          0.0600   -1.7700    1.2980 o         1 RQQ     -0.598100
      2 C6          0.3260   -1.1870    0.2280 c         1 RQQ      0.663700
      3 C4          1.5600   -0.3560    0.0820 ca        1 RQQ     -0.135600
      4 C3          1.5020    0.9100   -0.5510 ca        1 RQQ     -0.108000
      5 C2          2.6290    1.6850   -0.6720 ca        1 RQQ     -0.160300
      6 C5          2.7430   -0.8340    0.6010 ca        1 RQQ     -0.098300
      7 C           3.9360   -0.0610    0.4840 ca        1 RQQ      0.273300
      8 N2          5.1330   -0.5490    0.9960 nb        1 RQQ     -0.611000
      9 C16         6.1950    0.2190    0.8550 ca        1 RQQ      0.293900
     10 C15         6.1380    1.5110    0.2000 ca        1 RQQ      0.302900
     11 N1          5.0210    2.0030   -0.2970 nb        1 RQQ     -0.623000
     12 C1          3.8800    1.2210   -0.1660 ca        1 RQQ      0.295300
     13 N          -0.4650   -1.3410   -0.8980 n         1 RQQ     -0.550900
     14 C7         -1.7440   -1.9990   -0.8390 c3        1 RQQ      0.134300
     15 C8         -2.9070   -1.0930   -0.5510 ca        1 RQQ     -0.166300
     16 C14        -3.8120   -0.7510   -1.5620 ca        1 RQQ     -0.083000
     17 C13        -4.9020    0.0660   -1.2880 ca        1 RQQ     -0.184000
     18 C11        -5.0850    0.5510    0.0210 ca        1 RQQ      0.130100
     19 O          -6.1940    1.3570    0.1900 os        1 RQQ     -0.327900
     20 C12        -6.4230    1.8420    1.5070 c3        1 RQQ      0.112700
     21 C10        -4.1850    0.2160    1.0400 ca        1 RQQ     -0.184000
     22 C9         -3.0990   -0.6070    0.7450 ca        1 RQQ     -0.083000
     23 H          -0.3140   -0.7240   -1.6620 hn        1 RQQ      0.306500
     24 H3          0.5390    1.2860   -0.9310 ha        1 RQQ      0.141000
     25 H5          2.7710   -1.8100    1.1160 ha        1 RQQ      0.174000
     26 H2          2.5820    2.6730   -1.1590 ha        1 RQQ      0.157000
     27 H16         7.1520   -0.1560    1.2570 h4        1 RQQ      0.037100
     28 H15         7.0520    2.1220    0.1020 h4        1 RQQ      0.036100
     29 H71C       -1.9030   -2.5100   -1.8330 h1        1 RQQ      0.070200
     30 H72C       -1.6960   -2.7930   -0.0360 h1        1 RQQ      0.070200
     31 H14        -3.6660   -1.1350   -2.5840 ha        1 RQQ      0.143500
     32 H9         -2.3820   -0.8810    1.5370 ha        1 RQQ      0.143500
     33 H13        -5.6220    0.3390   -2.0720 ha        1 RQQ      0.145000
     34 H10        -4.3220    0.5880    2.0640 ha        1 RQQ      0.145000
     35 H121       -7.3610    2.4450    1.4030 h1        1 RQQ      0.045367
     36 H122       -6.5760    0.9950    2.2190 h1        1 RQQ      0.045367
     37 H123       -5.5750    2.4870    1.8430 h1        1 RQQ      0.045367
@<TRIPOS>BOND
     1    1    2 2   
     2    2    3 1   
     3    2   13 1   
     4    3    4 ar  
     5    3    6 ar  
     6    4    5 ar  
     7    4   24 1   
     8    5   12 ar  
     9    5   26 1   
    10    6    7 ar  
    11    6   25 1   
    12    7    8 ar  
    13    7   12 ar  
    14    8    9 ar  
    15    9   10 ar  
    16    9   27 1   
    17   10   11 ar  
    18   10   28 1   
    19   11   12 ar  
    20   13   14 1   
    21   13   23 1   
    22   14   15 1   
    23   14   29 1   
    24   14   30 1   
    25   15   16 ar  
    26   15   22 ar  
    27   16   17 ar  
    28   16   31 1   
    29   17   18 ar  
    30   17   33 1   
    31   18   19 1   
    32   18   21 ar  
    33   19   20 1   
    34   20   35 1   
    35   20   36 1   
    36   20   37 1   
    37   21   22 ar  
    38   21   34 1   
    39   22   32 1   
@<TRIPOS>SUBSTRUCTURE
     1 RQQ         1 TEMP              0 ****  ****    0 ROOT
