@<TRIPOS>MOLECULE
RQQ
   38    40     1     0     0
SMALL
bcc


@<TRIPOS>ATOM
      1 O1          0.1620   -0.6910   -0.0730 o         1 RQQ     -0.425100
      2 C6          1.3550   -0.4790    0.1010 c         1 RQQ      0.565700
      3 C4          2.0620   -0.3330    1.3750 ca        1 RQQ     -0.209600
      4 C3          3.4710   -0.4670    1.4900 ca        1 RQQ     -0.127000
      5 C2          4.0890   -0.3310    2.7070 ca        1 RQQ     -0.127300
      6 C5          1.2820   -0.0770    2.4940 ca        1 RQQ     -0.035300
      7 C           1.8970    0.0770    3.7690 ca        1 RQQ      0.259300
      8 N2          1.1110    0.3440    4.8850 nb        1 RQQ     -0.601000
      9 C16         1.7400    0.4720    6.0350 ca        1 RQQ      0.318900
     10 C15         3.1850    0.3440    6.1490 ca        1 RQQ      0.343900
     11 N1          3.9560    0.0930    5.1090 nb        1 RQQ     -0.618000
     12 C1          3.3240   -0.0490    3.8810 ca        1 RQQ      0.330300
     13 N           2.1930   -0.3290   -1.1510 ny        1 RQQ     -0.678800
     14 C7          1.3790   -0.0770   -2.3920 c3        1 RQQ      0.188100
     15 C8          2.2620    0.0210   -3.5810 ca        1 RQQ     -0.244300
     16 C14         2.6330   -1.1430   -4.2750 ca        1 RQQ     -0.060000
     17 C13         3.4220   -1.0640   -5.4100 ca        1 RQQ     -0.182000
     18 C11         3.8480    0.2040   -5.8700 ca        1 RQQ      0.187100
     19 O           4.6250    0.1740   -6.9960 os        1 RQQ     -0.304900
     20 C12         5.0330    1.4330   -7.5350 c3        1 RQQ      0.105700
     21 C10         3.4750    1.3720   -5.1850 ca        1 RQQ     -0.182000
     22 C9          2.6840    1.2720   -4.0460 ca        1 RQQ     -0.060000
     23 H           2.7400   -1.1870   -1.2840 hn        1 RQQ      0.456300
     24 H3          4.0920   -0.7080    0.6150 ha        1 RQQ      0.129000
     25 H5          0.1820    0.0080    2.4080 ha        1 RQQ      0.187000
     26 H2          5.1840   -0.4430    2.7980 ha        1 RQQ      0.181000
     27 H16         1.1290    0.6830    6.9330 h4        1 RQQ      0.062100
     28 H15         3.6770    0.4590    7.1340 h4        1 RQQ      0.062100
     29 H71C        0.7970    0.8740   -2.2250 hx        1 RQQ      0.113200
     30 H72C        0.6450   -0.9290   -2.4930 hx        1 RQQ      0.113200
     31 H14         2.2800   -2.1270   -3.9280 ha        1 RQQ      0.139000
     32 H9          2.3790    2.1900   -3.5200 ha        1 RQQ      0.139000
     33 H13         3.7160   -1.9660   -5.9690 ha        1 RQQ      0.168000
     34 H10         3.7940    2.3620   -5.5450 ha        1 RQQ      0.168000
     35 H121        5.6790    1.9780   -6.8050 h1        1 RQQ      0.061367
     36 H122        5.6180    1.1380   -8.4440 h1        1 RQQ      0.061367
     37 H123        4.1430    2.0450   -7.8160 h1        1 RQQ      0.061367
     38 HN3         2.8530    0.4450   -1.0180 hn        1 RQQ      0.456300
@<TRIPOS>BOND
     1    1    2 2   
     2    2    3 1   
     3    2   13 1   
     4    3    4 ar  
     5    3    6 ar  
     6    4    5 ar  
     7    4   24 1   
     8    5   12 ar  
     9    5   26 1   
    10    6    7 ar  
    11    6   25 1   
    12    7    8 ar  
    13    7   12 ar  
    14    8    9 ar  
    15    9   10 ar  
    16    9   27 1   
    17   10   11 ar  
    18   10   28 1   
    19   11   12 ar  
    20   13   14 1   
    21   13   23 1   
    22   13   38 1   
    23   14   15 1   
    24   14   29 1   
    25   14   30 1   
    26   15   16 ar  
    27   15   22 ar  
    28   16   17 ar  
    29   16   31 1   
    30   17   18 ar  
    31   17   33 1   
    32   18   19 1   
    33   18   21 ar  
    34   19   20 1   
    35   20   35 1   
    36   20   36 1   
    37   20   37 1   
    38   21   22 ar  
    39   21   34 1   
    40   22   32 1   
@<TRIPOS>SUBSTRUCTURE
     1 RQQ         1 TEMP              0 ****  ****    0 ROOT
