@<TRIPOS>MOLECULE
RQX
   41    41     1     0     0
SMALL
bcc


@<TRIPOS>ATOM
      1 O2         -0.1920    0.0820   -0.0080 o         1 RQX     -0.503100
      2 C7          1.0410    0.0860    0.0840 c         1 RQX      0.592500
      3 C2          1.7780    0.0550    1.3630 cc        1 RQX     -0.098400
      4 C1          0.9570   -0.1720    2.5760 c3        1 RQX     -0.077900
      5 C6          1.8660    0.0880   -1.1550 cc        1 RQX     -0.267200
      6 N           1.1510   -0.0930   -2.4110 n4        1 RQX     -0.679400
      7 C5          3.2300    0.2480   -1.1160 cd        1 RQX      0.173900
      8 O3          3.8880    0.1880   -2.2950 os        1 RQX     -0.330900
      9 C8          5.3170    0.3730   -2.3340 c3        1 RQX      0.119700
     10 C4          3.9140    0.5080    0.2020 c         1 RQX      0.549500
     11 O1          5.0620    0.9490    0.2150 o         1 RQX     -0.438100
     12 C3          3.1180    0.2300    1.4130 cd        1 RQX     -0.111400
     13 C9          3.8950    0.1790    2.6900 c3        1 RQX     -0.012000
     14 C10         4.3500   -1.2020    2.9870 c2        1 RQX     -0.226200
     15 C11         5.6330   -1.5870    3.0810 c2        1 RQX     -0.058400
     16 C12         6.7790   -0.6710    2.8590 c3        1 RQX     -0.078900
     17 C13         5.9810   -2.9880    3.4590 c3        1 RQX     -0.058200
     18 C14         6.4680   -3.7920    2.2680 c3        1 RQX     -0.072400
     19 C15         6.8490   -5.1920    2.6770 c3        1 RQX     -0.097100
     20 H1         -0.1030   -0.4140    2.3140 hc        1 RQX      0.080367
     21 H2          1.3810   -1.0160    3.1790 hc        1 RQX      0.080367
     22 H3          0.9590    0.7500    3.2150 hc        1 RQX      0.080367
     23 H4          0.1370   -0.0060   -2.2310 hn        1 RQX      0.469467
     24 H5          1.3530   -1.0230   -2.7940 hn        1 RQX      0.469467
     25 H6          5.5490    0.1630   -3.4110 h1        1 RQX      0.086700
     26 H7          5.8210   -0.3560   -1.6550 h1        1 RQX      0.086700
     27 H8          5.5660    1.4250   -2.0550 h1        1 RQX      0.086700
     28 H9          4.7680    0.8880    2.6210 hc        1 RQX      0.082700
     29 H10         3.2460    0.5390    3.5380 hc        1 RQX      0.082700
     30 H11         3.5370   -1.9250    3.1710 ha        1 RQX      0.127000
     31 H12         6.6320   -0.0570    1.9350 hc        1 RQX      0.054033
     32 H13         6.8850    0.0250    3.7300 hc        1 RQX      0.054033
     33 H14         7.7350   -1.2410    2.7530 hc        1 RQX      0.054033
     34 H15         6.7840   -2.9630    4.2460 hc        1 RQX      0.058700
     35 H16         5.0910   -3.5040    3.9120 hc        1 RQX      0.058700
     36 H17         5.6620   -3.8330    1.4890 hc        1 RQX      0.035700
     37 H18         7.3530   -3.2810    1.8060 hc        1 RQX      0.035700
     38 H19         7.6690   -5.1730    3.4350 hc        1 RQX      0.041033
     39 H20         5.9740   -5.7260    3.1210 hc        1 RQX      0.041033
     40 H21         7.2020   -5.7710    1.7900 hc        1 RQX      0.041033
     41 HN3         1.4480    0.6180   -3.0880 hn        1 RQX      0.469467
@<TRIPOS>BOND
     1    1    2 2   
     2    2    3 1   
     3    2    5 1   
     4    3    4 1   
     5    3   12 2   
     6    4   20 1   
     7    4   21 1   
     8    4   22 1   
     9    5    6 1   
    10    5    7 2   
    11    6   23 1   
    12    6   24 1   
    13    6   41 1   
    14    7    8 1   
    15    7   10 1   
    16    8    9 1   
    17    9   25 1   
    18    9   26 1   
    19    9   27 1   
    20   10   11 2   
    21   10   12 1   
    22   12   13 1   
    23   13   14 1   
    24   13   28 1   
    25   13   29 1   
    26   14   15 2   
    27   14   30 1   
    28   15   16 1   
    29   15   17 1   
    30   16   31 1   
    31   16   32 1   
    32   16   33 1   
    33   17   18 1   
    34   17   34 1   
    35   17   35 1   
    36   18   19 1   
    37   18   36 1   
    38   18   37 1   
    39   19   38 1   
    40   19   39 1   
    41   19   40 1   
@<TRIPOS>SUBSTRUCTURE
     1 RQX         1 TEMP              0 ****  ****    0 ROOT
