@<TRIPOS>MOLECULE
RQX
   41    41     1     0     0
SMALL
bcc


@<TRIPOS>ATOM
      1 O2         -0.1880    0.0860   -0.0190 o         1 RQX     -0.503100
      2 C7          1.0450    0.0900    0.0790 c         1 RQX      0.592500
      3 C2          1.7770    0.0520    1.3600 cc        1 RQX     -0.098400
      4 C1          0.9510   -0.1840    2.5690 c3        1 RQX     -0.077900
      5 C6          1.8750    0.1020   -1.1570 cc        1 RQX     -0.267200
      6 N           1.1660   -0.0720   -2.4180 n4        1 RQX     -0.679400
      7 C5          3.2390    0.2620   -1.1110 cd        1 RQX      0.173900
      8 O3          3.9020    0.2110   -2.2880 os        1 RQX     -0.330900
      9 C8          5.3310    0.3980   -2.3200 c3        1 RQX      0.119700
     10 C4          3.9170    0.5140    0.2110 c         1 RQX      0.549500
     11 O1          5.0650    0.9560    0.2330 o         1 RQX     -0.438100
     12 C3          3.1160    0.2280    1.4180 cd        1 RQX     -0.111400
     13 C9          3.8880    0.1700    2.6970 c3        1 RQX     -0.012000
     14 C10         4.3430   -1.2140    2.9870 c2        1 RQX     -0.226200
     15 C11         5.6260   -1.5980    3.0840 c2        1 RQX     -0.058400
     16 C12         6.7720   -0.6810    2.8720 c3        1 RQX     -0.078900
     17 C13         5.9720   -3.0020    3.4550 c3        1 RQX     -0.058200
     18 C14         6.4640   -3.7990    2.2600 c3        1 RQX     -0.072400
     19 C15         6.8430   -5.2010    2.6620 c3        1 RQX     -0.097100
     20 H1          0.9490    0.7330    3.2140 hc        1 RQX      0.080367
     21 H2         -0.1080   -0.4250    2.3010 hc        1 RQX      0.080367
     22 H3          1.3730   -1.0310    3.1670 hc        1 RQX      0.080367
     23 H4          1.4650    0.6440   -3.0880 hn        1 RQX      0.469467
     24 H5          1.3700   -0.9990   -2.8060 hn        1 RQX      0.469467
     25 H6          5.5780    1.4480   -2.0330 h1        1 RQX      0.086700
     26 H7          5.5680    0.1950   -3.3970 h1        1 RQX      0.086700
     27 H8          5.8320   -0.3350   -1.6440 h1        1 RQX      0.086700
     28 H9          4.7610    0.8790    2.6360 hc        1 RQX      0.082700
     29 H10         3.2350    0.5230    3.5440 hc        1 RQX      0.082700
     30 H11         3.5300   -1.9380    3.1640 ha        1 RQX      0.127000
     31 H12         6.6280   -0.0600    1.9510 hc        1 RQX      0.054033
     32 H13         6.8750    0.0090    3.7470 hc        1 RQX      0.054033
     33 H14         7.7290   -1.2500    2.7640 hc        1 RQX      0.054033
     34 H15         5.0820   -3.5200    3.9020 hc        1 RQX      0.058700
     35 H16         6.7730   -2.9810    4.2430 hc        1 RQX      0.058700
     36 H17         5.6600   -3.8340    1.4790 hc        1 RQX      0.035700
     37 H18         7.3500   -3.2840    1.8030 hc        1 RQX      0.035700
     38 H19         7.1990   -5.7740    1.7720 hc        1 RQX      0.041033
     39 H20         7.6620   -5.1860    3.4220 hc        1 RQX      0.041033
     40 H21         5.9680   -5.7380    3.1000 hc        1 RQX      0.041033
     41 HN3         0.1510    0.0140   -2.2400 hn        1 RQX      0.469467
@<TRIPOS>BOND
     1    1    2 2   
     2    2    3 1   
     3    2    5 1   
     4    3    4 1   
     5    3   12 2   
     6    4   20 1   
     7    4   21 1   
     8    4   22 1   
     9    5    6 1   
    10    5    7 2   
    11    6   23 1   
    12    6   24 1   
    13    6   41 1   
    14    7    8 1   
    15    7   10 1   
    16    8    9 1   
    17    9   25 1   
    18    9   26 1   
    19    9   27 1   
    20   10   11 2   
    21   10   12 1   
    22   12   13 1   
    23   13   14 1   
    24   13   28 1   
    25   13   29 1   
    26   14   15 2   
    27   14   30 1   
    28   15   16 1   
    29   15   17 1   
    30   16   31 1   
    31   16   32 1   
    32   16   33 1   
    33   17   18 1   
    34   17   34 1   
    35   17   35 1   
    36   18   19 1   
    37   18   36 1   
    38   18   37 1   
    39   19   38 1   
    40   19   39 1   
    41   19   40 1   
@<TRIPOS>SUBSTRUCTURE
     1 RQX         1 TEMP              0 ****  ****    0 ROOT
