@<TRIPOS>MOLECULE
RQX
   41    41     1     0     0
SMALL
bcc


@<TRIPOS>ATOM
      1 O2         -0.1900    0.0890   -0.0080 o         1 RQX     -0.503100
      2 C7          1.0430    0.0910    0.0850 c         1 RQX      0.592500
      3 C2          1.7800    0.0580    1.3640 cc        1 RQX     -0.098400
      4 C1          0.9580   -0.1700    2.5760 c3        1 RQX     -0.077900
      5 C6          1.8680    0.0950   -1.1540 cc        1 RQX     -0.267200
      6 N           1.1540   -0.0830   -2.4110 nz        1 RQX     -0.679400
      7 C5          3.2330    0.2530   -1.1140 cd        1 RQX      0.173900
      8 O3          3.8910    0.1940   -2.2930 os        1 RQX     -0.330900
      9 C8          5.3210    0.3780   -2.3310 c3        1 RQX      0.119700
     10 C4          3.9160    0.5100    0.2050 c         1 RQX      0.549500
     11 O1          5.0650    0.9500    0.2200 o         1 RQX     -0.438100
     12 C3          3.1190    0.2310    1.4150 cd        1 RQX     -0.111400
     13 C9          3.8960    0.1770    2.6920 c3        1 RQX     -0.012000
     14 C10         4.3490   -1.2060    2.9870 c2        1 RQX     -0.226200
     15 C11         5.6320   -1.5920    3.0810 c2        1 RQX     -0.058400
     16 C12         6.7790   -0.6780    2.8610 c3        1 RQX     -0.078900
     17 C13         5.9770   -2.9950    3.4570 c3        1 RQX     -0.058200
     18 C14         6.4640   -3.7970    2.2650 c3        1 RQX     -0.072400
     19 C15         6.8420   -5.1990    2.6710 c3        1 RQX     -0.097100
     20 H1         -0.1030   -0.4110    2.3130 hc        1 RQX      0.080367
     21 H2          1.3800   -1.0160    3.1780 hc        1 RQX      0.080367
     22 H3          0.9600    0.7500    3.2170 hc        1 RQX      0.080367
     23 H4          0.1400    0.0050   -2.2310 hn        1 RQX      0.469467
     24 H5          1.3550   -1.0130   -2.7960 hn        1 RQX      0.469467
     25 H6          5.5530    0.1700   -3.4080 h1        1 RQX      0.086700
     26 H7          5.8230   -0.3530   -1.6530 h1        1 RQX      0.086700
     27 H8          5.5710    1.4300   -2.0500 h1        1 RQX      0.086700
     28 H9          4.7700    0.8840    2.6240 hc        1 RQX      0.082700
     29 H10         3.2470    0.5360    3.5400 hc        1 RQX      0.082700
     30 H11         3.5350   -1.9270    3.1700 ha        1 RQX      0.127000
     31 H12         6.6330   -0.0610    1.9380 hc        1 RQX      0.054033
     32 H13         6.8860    0.0170    3.7330 hc        1 RQX      0.054033
     33 H14         7.7340   -1.2480    2.7540 hc        1 RQX      0.054033
     34 H15         6.7800   -2.9720    4.2430 hc        1 RQX      0.058700
     35 H16         5.0870   -3.5100    3.9080 hc        1 RQX      0.058700
     36 H17         5.6580   -3.8350    1.4860 hc        1 RQX      0.035700
     37 H18         7.3500   -3.2860    1.8030 hc        1 RQX      0.035700
     38 H19         7.6620   -5.1820    3.4290 hc        1 RQX      0.041033
     39 H20         5.9670   -5.7320    3.1140 hc        1 RQX      0.041033
     40 H21         7.1960   -5.7760    1.7830 hc        1 RQX      0.041033
     41 HN3         1.4520    0.6300   -3.0860 hn        1 RQX      0.469467
@<TRIPOS>BOND
     1    1    2 2   
     2    2    3 1   
     3    2    5 1   
     4    3    4 1   
     5    3   12 2   
     6    4   20 1   
     7    4   21 1   
     8    4   22 1   
     9    5    6 1   
    10    5    7 2   
    11    6   23 1   
    12    6   24 1   
    13    6   41 1   
    14    7    8 1   
    15    7   10 1   
    16    8    9 1   
    17    9   25 1   
    18    9   26 1   
    19    9   27 1   
    20   10   11 2   
    21   10   12 1   
    22   12   13 1   
    23   13   14 1   
    24   13   28 1   
    25   13   29 1   
    26   14   15 2   
    27   14   30 1   
    28   15   16 1   
    29   15   17 1   
    30   16   31 1   
    31   16   32 1   
    32   16   33 1   
    33   17   18 1   
    34   17   34 1   
    35   17   35 1   
    36   18   19 1   
    37   18   36 1   
    38   18   37 1   
    39   19   38 1   
    40   19   39 1   
    41   19   40 1   
@<TRIPOS>SUBSTRUCTURE
     1 RQX         1 TEMP              0 ****  ****    0 ROOT
