@<TRIPOS>MOLECULE
RQX
   40    40     1     0     0
SMALL
bcc


@<TRIPOS>ATOM
      1 O2          2.9600   -2.2180    1.2560 o         1 RQX     -0.510100
      2 C7          2.3500   -1.3570    0.6100 c         1 RQX      0.564500
      3 C2          1.1350   -1.6710   -0.1730 cc        1 RQX     -0.146400
      4 C1          0.7670   -3.1070   -0.2470 c3        1 RQX     -0.067900
      5 C6          2.8110    0.0750    0.6240 cc        1 RQX      0.089800
      6 N           4.0240    0.3510    1.2130 nh        1 RQX     -0.816600
      7 C5          2.0300    1.0320    0.0240 cd        1 RQX     -0.119100
      8 O3          2.3380    2.3720    0.2190 os        1 RQX     -0.330900
      9 C8          2.8300    3.0290   -0.9510 c3        1 RQX      0.108700
     10 C4          0.8210    0.7210   -0.7460 c         1 RQX      0.572500
     11 O1          0.1910    1.5930   -1.3600 o         1 RQX     -0.519100
     12 C3          0.4070   -0.7080   -0.7790 cd        1 RQX     -0.105400
     13 C9         -0.8430   -1.0070   -1.5400 c3        1 RQX     -0.014000
     14 C10        -2.0280   -1.0660   -0.6460 c2        1 RQX     -0.192200
     15 C11        -3.0630   -0.2120   -0.6810 c2        1 RQX     -0.084400
     16 C12        -3.1410    0.9350   -1.6180 c3        1 RQX     -0.074900
     17 C13        -4.2270   -0.3890    0.2370 c3        1 RQX     -0.047200
     18 C14        -4.2080    0.6190    1.3700 c3        1 RQX     -0.077400
     19 C15        -5.4080    0.4560    2.2670 c3        1 RQX     -0.093100
     20 H1          1.4020   -3.7250    0.4360 hc        1 RQX      0.059700
     21 H2         -0.3050   -3.2520    0.0370 hc        1 RQX      0.059700
     22 H3          0.9060   -3.4810   -1.2930 hc        1 RQX      0.059700
     23 H4          4.3810   -0.3310    1.8430 hn        1 RQX      0.429800
     24 H5          4.2100    1.3040    1.4270 hn        1 RQX      0.429800
     25 H6          2.0720    2.9870   -1.7700 h1        1 RQX      0.045033
     26 H7          2.9900    4.0820   -0.6120 h1        1 RQX      0.045033
     27 H8          3.7910    2.5650   -1.2800 h1        1 RQX      0.045033
     28 H9         -0.9840   -0.2250   -2.3370 hc        1 RQX      0.068700
     29 H10        -0.7360   -1.9990   -2.0620 hc        1 RQX      0.068700
     30 H11        -2.0180   -1.8960    0.0800 ha        1 RQX      0.119000
     31 H12        -3.3000    0.5680   -2.6630 hc        1 RQX      0.051367
     32 H13        -3.9870    1.6150   -1.3530 hc        1 RQX      0.051367
     33 H14        -2.1900    1.5290   -1.5960 hc        1 RQX      0.051367
     34 H15        -5.1770   -0.2720   -0.3510 hc        1 RQX      0.045200
     35 H16        -4.2310   -1.4260    0.6680 hc        1 RQX      0.045200
     36 H17        -3.2680    0.4900    1.9680 hc        1 RQX      0.044700
     37 H18        -4.1890    1.6580    0.9460 hc        1 RQX      0.044700
     38 H19        -5.4300   -0.5660    2.7150 hc        1 RQX      0.032700
     39 H20        -5.3750    1.2040    3.0960 hc        1 RQX      0.032700
     40 H21        -6.3540    0.6070    1.6930 hc        1 RQX      0.032700
@<TRIPOS>BOND
     1    1    2 2   
     2    2    3 1   
     3    2    5 1   
     4    3    4 1   
     5    3   12 2   
     6    4   20 1   
     7    4   21 1   
     8    4   22 1   
     9    5    6 1   
    10    5    7 2   
    11    6   23 1   
    12    6   24 1   
    13    7    8 1   
    14    7   10 1   
    15    8    9 1   
    16    9   25 1   
    17    9   26 1   
    18    9   27 1   
    19   10   11 2   
    20   10   12 1   
    21   12   13 1   
    22   13   14 1   
    23   13   28 1   
    24   13   29 1   
    25   14   15 2   
    26   14   30 1   
    27   15   16 1   
    28   15   17 1   
    29   16   31 1   
    30   16   32 1   
    31   16   33 1   
    32   17   18 1   
    33   17   34 1   
    34   17   35 1   
    35   18   19 1   
    36   18   36 1   
    37   18   37 1   
    38   19   38 1   
    39   19   39 1   
    40   19   40 1   
@<TRIPOS>SUBSTRUCTURE
     1 RQX         1 TEMP              0 ****  ****    0 ROOT
