@<TRIPOS>MOLECULE
RR1
   56    60     1     0     0
SMALL
bcc


@<TRIPOS>ATOM
      1 O89         0.9290    1.8460   -0.2950 o         1 RR1     -0.938500
      2 O90         1.3770   -0.3830    0.4800 o         1 RR1     -0.938500
      3 O92         3.0740    0.8240   -0.6670 oh        1 RR1     -0.752000
      4 S85         1.7690    0.9300    0.3090 s6        1 RR1      2.820000
      5 C10         2.3850    1.4760    1.8590 c3        1 RR1     -0.730000
      6 C11         1.8240    2.7660    2.3900 c2        1 RR1     -0.055000
      7 C12         0.7750    2.7070    3.2280 c2        1 RR1     -0.263000
      8 C13         0.0370    3.7310    3.9770 c1        1 RR1      0.183000
      9 C14         4.5670    0.2880    1.9320 c2        1 RR1     -0.100000
     10 C4          3.8900    1.4520    1.9380 c2        1 RR1     -0.129000
     11 C5          2.2960    4.2750    0.4950 c2        1 RR1      0.342000
     12 C3          2.5950    4.0190    1.9970 c3        1 RR1      0.000000
     13 C9          2.3010    5.2090    2.8660 c2        1 RR1     -0.894000
     14 C8          1.9750    6.4020    2.3160 c2        1 RR1      0.110000
     15 C7          1.6160    6.5950    0.9320 ca        1 RR1     -0.026000
     16 C6          1.5800    5.4760    0.0720 ca        1 RR1     -0.186000
     17 C15         0.9090    5.5820   -1.1840 ca        1 RR1      0.246000
     18 C16         0.5480    6.8730   -1.6610 ca        1 RR1     -0.701000
     19 C17         0.7190    7.9670   -0.8220 ca        1 RR1     -0.016000
     20 C18         1.1960    7.8430    0.4850 ca        1 RR1     -0.133000
     21 S36        -0.0390    7.3890   -3.2860 s6        1 RR1      2.913000
     22 S35         2.3640    5.0710    4.5180 s6        1 RR1      2.743000
     23 N1          4.6000    2.6960    2.0810 n2        1 RR1      0.033000
     24 N2          4.0910    3.7850    2.1230 n2        1 RR1     -0.011000
     25 N19         0.6550    4.4170   -1.9170 nh        1 RR1     -0.230000
     26 C20        -0.5400    4.2140   -2.6110 c2        1 RR1      0.208000
     27 N21        -0.5080    3.2680   -3.7310 na        1 RR1     -0.243000
     28 C22        -1.2900    3.7900   -4.8380 c2        1 RR1     -0.282000
     29 N23        -2.3790    4.6480   -4.6490 n2        1 RR1     -0.128000
     30 C24        -2.5460    5.0640   -3.3880 c2        1 RR1     -0.103000
     31 N25        -1.6300    4.9420   -2.3190 n2        1 RR1     -0.268000
     32 NL1        -3.6670    5.9890   -3.0880 n4        1 RR1      0.001000
     33 NL2        -0.4210    4.1830   -5.9930 n4        1 RR1      0.007000
     34 H11         2.0520    0.6690    2.5930 h1        1 RR1      0.182000
     35 H12         0.3070    1.7180    3.4320 ha        1 RR1      0.166000
     36 H13         4.0460   -0.6760    1.8380 ha        1 RR1      0.145000
     37 H14         5.6630    0.2380    2.0010 ha        1 RR1      0.145000
     38 HC8         1.8790    7.2970    2.9710 ha        1 RR1      0.169000
     39 H16         0.4700    8.9770   -1.2050 ha        1 RR1      0.171000
     40 H18         1.2410    8.7220    1.1460 ha        1 RR1      0.147000
     41 H28         3.3810    1.5950   -1.1470 ho        1 RR1      0.308000
     42 H19         1.1860    3.5910   -1.7040 hn        1 RR1      0.283000
     43 HL11       -4.1210    5.7180   -2.2170 hn        1 RR1      0.263667
     44 HL12       -3.2230    6.9340   -2.9830 hn        1 RR1      0.263667
     45 HL21        0.1620    5.0030   -5.7510 hn        1 RR1      0.238000
     46 HL22       -1.0160    4.4000   -6.7880 hn        1 RR1      0.238000
     47 O37        -1.4190    7.6950   -3.1140 o         1 RR1     -1.073667
     48 O38         0.7420    8.5140   -3.5710 o         1 RR1     -1.073667
     49 O41         0.1520    6.3090   -4.1800 o         1 RR1     -1.073667
     50 O39         0.6730    4.6220    4.6480 os        1 RR1     -0.510000
     51 O40         3.0540    3.9780    4.9990 o         1 RR1     -0.898000
     52 O42         2.4320    6.3010    5.1460 o         1 RR1     -0.898000
     53 H192       -0.9000    2.3900   -3.4420 hn        1 RR1      0.205000
     54 HL13       -4.3390    5.9960   -3.8530 hn        1 RR1      0.263667
     55 HL23        0.1730    3.3880   -6.2120 hn        1 RR1      0.238000
     56 O28         2.7440    3.4380   -0.3110 o         1 RR1     -0.380000
@<TRIPOS>BOND
     1    1    4 1   
     2    2    4 1   
     3    3    4 1   
     4    3   41 1   
     5    4    5 1   
     6    5    6 1   
     7    5   10 1   
     8    5   34 1   
     9    6    7 1   
    10    6   12 1   
    11    7    8 1   
    12    7   35 1   
    13    8   50 1   
    14    9   10 1   
    15    9   36 1   
    16    9   37 1   
    17   10   23 1   
    18   11   12 1   
    19   11   16 1   
    20   11   56 1   
    21   12   13 1   
    22   12   24 1   
    23   13   14 1   
    24   13   22 1   
    25   14   15 1   
    26   14   38 1   
    27   15   16 1   
    28   15   20 1   
    29   16   17 1   
    30   17   18 1   
    31   17   25 1   
    32   18   19 1   
    33   18   21 1   
    34   19   20 1   
    35   19   39 1   
    36   20   40 1   
    37   21   47 1   
    38   21   48 1   
    39   21   49 1   
    40   22   50 1   
    41   22   51 1   
    42   22   52 1   
    43   23   24 1   
    44   25   26 1   
    45   25   42 1   
    46   26   27 1   
    47   26   31 1   
    48   27   28 1   
    49   27   53 1   
    50   28   29 1   
    51   28   33 1   
    52   29   30 1   
    53   30   31 1   
    54   30   32 1   
    55   32   43 1   
    56   32   44 1   
    57   32   54 1   
    58   33   45 1   
    59   33   46 1   
    60   33   55 1   
@<TRIPOS>SUBSTRUCTURE
     1 RR1         1 TEMP              0 ****  ****    0 ROOT
