@<TRIPOS>MOLECULE
RR1
   53    56     1     0     0
SMALL
bcc


@<TRIPOS>ATOM
      1 O89         3.4890    0.6010   -4.1800 o         1 RR1     -0.751867
      2 O90         3.2750   -1.5060   -5.1910 o         1 RR1     -0.751867
      3 O92         2.2640   -1.1200   -3.0890 o         1 RR1     -0.751867
      4 S85         2.6820   -0.5530   -4.3160 s6        1 RR1      1.468100
      5 C10         1.2220   -0.0220   -5.1670 ca        1 RR1     -0.257500
      6 C11         1.3370    0.0710   -6.5590 ca        1 RR1     -0.063000
      7 C12         0.2780    0.4760   -7.3620 ca        1 RR1     -0.192000
      8 C13        -0.9490    0.7890   -6.7740 ca        1 RR1     -0.128000
      9 C14        -1.1070    0.7010   -5.3990 ca        1 RR1     -0.142000
     10 C4         -0.0140    0.3110   -4.5880 ca        1 RR1      0.210400
     11 C5         -0.2800   -0.4080   -0.1840 ca        1 RR1      0.120100
     12 C3         -1.2330   -0.2570   -1.1980 ca        1 RR1      0.104400
     13 C9         -2.6130   -0.0730   -0.8780 ca        1 RR1     -0.216500
     14 C8         -2.9710   -0.0560    0.4440 ca        1 RR1     -0.072000
     15 C7         -2.0370   -0.2450    1.4990 ca        1 RR1     -0.058000
     16 C6         -0.6630   -0.4410    1.2040 ca        1 RR1     -0.018000
     17 C15         0.2230   -0.6640    2.3240 ca        1 RR1      0.086600
     18 C16        -0.2840   -0.6770    3.6200 ca        1 RR1     -0.028000
     19 C17        -1.6470   -0.4510    3.8990 ca        1 RR1     -0.286500
     20 C18        -2.4990   -0.2420    2.8450 ca        1 RR1     -0.020000
     21 S36        -2.1870   -0.4480    5.5720 s6        1 RR1      1.457100
     22 S35        -3.9140    0.1200   -2.0840 s6        1 RR1      1.456100
     23 N1         -0.1700    0.3930   -3.1530 ne        1 RR1     -0.178400
     24 N2         -0.9390   -0.3870   -2.6050 nf        1 RR1     -0.163400
     25 N19         1.6040   -0.9590    2.1420 nh        1 RR1     -0.675300
     26 C20         2.6040   -0.1530    2.6790 ca        1 RR1      0.944900
     27 N21         3.9170   -0.4400    2.2900 nb        1 RR1     -0.822500
     28 C22         4.8900    0.2830    2.9360 ca        1 RR1      0.891400
     29 N23         4.6780    1.2610    3.8940 nb        1 RR1     -0.879000
     30 C24         3.3370    1.4890    4.1770 ca        1 RR1      0.891400
     31 N25         2.2750    0.8180    3.6180 nb        1 RR1     -0.822500
     32 NL1         3.0300    2.5440    5.0650 nh        1 RR1     -0.913000
     33 NL2         6.2410   -0.0410    2.6330 nh        1 RR1     -0.913000
     34 H11         2.3010   -0.2060   -7.0180 ha        1 RR1      0.134000
     35 H12         0.4010    0.5400   -8.4510 ha        1 RR1      0.091000
     36 H13        -1.7980    1.0970   -7.4010 ha        1 RR1      0.101000
     37 H14        -2.0840    0.9280   -4.9230 ha        1 RR1      0.201000
     38 HC8        -4.0300    0.1160    0.7130 ha        1 RR1      0.155000
     39 H16         0.3770   -0.8780    4.4830 ha        1 RR1      0.146000
     40 H18        -3.5750   -0.0800    3.0320 ha        1 RR1      0.147000
     41 H28         1.2440   -0.7430   -1.3690 ho        1 RR1      0.490000
     42 H19         1.8310   -1.3990    1.2660 hn        1 RR1      0.470800
     43 HL11        3.7150    2.7010    5.7690 hn        1 RR1      0.401050
     44 HL12        2.0890    2.5370    5.4000 hn        1 RR1      0.401050
     45 HL21        6.8610    0.7340    2.7330 hn        1 RR1      0.401050
     46 HL22        6.3440   -0.5060    1.7550 hn        1 RR1      0.401050
     47 O28         1.0660   -0.5100   -0.4380 oh        1 RR1     -0.550100
     48 O37        -1.8310    0.8150    6.1130 o         1 RR1     -0.755533
     49 O38        -3.5930   -0.6470    5.5310 o         1 RR1     -0.755533
     50 O41        -1.4940   -1.5140    6.2080 o         1 RR1     -0.755533
     51 O39        -3.4190    0.9490   -3.1220 o         1 RR1     -0.750200
     52 O40        -4.2610   -1.1810   -2.5140 o         1 RR1     -0.750200
     53 O42        -4.9730    0.7430   -1.3670 o         1 RR1     -0.750200
@<TRIPOS>BOND
     1    1    4 1   
     2    2    4 1   
     3    3    4 1   
     4    4    5 1   
     5    5    6 ar  
     6    5   10 ar  
     7    6    7 ar  
     8    6   34 1   
     9    7    8 ar  
    10    7   35 1   
    11    8    9 ar  
    12    8   36 1   
    13    9   10 ar  
    14    9   37 1   
    15   10   23 1   
    16   11   12 ar  
    17   11   16 ar  
    18   11   47 1   
    19   12   13 ar  
    20   12   24 1   
    21   13   14 ar  
    22   13   22 1   
    23   14   15 ar  
    24   14   38 1   
    25   15   16 ar  
    26   15   20 ar  
    27   16   17 ar  
    28   17   18 ar  
    29   17   25 1   
    30   18   19 ar  
    31   18   39 1   
    32   19   20 ar  
    33   19   21 1   
    34   20   40 1   
    35   21   48 1   
    36   21   49 1   
    37   21   50 1   
    38   22   51 1   
    39   22   52 1   
    40   22   53 1   
    41   23   24 2   
    42   25   26 1   
    43   25   42 1   
    44   26   27 ar  
    45   26   31 ar  
    46   27   28 ar  
    47   28   29 ar  
    48   28   33 1   
    49   29   30 ar  
    50   30   31 ar  
    51   30   32 1   
    52   32   43 1   
    53   32   44 1   
    54   33   45 1   
    55   33   46 1   
    56   41   47 1   
@<TRIPOS>SUBSTRUCTURE
     1 RR1         1 TEMP              0 ****  ****    0 ROOT
