@<TRIPOS>MOLECULE
RR1
   53    55     1     0     0
SMALL
bcc


@<TRIPOS>ATOM
      1 O89         0.0190   -2.7920    2.7910 o         1 RR1     -1.072667
      2 O90         1.1970   -3.1210    0.7750 o         1 RR1     -1.072667
      3 O92        -0.6420   -1.6210    0.8500 o         1 RR1     -1.072667
      4 S85         0.4250   -2.2200    1.5590 s6        1 RR1      2.865000
      5 C10         1.1390    0.3730    2.1050 c2        1 RR1     -0.040000
      6 C11         1.5370   -0.9050    1.9860 c2        1 RR1     -0.663000
      7 C12         2.9050   -1.3280    2.1820 c2        1 RR1     -0.378000
      8 C13         3.8410   -0.7700    2.9230 c1        1 RR1      0.081000
      9 C14         2.8140    1.3540    3.6250 c2        1 RR1     -0.196000
     10 C4          1.9920    1.4750    2.5580 c2        1 RR1     -0.054000
     11 C5          1.1560    5.2410    0.3740 ca        1 RR1      0.025000
     12 C3          1.8160    4.9890    1.6040 ca        1 RR1      0.048000
     13 C9          2.5260    6.0240    2.2430 ca        1 RR1     -0.673000
     14 C8          2.5250    7.2850    1.6580 ca        1 RR1     -0.024000
     15 C7          1.8660    7.5540    0.4480 ca        1 RR1     -0.133000
     16 C6          1.2080    6.5060   -0.2300 ca        1 RR1     -0.039000
     17 C15         0.5100    6.8150   -1.5380 c3        1 RR1     -0.009000
     18 C16         0.7060    8.1900   -2.0710 c1        1 RR1     -0.064000
     19 C17         1.1870    9.2130   -1.2410 c2        1 RR1     -0.828000
     20 C18         1.8170    8.9020   -0.0710 c2        1 RR1      0.109000
     21 S36         1.0810   10.8720   -1.8320 s6        1 RR1      2.885000
     22 S35         3.4080    5.8380    3.8000 s6        1 RR1      2.870000
     23 N1          1.9840    2.6780    1.7470 n2        1 RR1     -0.051000
     24 N2          1.7210    3.7370    2.3070 n2        1 RR1     -0.034000
     25 N19         0.8600    5.8390   -2.5730 nu        1 RR1     -0.205000
     26 C20        -0.1180    5.2050   -3.3400 c2        1 RR1      0.229000
     27 N21         0.2860    4.7210   -4.5880 n2        1 RR1     -0.308000
     28 C22        -0.6410    3.9460   -5.2430 c2        1 RR1      0.183000
     29 N23        -1.9180    3.6550   -4.7920 n2        1 RR1     -0.344000
     30 C24        -2.2250    4.2150   -3.5610 c2        1 RR1      0.183000
     31 N25        -1.3820    4.9980   -2.8030 n2        1 RR1     -0.308000
     32 NL1        -3.5370    4.0210   -3.0720 nv        1 RR1     -0.311500
     33 NL2        -0.2400    3.3510   -6.4630 nv        1 RR1     -0.311500
     34 H11         0.0950    0.6400    1.8510 ha        1 RR1      0.154000
     35 H12         3.1710   -2.2510    1.6110 ha        1 RR1      0.201000
     36 H13         2.8210    0.4490    4.2550 ha        1 RR1      0.153500
     37 H14         3.4680    2.1770    3.9640 ha        1 RR1      0.153500
     38 HC8         3.0700    8.1020    2.1700 ha        1 RR1      0.163000
     39 H16        -0.6060    6.7650   -1.2970 h1        1 RR1      0.177000
     40 H18         2.3240    9.6940    0.5150 ha        1 RR1      0.160000
     41 H28         0.9380    3.6060   -0.5780 ho        1 RR1      0.223000
     42 H19         1.6710    6.1190   -3.0950 hn        1 RR1      0.229000
     43 HL11       -3.9590    3.1700   -3.3740 hn        1 RR1      0.198250
     44 HL12       -3.6320    4.1890   -2.0920 hn        1 RR1      0.198250
     45 HL21        0.5320    3.7980   -6.9040 hn        1 RR1      0.198250
     46 HL22       -0.9890    3.1270   -7.0780 hn        1 RR1      0.198250
     47 O28         0.3470    4.2670   -0.1850 oh        1 RR1     -0.266000
     48 O37        -0.2880   11.1460   -2.0630 o         1 RR1     -1.076667
     49 O38         1.6070   11.6440   -0.7540 o         1 RR1     -1.076667
     50 O41         1.8930   10.9690   -2.9870 o         1 RR1     -1.076667
     51 O39         2.4320    5.9500    4.8110 o         1 RR1     -1.066333
     52 O40         4.0570    4.5860    3.7510 o         1 RR1     -1.066333
     53 O42         4.3160    6.9290    3.7990 o         1 RR1     -1.066333
@<TRIPOS>BOND
     1    1    4 1   
     2    2    4 1   
     3    3    4 1   
     4    4    6 1   
     5    5    6 1   
     6    5   10 1   
     7    5   34 1   
     8    6    7 1   
     9    7    8 1   
    10    7   35 1   
    11    9   10 1   
    12    9   36 1   
    13    9   37 1   
    14   10   23 1   
    15   11   12 1   
    16   11   16 1   
    17   11   47 1   
    18   12   13 1   
    19   12   24 1   
    20   13   14 1   
    21   13   22 1   
    22   14   15 1   
    23   14   38 1   
    24   15   16 1   
    25   15   20 1   
    26   16   17 1   
    27   17   18 1   
    28   17   25 1   
    29   17   39 1   
    30   18   19 1   
    31   19   20 1   
    32   19   21 1   
    33   20   40 1   
    34   21   48 1   
    35   21   49 1   
    36   21   50 1   
    37   22   51 1   
    38   22   52 1   
    39   22   53 1   
    40   23   24 1   
    41   25   26 1   
    42   25   42 1   
    43   26   27 1   
    44   26   31 1   
    45   27   28 1   
    46   28   29 1   
    47   28   33 1   
    48   29   30 1   
    49   30   31 1   
    50   30   32 1   
    51   32   43 1   
    52   32   44 1   
    53   33   45 1   
    54   33   46 1   
    55   41   47 1   
@<TRIPOS>SUBSTRUCTURE
     1 RR1         1 TEMP              0 ****  ****    0 ROOT
