@<TRIPOS>MOLECULE
RR1
   53    55     1     0     0
SMALL
bcc


@<TRIPOS>ATOM
      1 O89        -0.0710   -2.7620    2.8240 o         1 RR1     -1.072667
      2 O90         1.1150   -3.1170    0.8170 o         1 RR1     -1.072667
      3 O92        -0.7080   -1.5960    0.8730 o         1 RR1     -1.072667
      4 S85         0.3480   -2.2030    1.5910 s6        1 RR1      2.865000
      5 C10         1.0880    0.3860    2.1260 c2        1 RR1     -0.040000
      6 C11         1.4720   -0.8970    2.0160 c2        1 RR1     -0.663000
      7 C12         2.8350   -1.3340    2.2210 c2        1 RR1     -0.378000
      8 C13         3.7730   -0.7820    2.9630 c1        1 RR1      0.081000
      9 C14         2.7660    1.3570    3.6480 c2        1 RR1     -0.196000
     10 C4          1.9510    1.4810    2.5760 c2        1 RR1     -0.054000
     11 C5          1.1640    5.2440    0.3680 ca        1 RR1      0.025000
     12 C3          1.8160    4.9910    1.6020 ca        1 RR1      0.048000
     13 C9          2.5340    6.0220    2.2390 ca        1 RR1     -0.673000
     14 C8          2.5500    7.2800    1.6470 ca        1 RR1     -0.024000
     15 C7          1.8990    7.5490    0.4320 ca        1 RR1     -0.133000
     16 C6          1.2320    6.5050   -0.2420 ca        1 RR1     -0.039000
     17 C15         0.5430    6.8130   -1.5560 c3        1 RR1     -0.009000
     18 C16         0.7570    8.1840   -2.0960 c1        1 RR1     -0.064000
     19 C17         1.2460    9.2060   -1.2690 c2        1 RR1     -0.828000
     20 C18         1.8670    8.8940   -0.0950 c2        1 RR1      0.109000
     21 S36         1.1610   10.8630   -1.8700 s6        1 RR1      2.885000
     22 S35         3.4080    5.8360    3.8000 s6        1 RR1      2.870000
     23 N1          1.9590    2.6790    1.7590 n2        1 RR1     -0.051000
     24 N2          1.7050    3.7440    2.3120 n2        1 RR1     -0.034000
     25 N19         0.8860    5.8280   -2.5840 nh        1 RR1     -0.205000
     26 C20        -0.0960    5.1990   -3.3490 c2        1 RR1      0.228000
     27 N21         0.3060    4.7030   -4.5920 n2        1 RR1     -0.308500
     28 C22        -0.6280    3.9320   -5.2450 c2        1 RR1      0.183000
     29 N23        -1.9090    3.6580   -4.7950 n2        1 RR1     -0.344000
     30 C24        -2.2130    4.2290   -3.5680 c2        1 RR1      0.183000
     31 N25        -1.3640    5.0090   -2.8140 n2        1 RR1     -0.308500
     32 NL1        -3.5290    4.0520   -3.0830 nh        1 RR1     -0.311500
     33 NL2        -0.2290    3.3250   -6.4590 nh        1 RR1     -0.311500
     34 H11         0.0480    0.6620    1.8650 ha        1 RR1      0.154000
     35 H12         3.0930   -2.2630    1.6570 ha        1 RR1      0.201000
     36 H13         2.7610    0.4550    4.2830 ha        1 RR1      0.153500
     37 H14         3.4270    2.1750    3.9860 ha        1 RR1      0.153500
     38 HC8         3.1010    8.0930    2.1560 ha        1 RR1      0.163000
     39 H16        -0.5740    6.7780   -1.3180 h1        1 RR1      0.177000
     40 H18         2.3810    9.6840    0.4890 ha        1 RR1      0.160000
     41 H28         0.9330    3.6060   -0.5750 ho        1 RR1      0.223000
     42 H19         1.7010    6.0960   -3.1040 hn        1 RR1      0.229000
     43 HL11       -3.9590    3.2040   -3.3800 hn        1 RR1      0.198250
     44 HL12       -3.6250    4.2280   -2.1040 hn        1 RR1      0.198250
     45 HL21        0.5490    3.7610   -6.9010 hn        1 RR1      0.198250
     46 HL22       -0.9780    3.1040   -7.0750 hn        1 RR1      0.198250
     47 O28         0.3480    4.2750   -0.1890 oh        1 RR1     -0.266000
     48 O37        -0.2040   11.1500   -2.1090 o         1 RR1     -1.076667
     49 O38         1.6920   11.6350   -0.7940 o         1 RR1     -1.076667
     50 O41         1.9780   10.9430   -3.0230 o         1 RR1     -1.076667
     51 O39         2.4280    5.9640    4.8060 o         1 RR1     -1.066333
     52 O40         4.0440    4.5760    3.7620 o         1 RR1     -1.066333
     53 O42         4.3270    6.9160    3.7980 o         1 RR1     -1.066333
@<TRIPOS>BOND
     1    1    4 1   
     2    2    4 1   
     3    3    4 1   
     4    4    6 1   
     5    5    6 1   
     6    5   10 1   
     7    5   34 1   
     8    6    7 1   
     9    7    8 1   
    10    7   35 1   
    11    9   10 1   
    12    9   36 1   
    13    9   37 1   
    14   10   23 1   
    15   11   12 1   
    16   11   16 1   
    17   11   47 1   
    18   12   13 1   
    19   12   24 1   
    20   13   14 1   
    21   13   22 1   
    22   14   15 1   
    23   14   38 1   
    24   15   16 1   
    25   15   20 1   
    26   16   17 1   
    27   17   18 1   
    28   17   25 1   
    29   17   39 1   
    30   18   19 1   
    31   19   20 1   
    32   19   21 1   
    33   20   40 1   
    34   21   48 1   
    35   21   49 1   
    36   21   50 1   
    37   22   51 1   
    38   22   52 1   
    39   22   53 1   
    40   23   24 1   
    41   25   26 1   
    42   25   42 1   
    43   26   27 1   
    44   26   31 1   
    45   27   28 1   
    46   28   29 1   
    47   28   33 1   
    48   29   30 1   
    49   30   31 1   
    50   30   32 1   
    51   32   43 1   
    52   32   44 1   
    53   33   45 1   
    54   33   46 1   
    55   41   47 1   
@<TRIPOS>SUBSTRUCTURE
     1 RR1         1 TEMP              0 ****  ****    0 ROOT
