@<TRIPOS>MOLECULE
RR8
   58    61     1     0     0
SMALL
bcc


@<TRIPOS>ATOM
      1 S1          0.4940    0.2340    0.3760 s6        1 RR8      1.475900
      2 C2          4.3040   -0.0450    1.5310 c3        1 RR8     -0.142700
      3 C3          4.4250   -0.2360    0.0120 c3        1 RR8     -0.145700
      4 N4          2.0760   -0.0860    0.5740 n3        1 RR8     -0.833500
      5 C5          5.0440    1.2020    2.0090 c         1 RR8      0.678100
      6 N6          7.4050    5.5770    6.4000 n         1 RR8     -0.259200
      7 C7          5.2720   -1.4540   -0.3480 c         1 RR8      0.674100
      8 C8          2.9790   -0.4100   -0.5050 c3        1 RR8      0.232800
      9 C9          2.7890    0.0600    1.8230 c3        1 RR8      0.232800
     10 C10         7.9940    5.3450    7.6760 c         1 RR8      0.690700
     11 C11         6.8320    4.5140    5.6440 ca        1 RR8      0.032600
     12 N12         5.0790    1.3710    3.3850 ns        1 RR8     -0.461100
     13 C13         6.0190    3.5500    6.2640 ca        1 RR8     -0.116000
     14 N14         5.5440   -1.5970   -1.7000 ns        1 RR8     -0.465100
     15 C15         5.6730    2.4230    4.0980 ca        1 RR8      0.038600
     16 C16         5.4480    2.5210    5.5060 ca        1 RR8      0.081900
     17 O17         0.0560    1.1150    1.3840 o         1 RR8     -0.648800
     18 O18         0.2510    0.6080   -0.9600 o         1 RR8     -0.648800
     19 C19         7.4050    6.8530    5.8570 cc        1 RR8      0.013600
     20 O20         5.5790    1.9930    1.2120 o         1 RR8     -0.589100
     21 O21         5.6690   -2.2530    0.5180 o         1 RR8     -0.587100
     22 C22         8.6080    6.5030    8.3330 cc        1 RR8     -0.253200
     23 O23         7.9670    4.2060    8.1770 o         1 RR8     -0.627500
     24 C24         7.0720    4.4130    4.2590 ca        1 RR8     -0.134000
     25 C25         6.5030    3.3950    3.5060 ca        1 RR8     -0.126000
     26 C26         7.9730    7.9240    6.4940 cd        1 RR8     -0.245000
     27 C27         8.5960    7.7340    7.7660 cd        1 RR8     -0.038000
     28 C28         6.3120   -2.5980   -2.3200 ca        1 RR8      0.066600
     29 C29        -0.2420   -1.2760    0.6420 c3        1 RR8     -0.364300
     30 F30         4.6680    1.6040    6.1370 f         1 RR8     -0.142900
     31 C31         7.8120   -4.5470   -3.6790 ca        1 RR8     -0.008600
     32 Cl3         8.7180   -5.7270   -4.5000 cl        1 RR8     -0.091400
     33 C34         6.5080   -2.5170   -3.7210 ca        1 RR8     -0.160500
     34 C33         6.8880   -3.6780   -1.6190 ca        1 RR8     -0.160500
     35 C36         7.6300   -4.6400   -2.2980 ca        1 RR8     -0.097500
     36 C35         7.2490   -3.4830   -4.3890 ca        1 RR8     -0.097500
     37 H291       -0.0650   -1.6860    1.6650 h1        1 RR8      0.117033
     38 H292        0.0810   -2.0640   -0.0810 h1        1 RR8      0.117033
     39 H293       -1.3530   -1.1880    0.5300 h1        1 RR8      0.117033
     40 H2          4.7290   -0.9450    2.0610 hc        1 RR8      0.119700
     41 H3          4.8860    0.6840   -0.4480 hc        1 RR8      0.118700
     42 H91C        2.4890   -0.7620    2.5330 h1        1 RR8      0.061200
     43 H92C        2.5230    1.0480    2.2950 h1        1 RR8      0.061200
     44 H81C        2.7920    0.2730   -1.3820 h1        1 RR8      0.060700
     45 H82C        2.8040   -1.4720   -0.8400 h1        1 RR8      0.060700
     46 H12         4.6050    0.6930    3.9430 hn        1 RR8      0.330500
     47 H19         6.9060    6.9610    4.8750 h4        1 RR8      0.159000
     48 H14         5.2020   -0.8840   -2.3070 hn        1 RR8      0.321500
     49 H22         9.0690    6.2900    9.3080 ha        1 RR8      0.165000
     50 H13         5.8410    3.5710    7.3530 ha        1 RR8      0.182000
     51 H24         7.7270    5.1380    3.7500 ha        1 RR8      0.146000
     52 H25         6.7170    3.3570    2.4230 ha        1 RR8      0.181000
     53 H26         7.9480    8.9200    6.0370 ha        1 RR8      0.153000
     54 H27         9.0580    8.6010    8.2640 ha        1 RR8      0.142000
     55 H33         6.7630   -3.7760   -0.5270 ha        1 RR8      0.156500
     56 H34         6.0750   -1.6870   -4.3010 ha        1 RR8      0.156500
     57 H35         7.3910   -3.4040   -5.4780 ha        1 RR8      0.150500
     58 H36         8.0730   -5.4760   -1.7340 ha        1 RR8      0.150500
@<TRIPOS>BOND
     1    1    4 1   
     2    1   17 2   
     3    1   18 2   
     4    1   29 1   
     5    2    3 1   
     6    2    5 1   
     7    2    9 1   
     8    2   40 1   
     9    3    7 1   
    10    3    8 1   
    11    3   41 1   
    12    4    8 1   
    13    4    9 1   
    14    5   12 1   
    15    5   20 2   
    16    6   10 1   
    17    6   11 1   
    18    6   19 1   
    19    7   14 1   
    20    7   21 2   
    21    8   44 1   
    22    8   45 1   
    23    9   42 1   
    24    9   43 1   
    25   10   22 1   
    26   10   23 2   
    27   11   13 ar  
    28   11   24 ar  
    29   12   15 1   
    30   12   46 1   
    31   13   16 ar  
    32   13   50 1   
    33   14   28 1   
    34   14   48 1   
    35   15   16 ar  
    36   15   25 ar  
    37   16   30 1   
    38   19   26 2   
    39   19   47 1   
    40   22   27 2   
    41   22   49 1   
    42   24   25 ar  
    43   24   51 1   
    44   25   52 1   
    45   26   27 1   
    46   26   53 1   
    47   27   54 1   
    48   28   33 ar  
    49   28   34 ar  
    50   29   37 1   
    51   29   38 1   
    52   29   39 1   
    53   31   32 1   
    54   31   35 ar  
    55   31   36 ar  
    56   33   36 ar  
    57   33   56 1   
    58   34   35 ar  
    59   34   55 1   
    60   35   58 1   
    61   36   57 1   
@<TRIPOS>SUBSTRUCTURE
     1 RR8         1 TEMP              0 ****  ****    0 ROOT
