@<TRIPOS>MOLECULE
RR8
   58    61     1     0     0
SMALL
bcc


@<TRIPOS>ATOM
      1 S1          0.4970    0.2160    0.3760 s6        1 RR8      1.475900
      2 C2          4.3090   -0.0480    1.5270 c3        1 RR8     -0.142700
      3 C3          4.4300   -0.2330    0.0070 c3        1 RR8     -0.145700
      4 N4          2.0810   -0.0980    0.5720 n3        1 RR8     -0.833500
      5 C5          5.0420    1.2020    2.0090 c         1 RR8      0.678100
      6 N6          7.3850    5.5700    6.4170 n         1 RR8     -0.259200
      7 C7          5.2840   -1.4450   -0.3590 c         1 RR8      0.674100
      8 C8          2.9850   -0.4130   -0.5100 c3        1 RR8      0.232800
      9 C9          2.7940    0.0470    1.8200 c3        1 RR8      0.232800
     10 C10         7.9860    5.3330    7.6870 c         1 RR8      0.690700
     11 C11         6.8180    4.5070    5.6570 ca        1 RR8      0.032600
     12 N12         5.0790    1.3650    3.3850 n         1 RR8     -0.461100
     13 C13         6.0180    3.5300    6.2750 ca        1 RR8     -0.116000
     14 N14         5.5550   -1.5820   -1.7110 n         1 RR8     -0.465100
     15 C15         5.6680    2.4170    4.1020 ca        1 RR8      0.038600
     16 C16         5.4520    2.5010    5.5130 ca        1 RR8      0.081900
     17 O17         0.0560    1.0910    1.3870 o         1 RR8     -0.648800
     18 O18         0.2520    0.5940   -0.9590 o         1 RR8     -0.648800
     19 C19         7.3680    6.8490    5.8850 cc        1 RR8      0.013600
     20 O20         5.5700    2.0000    1.2150 o         1 RR8     -0.589100
     21 O21         5.6860   -2.2450    0.5040 o         1 RR8     -0.587100
     22 C22         8.5930    6.4920    8.3490 cc        1 RR8     -0.253200
     23 O23         7.9740    4.1900    8.1790 o         1 RR8     -0.627500
     24 C24         7.0480    4.4190    4.2690 ca        1 RR8     -0.134000
     25 C25         6.4840    3.4020    3.5120 ca        1 RR8     -0.127000
     26 C26         7.9300    7.9210    6.5260 cd        1 RR8     -0.245000
     27 C27         8.5650    7.7270    7.7910 cd        1 RR8     -0.038000
     28 C28         6.3270   -2.5760   -2.3350 ca        1 RR8      0.066600
     29 C29        -0.2320   -1.2980    0.6370 c3        1 RR8     -0.364300
     30 F30         4.6860    1.5720    6.1420 f         1 RR8     -0.142900
     31 C31         7.8360   -4.5120   -3.7030 ca        1 RR8     -0.008600
     32 CL3         8.7480   -5.6840   -4.5290 cl        1 RR8     -0.091400
     33 C34         6.5200   -2.4900   -3.7370 ca        1 RR8     -0.160500
     34 C33         6.9110   -3.6550   -1.6390 ca        1 RR8     -0.160500
     35 C36         7.6570   -4.6110   -2.3220 ca        1 RR8     -0.097500
     36 C35         7.2660   -3.4490   -4.4090 ca        1 RR8     -0.097500
     37 H291       -0.0510   -1.7110    1.6590 h1        1 RR8      0.117033
     38 H292        0.0930   -2.0820   -0.0890 h1        1 RR8      0.117033
     39 H293       -1.3430   -1.2150    0.5280 h1        1 RR8      0.117033
     40 H2          4.7400   -0.9470    2.0530 hc        1 RR8      0.119700
     41 H3          4.8860    0.6920   -0.4500 hc        1 RR8      0.118700
     42 H91C        2.5230    1.0310    2.2980 h1        1 RR8      0.061200
     43 H92C        2.4990   -0.7800    2.5270 h1        1 RR8      0.061200
     44 H81C        2.8150   -1.4740   -0.8490 h1        1 RR8      0.060700
     45 H82C        2.7930    0.2720   -1.3840 h1        1 RR8      0.060700
     46 H12         4.6120    0.6800    3.9410 hn        1 RR8      0.330500
     47 H19         6.8610    6.9600    4.9070 h4        1 RR8      0.159000
     48 H14         5.2080   -0.8680   -2.3160 hn        1 RR8      0.321500
     49 H22         9.0640    6.2760    9.3190 ha        1 RR8      0.165000
     50 H13         5.8480    3.5410    7.3650 ha        1 RR8      0.182000
     51 H24         7.6920    5.1550    3.7610 ha        1 RR8      0.146000
     52 H25         6.6910    3.3740    2.4280 ha        1 RR8      0.181000
     53 H26         7.8920    8.9210    6.0770 ha        1 RR8      0.153000
     54 H27         9.0210    8.5950    8.2940 ha        1 RR8      0.142000
     55 H33         6.7880   -3.7580   -0.5480 ha        1 RR8      0.156500
     56 H34         6.0820   -1.6600   -4.3130 ha        1 RR8      0.156500
     57 H35         7.4060   -3.3660   -5.4980 ha        1 RR8      0.150500
     58 H36         8.1060   -5.4460   -1.7620 ha        1 RR8      0.150500
@<TRIPOS>BOND
     1    1    4 1   
     2    1   17 2   
     3    1   18 2   
     4    1   29 1   
     5    2    3 1   
     6    2    5 1   
     7    2    9 1   
     8    2   40 1   
     9    3    7 1   
    10    3    8 1   
    11    3   41 1   
    12    4    8 1   
    13    4    9 1   
    14    5   12 1   
    15    5   20 2   
    16    6   10 1   
    17    6   11 1   
    18    6   19 1   
    19    7   14 1   
    20    7   21 2   
    21    8   44 1   
    22    8   45 1   
    23    9   42 1   
    24    9   43 1   
    25   10   22 1   
    26   10   23 2   
    27   11   13 ar  
    28   11   24 ar  
    29   12   15 1   
    30   12   46 1   
    31   13   16 ar  
    32   13   50 1   
    33   14   28 1   
    34   14   48 1   
    35   15   16 ar  
    36   15   25 ar  
    37   16   30 1   
    38   19   26 2   
    39   19   47 1   
    40   22   27 2   
    41   22   49 1   
    42   24   25 ar  
    43   24   51 1   
    44   25   52 1   
    45   26   27 1   
    46   26   53 1   
    47   27   54 1   
    48   28   33 ar  
    49   28   34 ar  
    50   29   37 1   
    51   29   38 1   
    52   29   39 1   
    53   31   32 1   
    54   31   35 ar  
    55   31   36 ar  
    56   33   36 ar  
    57   33   56 1   
    58   34   35 ar  
    59   34   55 1   
    60   35   58 1   
    61   36   57 1   
@<TRIPOS>SUBSTRUCTURE
     1 RR8         1 TEMP              0 ****  ****    0 ROOT
