@<TRIPOS>MOLECULE
RR8
   58    61     1     0     0
SMALL
bcc


@<TRIPOS>ATOM
      1 S1         -2.3080    4.5850   -0.2290 s6        1 RR8      1.475900
      2 C2         -0.9370    0.9180    0.5470 c3        1 RR8     -0.142700
      3 C3         -2.1480    0.6140   -0.3460 c3        1 RR8     -0.145700
      4 N4         -2.0790    3.0000    0.0540 n3        1 RR8     -0.833500
      5 C5          0.3700    0.4480   -0.0860 c         1 RR8      0.678100
      6 N6          6.8930   -0.6930   -0.4620 n         1 RR8     -0.259200
      7 C7         -3.0550   -0.4570    0.2580 c         1 RR8      0.674100
      8 C8         -2.9110    1.9500   -0.4890 c3        1 RR8      0.232800
      9 C9         -0.9390    2.4510    0.7510 c3        1 RR8      0.232800
     10 C10         7.7820   -1.1790    0.5390 c         1 RR8      0.690700
     11 C11         5.5350   -0.3850   -0.1610 ca        1 RR8      0.032600
     12 N12         1.4920    0.5810    0.7180 n         1 RR8     -0.461100
     13 C13         5.2020    0.3160    1.0120 ca        1 RR8     -0.116000
     14 N14        -4.0840   -0.8840   -0.5660 n         1 RR8     -0.465100
     15 C15         2.8150    0.2460    0.3940 ca        1 RR8      0.038600
     16 C16         3.8650    0.6270    1.2870 ca        1 RR8      0.081900
     17 O17        -1.0750    5.2630   -0.1700 o         1 RR8     -0.648800
     18 O18        -3.0820    4.7500   -1.3940 o         1 RR8     -0.648800
     19 C19         7.3350   -0.5360   -1.7660 cc        1 RR8      0.013600
     20 O20         0.4090   -0.0260   -1.2350 o         1 RR8     -0.589100
     21 O21        -2.8740   -0.8920    1.4090 o         1 RR8     -0.587100
     22 C22         9.1380   -1.5210    0.0990 cc        1 RR8     -0.253200
     23 O23         7.3950   -1.2910    1.7170 o         1 RR8     -0.627500
     24 C24         4.5030   -0.7780   -1.0350 ca        1 RR8     -0.134000
     25 C25         3.1770   -0.4660   -0.7650 ca        1 RR8     -0.126000
     26 C26         8.6110   -0.8500   -2.1540 cd        1 RR8     -0.245000
     27 C27         9.5310   -1.3630   -1.1890 cd        1 RR8     -0.038000
     28 C28        -5.0510   -1.8670   -0.2920 ca        1 RR8      0.066600
     29 C29        -3.2450    5.0820    1.1000 c3        1 RR8     -0.364300
     30 F30         3.5770    1.3040    2.4300 f         1 RR8     -0.142900
     31 C31        -7.0450   -3.8000    0.1380 ca        1 RR8     -0.008600
     32 CL3        -8.2500   -4.9680    0.3990 cl        1 RR8     -0.091400
     33 C34        -5.9830   -2.1870   -1.3100 ca        1 RR8     -0.160500
     34 C33        -5.1430   -2.5400    0.9440 ca        1 RR8     -0.160500
     35 C36        -6.1330   -3.4970    1.1500 ca        1 RR8     -0.097500
     36 C35        -6.9670   -3.1430   -1.0940 ca        1 RR8     -0.097500
     37 H291       -2.7350    4.9430    2.0840 h1        1 RR8      0.117033
     38 H292       -3.4760    6.1750    1.0220 h1        1 RR8      0.117033
     39 H293       -4.2310    4.5610    1.1730 h1        1 RR8      0.117033
     40 H2         -1.0630    0.4040    1.5430 hc        1 RR8      0.119700
     41 H3         -1.7930    0.2680   -1.3580 hc        1 RR8      0.118700
     42 H91C       -1.0170    2.6800    1.8520 h1        1 RR8      0.061200
     43 H92C        0.0070    2.9240    0.3600 h1        1 RR8      0.061200
     44 H81C       -3.1360    2.1590   -1.5730 h1        1 RR8      0.060700
     45 H82C       -3.8860    1.9110    0.0750 h1        1 RR8      0.060700
     46 H12         1.3640    0.9900    1.6200 hn        1 RR8      0.330500
     47 H19         6.5960   -0.1290   -2.4820 h4        1 RR8      0.159000
     48 H14        -4.1220   -0.4920   -1.4820 hn        1 RR8      0.321500
     49 H22         9.7970   -1.9090    0.8890 ha        1 RR8      0.165000
     50 H13         5.9770    0.6050    1.7420 ha        1 RR8      0.182000
     51 H24         4.7310   -1.3520   -1.9480 ha        1 RR8      0.146000
     52 H25         2.4020   -0.7930   -1.4800 ha        1 RR8      0.181000
     53 H26         8.9270   -0.7060   -3.1940 ha        1 RR8      0.153000
     54 H27        10.5510   -1.6200   -1.5140 ha        1 RR8      0.142000
     55 H33        -4.4350   -2.3230    1.7610 ha        1 RR8      0.156500
     56 H34        -5.9400   -1.6840   -2.2890 ha        1 RR8      0.156500
     57 H35        -7.6830   -3.3800   -1.8960 ha        1 RR8      0.150500
     58 H36        -6.1890   -4.0130    2.1220 ha        1 RR8      0.150500
@<TRIPOS>BOND
     1    1    4 1   
     2    1   17 2   
     3    1   18 2   
     4    1   29 1   
     5    2    3 1   
     6    2    5 1   
     7    2    9 1   
     8    2   40 1   
     9    3    7 1   
    10    3    8 1   
    11    3   41 1   
    12    4    8 1   
    13    4    9 1   
    14    5   12 1   
    15    5   20 2   
    16    6   10 1   
    17    6   11 1   
    18    6   19 1   
    19    7   14 1   
    20    7   21 2   
    21    8   44 1   
    22    8   45 1   
    23    9   42 1   
    24    9   43 1   
    25   10   22 1   
    26   10   23 2   
    27   11   13 ar  
    28   11   24 ar  
    29   12   15 1   
    30   12   46 1   
    31   13   16 ar  
    32   13   50 1   
    33   14   28 1   
    34   14   48 1   
    35   15   16 ar  
    36   15   25 ar  
    37   16   30 1   
    38   19   26 2   
    39   19   47 1   
    40   22   27 2   
    41   22   49 1   
    42   24   25 ar  
    43   24   51 1   
    44   25   52 1   
    45   26   27 1   
    46   26   53 1   
    47   27   54 1   
    48   28   33 ar  
    49   28   34 ar  
    50   29   37 1   
    51   29   38 1   
    52   29   39 1   
    53   31   32 1   
    54   31   35 ar  
    55   31   36 ar  
    56   33   36 ar  
    57   33   56 1   
    58   34   35 ar  
    59   34   55 1   
    60   35   58 1   
    61   36   57 1   
@<TRIPOS>SUBSTRUCTURE
     1 RR8         1 TEMP              0 ****  ****    0 ROOT
