@<TRIPOS>MOLECULE
RR8
   60    63     1     0     0
SMALL
bcc


@<TRIPOS>ATOM
      1 S1          2.9170   -1.3750    2.3510 s6        1 RR8      1.467900
      2 C2          5.4380    0.9160    0.9300 c3        1 RR8     -0.144700
      3 C3          5.2800   -0.0340   -0.2940 c3        1 RR8     -0.157700
      4 N4          4.4270   -1.1150    1.6910 n3        1 RR8     -0.799500
      5 C5          4.4380    2.0410    0.8000 c         1 RR8      0.543100
      6 N6          6.3860    4.8680    6.3850 n         1 RR8     -0.279200
      7 C7          6.6080   -0.2450   -0.9700 c         1 RR8      0.550100
      8 C8          4.7590   -1.3860    0.3130 c3        1 RR8      0.223800
      9 C9          5.2740   -0.0360    2.1440 c3        1 RR8      0.203800
     10 C10         5.7640    4.8970    7.6830 c         1 RR8      0.702700
     11 C11         5.7550    4.2660    5.2850 ca        1 RR8      0.169600
     12 N12         3.6420    2.5310    1.9710 n4        1 RR8     -0.517200
     13 C13         5.9070    4.8010    3.9820 ca        1 RR8     -0.198000
     14 N14         6.6260   -0.2720   -2.4820 n4        1 RR8     -0.531200
     15 C15         4.4320    3.0790    3.0690 ca        1 RR8     -0.166400
     16 C16         5.2570    4.2200    2.8890 ca        1 RR8      0.184900
     17 O17         2.5600   -0.0870    2.8560 o         1 RR8     -0.664300
     18 O18         2.0940   -1.8960    1.3470 o         1 RR8     -0.664300
     19 C19         7.6040    5.5370    6.1970 cc        1 RR8     -0.040400
     20 O20         4.2120    2.6160   -0.2610 o         1 RR8     -0.432100
     21 O21         7.6930   -0.3920   -0.4280 o         1 RR8     -0.394100
     22 C22         6.4510    5.6600    8.7290 cc        1 RR8     -0.222200
     23 O23         4.6920    4.2970    7.8550 o         1 RR8     -0.602500
     24 C24         4.9380    3.1110    5.4420 ca        1 RR8     -0.132000
     25 C25         4.2820    2.5450    4.3660 ca        1 RR8     -0.064000
     26 C26         8.2220    6.2270    7.1960 cd        1 RR8     -0.169000
     27 C27         7.6200    6.3000    8.4970 cd        1 RR8     -0.034000
     28 C28         6.0570   -1.5080   -3.0290 ca        1 RR8     -0.098400
     29 C29         3.1550   -2.4450    3.6010 c3        1 RR8     -0.400300
     30 F30         5.4060    4.7580    1.6570 f         1 RR8     -0.120900
     31 C31         5.0240   -3.8380   -4.1620 ca        1 RR8      0.071400
     32 CL3         4.4020   -5.2390   -4.8480 cl        1 RR8      0.027600
     33 C34         4.7770   -1.4900   -3.6130 ca        1 RR8     -0.090000
     34 C33         6.8250   -2.6880   -3.0170 ca        1 RR8     -0.090000
     35 C36         6.3020   -3.8460   -3.5820 ca        1 RR8     -0.104000
     36 C35         4.2670   -2.6550   -4.1740 ca        1 RR8     -0.104000
     37 H291        4.1420   -2.9780    3.6350 h1        1 RR8      0.160367
     38 H292        3.0420   -1.9720    4.6150 h1        1 RR8      0.160367
     39 H293        2.3910   -3.2770    3.5820 h1        1 RR8      0.160367
     40 H2          6.4580    1.3940    0.9690 hc        1 RR8      0.142700
     41 H3          4.5200    0.3650   -1.0190 hc        1 RR8      0.114700
     42 H91C        4.8600    0.4690    3.0570 h1        1 RR8      0.100700
     43 H92C        6.2980   -0.4350    2.4060 h1        1 RR8      0.100700
     44 H81C        3.8580   -1.7510   -0.2560 h1        1 RR8      0.101200
     45 H82C        5.5700   -2.1650    0.2590 h1        1 RR8      0.101200
     46 H12         3.0520    1.7530    2.3400 hn        1 RR8      0.499300
     47 H19         8.0610    5.4470    5.1950 h4        1 RR8      0.157000
     48 H14         7.6070   -0.2000   -2.8020 hn        1 RR8      0.474800
     49 H22         5.9350    5.6680    9.7030 ha        1 RR8      0.190000
     50 H13         6.5050    5.7120    3.8000 ha        1 RR8      0.191000
     51 H24         4.7890    2.6670    6.4470 ha        1 RR8      0.211000
     52 H25         3.6170    1.6770    4.5390 ha        1 RR8      0.176000
     53 H26         9.1860    6.7260    7.0150 ha        1 RR8      0.175000
     54 H27         8.1310    6.8770    9.2860 ha        1 RR8      0.173000
     55 H33         7.8380   -2.7130   -2.5790 ha        1 RR8      0.162500
     56 H34         4.1720   -0.5680   -3.6520 ha        1 RR8      0.162500
     57 H35         3.2650   -2.6430   -4.6410 ha        1 RR8      0.193500
     58 H36         6.9050   -4.7730   -3.5810 ha        1 RR8      0.193500
     59 H122        3.0140    3.2820    1.6310 hn        1 RR8      0.499300
     60 H142        6.1000    0.5320   -2.8470 hn        1 RR8      0.474800
@<TRIPOS>BOND
     1    1    4 1   
     2    1   17 2   
     3    1   18 2   
     4    1   29 1   
     5    2    3 1   
     6    2    5 1   
     7    2    9 1   
     8    2   40 1   
     9    3    7 1   
    10    3    8 1   
    11    3   41 1   
    12    4    8 1   
    13    4    9 1   
    14    5   12 1   
    15    5   20 2   
    16    6   10 1   
    17    6   11 1   
    18    6   19 1   
    19    7   14 1   
    20    7   21 2   
    21    8   44 1   
    22    8   45 1   
    23    9   42 1   
    24    9   43 1   
    25   10   22 1   
    26   10   23 2   
    27   11   13 ar  
    28   11   24 ar  
    29   12   15 1   
    30   12   46 1   
    31   12   59 1   
    32   13   16 ar  
    33   13   50 1   
    34   14   28 1   
    35   14   48 1   
    36   14   60 1   
    37   15   16 ar  
    38   15   25 ar  
    39   16   30 1   
    40   19   26 2   
    41   19   47 1   
    42   22   27 2   
    43   22   49 1   
    44   24   25 ar  
    45   24   51 1   
    46   25   52 1   
    47   26   27 1   
    48   26   53 1   
    49   27   54 1   
    50   28   33 ar  
    51   28   34 ar  
    52   29   37 1   
    53   29   38 1   
    54   29   39 1   
    55   31   32 1   
    56   31   35 ar  
    57   31   36 ar  
    58   33   36 ar  
    59   33   56 1   
    60   34   35 ar  
    61   34   55 1   
    62   35   58 1   
    63   36   57 1   
@<TRIPOS>SUBSTRUCTURE
     1 RR8         1 TEMP              0 ****  ****    0 ROOT
