@<TRIPOS>MOLECULE
RRA
    9     8     1     0     0
SMALL
bcc


@<TRIPOS>ATOM
      1 N03        -1.7470    0.2640   -0.1270 n3        1 RRA     -0.900800
      2 C37        -0.6580   -0.6510    0.1090 c3        1 RRA      0.228900
      3 C38         0.6840   -0.1410   -0.0790 c1        1 RRA     -0.191100
      4 C39         1.8010    0.2600   -0.2290 c1        1 RRA     -0.145500
      5 HN03       -1.6980    1.0510    0.4900 hn        1 RRA      0.351800
      6 HN0A       -1.7440    0.5950   -1.0720 hn        1 RRA      0.351800
      7 H37        -0.7490   -1.0280    1.1730 h1        1 RRA      0.069700
      8 H37A       -0.8000   -1.5390   -0.5780 h1        1 RRA      0.069700
      9 H39         2.7920    0.6130   -0.3610 ha        1 RRA      0.163500
@<TRIPOS>BOND
     1    1    2 1   
     2    1    5 1   
     3    1    6 1   
     4    2    3 1   
     5    2    7 1   
     6    2    8 1   
     7    3    4 3   
     8    4    9 1   
@<TRIPOS>SUBSTRUCTURE
     1 RRA         1 TEMP              0 ****  ****    0 ROOT
