@<TRIPOS>MOLECULE
RRA
   10     9     1     0     0
SMALL
bcc


@<TRIPOS>ATOM
      1 N03         0.0220    0.0100   -0.0180 nz        1 RRA     -0.846600
      2 C37         1.5200   -0.1060    0.0750 c3        1 RRA      0.230900
      3 C38         1.9660   -0.1350    1.4330 c1        1 RRA     -0.303100
      4 C39         2.4200   -0.1660    2.5410 c1        1 RRA      0.065500
      5 HN03       -0.4220   -0.7880    0.4490 hn        1 RRA      0.464800
      6 HN0A       -0.2630    0.0270   -1.0020 hn        1 RRA      0.464800
      7 H37         1.9650    0.7810   -0.4720 hx        1 RRA      0.126700
      8 H37A        1.8210   -1.0580   -0.4640 hx        1 RRA      0.126700
      9 H39         2.8230   -0.1930    3.5300 ha        1 RRA      0.205500
     10 H033       -0.2930    0.8710    0.4410 hn        1 RRA      0.464800
@<TRIPOS>BOND
     1    1    2 1   
     2    1    5 1   
     3    1    6 1   
     4    1   10 1   
     5    2    3 1   
     6    2    7 1   
     7    2    8 1   
     8    3    4 3   
     9    4    9 1   
@<TRIPOS>SUBSTRUCTURE
     1 RRA         1 TEMP              0 ****  ****    0 ROOT
