@<TRIPOS>MOLECULE
RRA
   10     9     1     0     0
SMALL
bcc


@<TRIPOS>ATOM
      1 N03         0.0160    0.0040   -0.0090 n4        1 RRA     -0.846600
      2 C37         1.5150   -0.1020    0.0710 c3        1 RRA      0.230900
      3 C38         1.9720   -0.1320    1.4260 c1        1 RRA     -0.303100
      4 C39         2.4360   -0.1630    2.5300 c1        1 RRA      0.065500
      5 HN03       -0.4190   -0.7980    0.4590 hn        1 RRA      0.464800
      6 HN0A       -0.2770    0.0230   -0.9900 hn        1 RRA      0.464800
      7 H37         1.9490    0.7900   -0.4760 hx        1 RRA      0.126700
      8 H37A        1.8190   -1.0500   -0.4720 hx        1 RRA      0.126700
      9 H39         2.8470   -0.1900    3.5160 ha        1 RRA      0.205500
     10 H033       -0.3010    0.8610    0.4560 hn        1 RRA      0.464800
@<TRIPOS>BOND
     1    1    2 1   
     2    1    5 1   
     3    1    6 1   
     4    1   10 1   
     5    2    3 1   
     6    2    7 1   
     7    2    8 1   
     8    3    4 3   
     9    4    9 1   
@<TRIPOS>SUBSTRUCTURE
     1 RRA         1 TEMP              0 ****  ****    0 ROOT
