@<TRIPOS>MOLECULE
RRA
   10     9     1     0     0
SMALL
bcc


@<TRIPOS>ATOM
      1 N03         0.0310    0.0150   -0.0500 n4        1 RRA     -0.846600
      2 C37         1.5250   -0.1440    0.0350 c3        1 RRA      0.230900
      3 C38         1.9810   -0.1390    1.3910 c1        1 RRA     -0.303100
      4 C39         2.4440   -0.1440    2.4960 c1        1 RRA      0.065500
      5 HN03       -0.2540    0.9020    0.3800 hn        1 RRA      0.464800
      6 HN0A       -0.2620    0.0060   -1.0320 hn        1 RRA      0.464800
      7 H37         1.9920    0.7090   -0.5460 hx        1 RRA      0.126700
      8 H37A        1.7920   -1.1230   -0.4710 hx        1 RRA      0.126700
      9 H39         2.8540   -0.1480    3.4820 ha        1 RRA      0.205500
     10 H033       -0.4340   -0.7510    0.4480 hn        1 RRA      0.464800
@<TRIPOS>BOND
     1    1    2 1   
     2    1    5 1   
     3    1    6 1   
     4    1   10 1   
     5    2    3 1   
     6    2    7 1   
     7    2    8 1   
     8    3    4 3   
     9    4    9 1   
@<TRIPOS>SUBSTRUCTURE
     1 RRA         1 TEMP              0 ****  ****    0 ROOT
