@<TRIPOS>MOLECULE
RRC
   54    56     1     0     0
SMALL
bcc


@<TRIPOS>ATOM
      1 OAP        -0.7960   -0.7000    3.1190 oh        1 RRC     -0.608800
      2 CAQ        -0.1730   -0.7190    1.8560 c3        1 RRC      0.111400
      3 CAR         1.2590   -0.1410    1.9810 c3        1 RRC      0.099500
      4 CAK         1.1920    1.3750    2.1860 c3        1 RRC     -0.116400
      5 CAI         2.5410    2.0390    2.2570 c3        1 RRC     -0.122100
      6 NAS         1.9920   -0.8020    3.1320 n4        1 RRC     -0.740700
      7 CAT         2.6510   -2.0810    2.7370 ca        1 RRC      0.728900
      8 NAU         1.9030   -3.2190    2.9160 nb        1 RRC     -0.599000
      9 CAV         2.5480   -4.3550    2.5680 ca        1 RRC      0.448800
     10 NAW         2.1600   -5.7000    2.6030 na        1 RRC     -0.214000
     11 CAZ         0.8810   -6.2430    3.0710 c3        1 RRC      0.041000
     12 CAY         0.1690   -7.0380    1.9780 c3        1 RRC     -0.123100
     13 CBA         1.0530   -7.1150    4.3130 c3        1 RRC     -0.123100
     14 CAX         3.2600   -6.4360    2.1240 cc        1 RRC      0.531700
     15 CAN         3.9390   -4.3700    2.0340 ca        1 RRC     -0.093200
     16 NAO         4.3290   -5.6770    1.7760 nd        1 RRC     -0.565100
     17 NAL         3.9350   -1.9660    2.2510 nb        1 RRC     -0.681000
     18 CAM         4.5710   -3.1150    1.9110 ca        1 RRC      0.563200
     19 NAJ         5.9520   -3.0550    1.4030 n4        1 RRC     -0.756700
     20 CAD         6.0000   -3.0020   -0.1150 c3        1 RRC      0.195100
     21 CAE         7.4140   -2.9910   -0.5650 ca        1 RRC     -0.216300
     22 CAG         8.0730   -4.2010   -0.8260 ca        1 RRC     -0.093000
     23 CAH         9.3840   -4.1880   -1.2980 ca        1 RRC     -0.116500
     24 CAF        10.0400   -2.9730   -1.5110 ca        1 RRC     -0.058000
     25 CAC         9.3830   -1.7670   -1.2510 ca        1 RRC     -0.116500
     26 CAB         8.0730   -1.7730   -0.7780 ca        1 RRC     -0.093000
     27 HAP        -1.4510    0.0120    3.1350 ho        1 RRC      0.448000
     28 HAQ1       -0.1340   -1.7970    1.5400 h1        1 RRC      0.091200
     29 HAQ2       -0.7270   -0.1240    1.0830 h1        1 RRC      0.091200
     30 HAR         1.8340   -0.3670    1.0360 hx        1 RRC      0.110700
     31 HAK1        0.6250    1.7860    1.3040 hc        1 RRC      0.093700
     32 HAK2        0.5880    1.6110    3.1030 hc        1 RRC      0.093700
     33 HAI1        2.4180    3.1450    2.1200 hc        1 RRC      0.060367
     34 HAI2        3.2190    1.6680    1.4500 hc        1 RRC      0.060367
     35 HAI3        3.0350    1.8850    3.2470 hc        1 RRC      0.060367
     36 HAS         1.2980   -0.9930    3.8810 hn        1 RRC      0.491300
     37 HAZ         0.2400   -5.3490    3.3430 h1        1 RRC      0.099700
     38 HAY1       -0.0030   -6.4200    1.0640 hc        1 RRC      0.071533
     39 HAY2       -0.8260   -7.3600    2.3770 hc        1 RRC      0.071533
     40 HAY3        0.7460   -7.9520    1.6960 hc        1 RRC      0.071533
     41 HBA1        0.0370   -7.4400    4.6520 hc        1 RRC      0.071533
     42 HBA2        1.5370   -6.5520    5.1470 hc        1 RRC      0.071533
     43 HBA3        1.6570   -8.0270    4.0900 hc        1 RRC      0.071533
     44 HAX         3.2270   -7.5400    2.0460 h5        1 RRC      0.129800
     45 HAJ         6.4500   -3.9020    1.7210 hn        1 RRC      0.479300
     46 HAD1        5.4520   -3.9120   -0.4960 hx        1 RRC      0.110700
     47 HAD2        5.4550   -2.0690   -0.4330 hx        1 RRC      0.110700
     48 HAG         7.5550   -5.1610   -0.6780 ha        1 RRC      0.139500
     49 HAH         9.9010   -5.1380   -1.5120 ha        1 RRC      0.168500
     50 HAF        11.0760   -2.9650   -1.8910 ha        1 RRC      0.172000
     51 HAC         9.9000   -0.8090   -1.4280 ha        1 RRC      0.168500
     52 HAB         7.5550   -0.8200   -0.5940 ha        1 RRC      0.139500
     53 HAS2        2.7080   -0.1530    3.4930 hn        1 RRC      0.491300
     54 HAJ2        6.4450   -2.2310    1.7780 hn        1 RRC      0.479300
@<TRIPOS>BOND
     1    1    2 1   
     2    1   27 1   
     3    2    3 1   
     4    2   28 1   
     5    2   29 1   
     6    3    4 1   
     7    3    6 1   
     8    3   30 1   
     9    4    5 1   
    10    4   31 1   
    11    4   32 1   
    12    5   33 1   
    13    5   34 1   
    14    5   35 1   
    15    6    7 1   
    16    6   36 1   
    17    6   53 1   
    18    7    8 ar  
    19    7   17 ar  
    20    8    9 ar  
    21    9   10 1   
    22    9   15 ar  
    23   10   11 1   
    24   10   14 1   
    25   11   12 1   
    26   11   13 1   
    27   11   37 1   
    28   12   38 1   
    29   12   39 1   
    30   12   40 1   
    31   13   41 1   
    32   13   42 1   
    33   13   43 1   
    34   14   16 2   
    35   14   44 1   
    36   15   16 1   
    37   15   18 ar  
    38   17   18 ar  
    39   18   19 1   
    40   19   20 1   
    41   19   45 1   
    42   19   54 1   
    43   20   21 1   
    44   20   46 1   
    45   20   47 1   
    46   21   22 ar  
    47   21   26 ar  
    48   22   23 ar  
    49   22   48 1   
    50   23   24 ar  
    51   23   49 1   
    52   24   25 ar  
    53   24   50 1   
    54   25   26 ar  
    55   25   51 1   
    56   26   52 1   
@<TRIPOS>SUBSTRUCTURE
     1 RRC         1 TEMP              0 ****  ****    0 ROOT
