@<TRIPOS>MOLECULE
RRC
   52    54     1     0     0
SMALL
bcc


@<TRIPOS>ATOM
      1 OAP        -0.1570   -0.2570    0.3870 oh        1 RRC     -0.608800
      2 CAQ         1.2480   -0.1250    0.2340 c3        1 RRC      0.093400
      3 CAR         1.8620    0.0520    1.6420 c3        1 RRC      0.209500
      4 CAK         1.2950    1.3430    2.2580 c3        1 RRC     -0.079400
      5 CAI         1.9840    1.7250    3.5400 c3        1 RRC     -0.091100
      6 NAS         1.6540   -1.0820    2.5230 nh        1 RRC     -0.802900
      7 CAT         2.2900   -2.3170    2.2570 ca        1 RRC      0.911900
      8 NAU         1.6980   -3.4250    2.8430 nb        1 RRC     -0.789000
      9 CAV         2.4200   -4.5660    2.6920 ca        1 RRC      0.493800
     10 NAW         2.1670   -5.8660    3.1580 na        1 RRC     -0.269000
     11 CAZ         1.0390   -6.3070    3.9460 c3        1 RRC      0.057000
     12 CAY         0.2010   -7.3690    3.2290 c3        1 RRC     -0.111100
     13 CBA         1.4530   -6.8450    5.3180 c3        1 RRC     -0.111100
     14 CAX         3.2520   -6.6600    2.7070 cc        1 RRC      0.392700
     15 CAN         3.6780   -4.6610    1.9630 ca        1 RRC     -0.262200
     16 NAO         4.1610   -5.9770    1.9980 nd        1 RRC     -0.539100
     17 NAL         3.4680   -2.2920    1.5160 nb        1 RRC     -0.834000
     18 CAM         4.1650   -3.4550    1.3610 ca        1 RRC      0.777200
     19 NAJ         5.3050   -3.5040    0.5810 nh        1 RRC     -0.854900
     20 CAD         5.9630   -2.3020    0.1290 c3        1 RRC      0.259100
     21 CAE         7.2700   -2.5750   -0.5570 ca        1 RRC     -0.110300
     22 CAG         7.3340   -3.4590   -1.6390 ca        1 RRC     -0.116000
     23 CAH         8.5470   -3.6790   -2.2910 ca        1 RRC     -0.131000
     24 CAF         9.6990   -3.0150   -1.8690 ca        1 RRC     -0.123000
     25 CAC         9.6370   -2.1330   -0.7910 ca        1 RRC     -0.131000
     26 CAB         8.4280   -1.9150   -0.1330 ca        1 RRC     -0.116000
     27 HAP        -0.5080   -0.4960   -0.4780 ho        1 RRC      0.403000
     28 HAQ1        1.4770    0.7820   -0.3870 h1        1 RRC      0.035200
     29 HAQ2        1.6730   -1.0320   -0.2690 h1        1 RRC      0.035200
     30 HAR         2.9740    0.1940    1.4980 h1        1 RRC      0.086700
     31 HAK1        1.4310    2.1590    1.5000 hc        1 RRC      0.050700
     32 HAK2        0.1920    1.2280    2.4260 hc        1 RRC      0.050700
     33 HAI1        1.7780    0.9790    4.3450 hc        1 RRC      0.036700
     34 HAI2        3.0900    1.7820    3.3930 hc        1 RRC      0.036700
     35 HAI3        1.6220    2.7230    3.8860 hc        1 RRC      0.036700
     36 HAS         0.6980   -1.1740    2.8120 hn        1 RRC      0.427800
     37 HAZ         0.3820   -5.3980    4.1120 h1        1 RRC      0.091700
     38 HAY1       -0.6800   -7.6190    3.8680 hc        1 RRC      0.046533
     39 HAY2        0.7930   -8.2990    3.0580 hc        1 RRC      0.046533
     40 HAY3       -0.1680   -6.9920    2.2460 hc        1 RRC      0.046533
     41 HBA1        2.0210   -6.0760    5.8940 hc        1 RRC      0.046533
     42 HBA2        2.0880   -7.7570    5.2160 hc        1 RRC      0.046533
     43 HBA3        0.5320   -7.1120    5.8900 hc        1 RRC      0.046533
     44 HAX         3.2990   -7.7300    2.9410 h5        1 RRC      0.068800
     45 HAJ         5.8580   -4.3290    0.6560 hn        1 RRC      0.452800
     46 HAD1        6.1310   -1.5980    0.9970 h1        1 RRC      0.058200
     47 HAD2        5.2750   -1.7760   -0.5980 h1        1 RRC      0.058200
     48 HAG         6.4250   -3.9780   -1.9780 ha        1 RRC      0.138500
     49 HAH         8.5930   -4.3760   -3.1410 ha        1 RRC      0.133500
     50 HAF        10.6550   -3.1890   -2.3850 ha        1 RRC      0.133000
     51 HAC        10.5450   -1.6090   -0.4560 ha        1 RRC      0.133500
     52 HAB         8.3850   -1.2210    0.7200 ha        1 RRC      0.138500
@<TRIPOS>BOND
     1    1    2 1   
     2    1   27 1   
     3    2    3 1   
     4    2   28 1   
     5    2   29 1   
     6    3    4 1   
     7    3    6 1   
     8    3   30 1   
     9    4    5 1   
    10    4   31 1   
    11    4   32 1   
    12    5   33 1   
    13    5   34 1   
    14    5   35 1   
    15    6    7 1   
    16    6   36 1   
    17    7    8 ar  
    18    7   17 ar  
    19    8    9 ar  
    20    9   10 1   
    21    9   15 ar  
    22   10   11 1   
    23   10   14 1   
    24   11   12 1   
    25   11   13 1   
    26   11   37 1   
    27   12   38 1   
    28   12   39 1   
    29   12   40 1   
    30   13   41 1   
    31   13   42 1   
    32   13   43 1   
    33   14   16 2   
    34   14   44 1   
    35   15   16 1   
    36   15   18 ar  
    37   17   18 ar  
    38   18   19 1   
    39   19   20 1   
    40   19   45 1   
    41   20   21 1   
    42   20   46 1   
    43   20   47 1   
    44   21   22 ar  
    45   21   26 ar  
    46   22   23 ar  
    47   22   48 1   
    48   23   24 ar  
    49   23   49 1   
    50   24   25 ar  
    51   24   50 1   
    52   25   26 ar  
    53   25   51 1   
    54   26   52 1   
@<TRIPOS>SUBSTRUCTURE
     1 RRC         1 TEMP              0 ****  ****    0 ROOT
