@<TRIPOS>MOLECULE
RRC
   52    46     1     0     0
SMALL
bcc


@<TRIPOS>ATOM
      1 OAP         0.0950   -5.1260   -2.1670 oh        1 RRC     -0.334000
      2 CAQ         0.3700   -4.5680   -0.8480 c3        1 RRC     -0.029000
      3 CAR         1.1560   -3.2260   -1.0120 c3        1 RRC      0.014000
      4 CAK         2.3530   -3.4700   -1.8710 c3        1 RRC     -0.188000
      5 CAI         3.5720   -3.6700   -0.9920 c3        1 RRC     -0.207000
      6 NAS         0.3320   -2.2650   -1.6130 n3        1 RRC     -0.255000
      7 CAT         0.1410   -0.9380   -0.9640 c2        1 RRC      0.189000
      8 NAU        -0.4310   -0.1640   -1.9370 n1        1 RRC     -0.259000
      9 CAV        -0.6920    1.1460   -1.7000 c1        1 RRC     -0.081500
     10 NAW        -1.2580    2.1380   -2.4990 n1        1 RRC     -0.148500
     11 CAZ        -1.9400    1.9410   -3.7660 c2        1 RRC      0.037000
     12 CAY        -3.3830    2.5100   -3.6650 c3        1 RRC     -0.229000
     13 CBA        -1.1830    2.6740   -4.8810 c3        1 RRC     -0.229000
     14 CAX        -1.2940    3.2870   -1.7800 c1        1 RRC     -0.060000
     15 CAN        -0.3850    1.6970   -0.4900 c1        1 RRC     -0.081500
     16 NAO        -0.7540    3.0270   -0.5270 n1        1 RRC     -0.148500
     17 NAL         0.4530   -0.3930    0.2560 n2        1 RRC     -0.296000
     18 CAM         0.1960    0.9100    0.4990 c1        1 RRC      0.243000
     19 NAJ         0.2880    1.5480    1.8480 n3        1 RRC     -0.270000
     20 CAD         1.0620    0.9480    2.8570 c3        1 RRC     -0.001000
     21 CAE         0.4330    1.2350    4.2350 c2        1 RRC     -0.122000
     22 CAG        -0.7450    0.6670    4.5740 c2        1 RRC     -0.104000
     23 CAH        -1.2620    0.8540    5.8450 c1        1 RRC     -0.135000
     24 CAF        -0.5770    1.6180    6.7610 c1        1 RRC     -0.128500
     25 CAC         0.6130    2.1920    6.4170 c1        1 RRC     -0.128500
     26 CAB         1.1250    2.0090    5.1630 c1        1 RRC     -0.120000
     27 HAP        -0.1990   -5.9920   -2.0800 ho        1 RRC      0.204000
     28 HAQ1        0.9340   -5.2300   -0.3090 h1        1 RRC      0.074000
     29 HAQ2       -0.4970   -4.3980   -0.3670 h1        1 RRC      0.074000
     30 HAR         1.4410   -2.9050   -0.1380 h1        1 RRC      0.120000
     31 HAK1        2.2070   -4.2840   -2.4140 hc        1 RRC      0.096500
     32 HAK2        2.5010   -2.6810   -2.4820 hc        1 RRC      0.096500
     33 HAI1        3.4800   -4.5280   -0.4930 hc        1 RRC      0.073000
     34 HAI2        4.3740   -3.7040   -1.5490 hc        1 RRC      0.073000
     35 HAI3        3.6480   -2.9120   -0.3470 hc        1 RRC      0.073000
     36 HAS        -0.1630   -2.4870   -2.3740 hn        1 RRC      0.225000
     37 HAZ        -1.9800    0.9460   -3.9800 ha        1 RRC      0.131000
     38 HAY1       -3.3440    3.4620   -3.5840 hc        1 RRC      0.086000
     39 HAY2       -3.8210    2.1400   -2.8890 hc        1 RRC      0.086000
     40 HAY3       -3.8860    2.2720   -4.4690 hc        1 RRC      0.086000
     41 HBA1       -1.5720    2.4350   -5.7530 hc        1 RRC      0.086000
     42 HBA2       -0.2520    2.4200   -4.8630 hc        1 RRC      0.086000
     43 HBA3       -1.2580    3.6180   -4.7480 hc        1 RRC      0.086000
     44 HAX        -1.6270    4.1640   -2.1030 DU        1 RRC      0.198000
     45 HAJ        -0.1090    2.3230    1.9980 hn        1 RRC      0.230000
     46 HAD1        1.0950   -0.0230    2.7080 h1        1 RRC      0.108500
     47 HAD2        1.9490    1.3060    2.8310 h1        1 RRC      0.108500
     48 HAG        -1.2350    0.1190    3.9180 ha        1 RRC      0.147000
     49 HAH        -2.1030    0.4490    6.0870 ha        1 RRC      0.132000
     50 HAF        -0.9460    1.7530    7.6650 ha        1 RRC      0.131000
     51 HAC         1.1030    2.7390    7.0730 ha        1 RRC      0.131000
     52 HAB         1.9760    2.4180    4.9180 ha        1 RRC      0.129000
@<TRIPOS>BOND
     1    1    2 1   
     2    1   27 1   
     3    2    3 1   
     4    2   28 1   
     5    2   29 1   
     6    3    4 1   
     7    3    6 1   
     8    3   30 1   
     9    4    5 1   
    10    4   31 1   
    11    4   32 1   
    12    5   33 1   
    13    5   34 1   
    14    5   35 1   
    15    6    7 1   
    16    6   36 1   
    17    7    8 1   
    18    7   17 1   
    19    9   15 1   
    20   10   14 1   
    21   11   12 1   
    22   11   13 1   
    23   11   37 1   
    24   12   38 1   
    25   12   39 1   
    26   12   40 1   
    27   13   41 1   
    28   13   42 1   
    29   13   43 1   
    30   14   16 1   
    31   17   18 1   
    32   18   19 1   
    33   19   20 1   
    34   19   45 1   
    35   20   21 1   
    36   20   46 1   
    37   20   47 1   
    38   21   22 1   
    39   21   26 1   
    40   22   23 1   
    41   22   48 1   
    42   23   49 1   
    43   24   25 1   
    44   24   50 1   
    45   25   51 1   
    46   26   52 1   
@<TRIPOS>SUBSTRUCTURE
     1 RRC         1 TEMP              0 ****  ****    0 ROOT
