@<TRIPOS>MOLECULE
RRC
   52    54     1     0     0
SMALL
bcc


@<TRIPOS>ATOM
      1 OAP         4.0340   -1.8170   -2.0760 oh        1 RRC     -0.608800
      2 CAQ         3.7250   -1.2520   -0.8120 c3        1 RRC      0.093400
      3 CAR         3.4610    0.2570   -1.0210 c3        1 RRC      0.209500
      4 CAK         4.7480    0.9020   -1.5640 c3        1 RRC     -0.079400
      5 CAI         4.6690    2.4050   -1.6040 c3        1 RRC     -0.091100
      6 NAS         2.3290    0.5430   -1.8820 nh        1 RRC     -0.802900
      7 CAT         1.0140    0.2370   -1.4580 ca        1 RRC      0.911900
      8 NAU         0.0800    0.1090   -2.4730 nb        1 RRC     -0.789000
      9 CAV        -1.1930   -0.0330   -2.0200 ca        1 RRC      0.493800
     10 NAW        -2.3980   -0.1630   -2.7300 na        1 RRC     -0.269000
     11 CAZ        -2.5690   -0.1690   -4.1640 c3        1 RRC      0.057000
     12 CAY        -3.1610   -1.4840   -4.6810 c3        1 RRC     -0.111100
     13 CBA        -3.4360    0.9920   -4.6590 c3        1 RRC     -0.111100
     14 CAX        -3.4170   -0.2790   -1.7500 cc        1 RRC      0.392700
     15 CAN        -1.5720   -0.0840   -0.6140 ca        1 RRC     -0.262200
     16 NAO        -2.9610   -0.2370   -0.4920 nd        1 RRC     -0.539100
     17 NAL         0.7750    0.1760   -0.0880 nb        1 RRC     -0.834000
     18 CAM        -0.5090    0.0120    0.3420 ca        1 RRC      0.777200
     19 NAJ        -0.7990   -0.1220    1.6880 nh        1 RRC     -0.854900
     20 CAD         0.1800    0.1770    2.7050 c3        1 RRC      0.259100
     21 CAE        -0.3890    0.1300    4.0930 ca        1 RRC     -0.110300
     22 CAG        -1.0570   -1.0110    4.5500 ca        1 RRC     -0.116000
     23 CAH        -1.5500   -1.0580    5.8530 ca        1 RRC     -0.131000
     24 CAF        -1.3760    0.0320    6.7070 ca        1 RRC     -0.123000
     25 CAC        -0.7100    1.1700    6.2540 ca        1 RRC     -0.131000
     26 CAB        -0.2200    1.2220    4.9500 ca        1 RRC     -0.116000
     27 HAP         4.0660   -2.7730   -1.9520 ho        1 RRC      0.403000
     28 HAQ1        4.5960   -1.3830   -0.1160 h1        1 RRC      0.035200
     29 HAQ2        2.8230   -1.7520   -0.3710 h1        1 RRC      0.035200
     30 HAR         3.2540    0.6970    0.0000 h1        1 RRC      0.086700
     31 HAK1        4.9720    0.4950   -2.5850 hc        1 RRC      0.050700
     32 HAK2        5.5870    0.5860   -0.8890 hc        1 RRC      0.050700
     33 HAI1        5.6610    2.8310   -1.8930 hc        1 RRC      0.036700
     34 HAI2        3.9100    2.7490   -2.3470 hc        1 RRC      0.036700
     35 HAI3        4.3870    2.8130   -0.6030 hc        1 RRC      0.036700
     36 HAS         2.5070    0.3120   -2.8410 hn        1 RRC      0.427800
     37 HAZ        -1.5360   -0.0500   -4.6170 h1        1 RRC      0.091700
     38 HAY1       -3.2110   -1.4390   -5.7950 hc        1 RRC      0.046533
     39 HAY2       -2.5240   -2.3510   -4.3860 hc        1 RRC      0.046533
     40 HAY3       -4.1910   -1.6430   -4.2810 hc        1 RRC      0.046533
     41 HBA1       -4.4750    0.9150   -4.2590 hc        1 RRC      0.046533
     42 HBA2       -3.0050    1.9740   -4.3480 hc        1 RRC      0.046533
     43 HBA3       -3.4770    0.9580   -5.7740 hc        1 RRC      0.046533
     44 HAX        -4.4670   -0.3920   -2.0450 h5        1 RRC      0.068800
     45 HAJ        -1.7600   -0.0570    1.9420 hn        1 RRC      0.452800
     46 HAD1        1.0110   -0.5840    2.6280 h1        1 RRC      0.058200
     47 HAD2        0.6390    1.1940    2.5180 h1        1 RRC      0.058200
     48 HAG        -1.1900   -1.8740    3.8800 ha        1 RRC      0.138500
     49 HAH        -2.0760   -1.9560    6.2070 ha        1 RRC      0.133500
     50 HAF        -1.7650   -0.0070    7.7350 ha        1 RRC      0.133000
     51 HAC        -0.5720    2.0300    6.9260 ha        1 RRC      0.133500
     52 HAB         0.3020    2.1250    4.5960 ha        1 RRC      0.138500
@<TRIPOS>BOND
     1    1    2 1   
     2    1   27 1   
     3    2    3 1   
     4    2   28 1   
     5    2   29 1   
     6    3    4 1   
     7    3    6 1   
     8    3   30 1   
     9    4    5 1   
    10    4   31 1   
    11    4   32 1   
    12    5   33 1   
    13    5   34 1   
    14    5   35 1   
    15    6    7 1   
    16    6   36 1   
    17    7    8 ar  
    18    7   17 ar  
    19    8    9 ar  
    20    9   10 1   
    21    9   15 ar  
    22   10   11 1   
    23   10   14 1   
    24   11   12 1   
    25   11   13 1   
    26   11   37 1   
    27   12   38 1   
    28   12   39 1   
    29   12   40 1   
    30   13   41 1   
    31   13   42 1   
    32   13   43 1   
    33   14   16 2   
    34   14   44 1   
    35   15   16 1   
    36   15   18 ar  
    37   17   18 ar  
    38   18   19 1   
    39   19   20 1   
    40   19   45 1   
    41   20   21 1   
    42   20   46 1   
    43   20   47 1   
    44   21   22 ar  
    45   21   26 ar  
    46   22   23 ar  
    47   22   48 1   
    48   23   24 ar  
    49   23   49 1   
    50   24   25 ar  
    51   24   50 1   
    52   25   26 ar  
    53   25   51 1   
    54   26   52 1   
@<TRIPOS>SUBSTRUCTURE
     1 RRC         1 TEMP              0 ****  ****    0 ROOT
