@<TRIPOS>MOLECULE
RRC
   52    54     1     0     0
SMALL
bcc


@<TRIPOS>ATOM
      1 OAP        -0.1650   -0.2660    0.3930 oh        1 RRC     -0.608800
      2 CAQ         1.2380   -0.1310    0.2370 c3        1 RRC      0.093400
      3 CAR         1.8560    0.0490    1.6420 c3        1 RRC      0.209500
      4 CAK         1.2880    1.3400    2.2580 c3        1 RRC     -0.079400
      5 CAI         1.9800    1.7250    3.5380 c3        1 RRC     -0.091100
      6 NAS         1.6530   -1.0840    2.5260 nu        1 RRC     -0.802900
      7 CAT         2.2910   -2.3180    2.2600 ca        1 RRC      0.911900
      8 NAU         1.7030   -3.4270    2.8490 nb        1 RRC     -0.789000
      9 CAV         2.4270   -4.5660    2.6980 ca        1 RRC      0.493800
     10 NAW         2.1770   -5.8660    3.1670 na        1 RRC     -0.269000
     11 CAZ         1.0520   -6.3080    3.9580 c3        1 RRC      0.057000
     12 CAY         0.2120   -7.3700    3.2430 c3        1 RRC     -0.111100
     13 CBA         1.4710   -6.8480    5.3280 c3        1 RRC     -0.111100
     14 CAX         3.2630   -6.6590    2.7140 cc        1 RRC      0.392700
     15 CAN         3.6830   -4.6600    1.9660 ca        1 RRC     -0.262200
     16 NAO         4.1680   -5.9760    2.0010 nd        1 RRC     -0.539100
     17 NAL         3.4660   -2.2920    1.5160 nb        1 RRC     -0.834000
     18 CAM         4.1650   -3.4540    1.3600 ca        1 RRC      0.777200
     19 NAJ         5.3040   -3.5020    0.5770 nu        1 RRC     -0.854900
     20 CAD         5.9580   -2.2990    0.1210 c3        1 RRC      0.259100
     21 CAE         7.2640   -2.5710   -0.5680 ca        1 RRC     -0.110300
     22 CAG         7.3280   -3.4580   -1.6470 ca        1 RRC     -0.116000
     23 CAH         8.5390   -3.6760   -2.3020 ca        1 RRC     -0.131000
     24 CAF         9.6910   -3.0080   -1.8850 ca        1 RRC     -0.123000
     25 CAC         9.6290   -2.1230   -0.8090 ca        1 RRC     -0.131000
     26 CAB         8.4210   -1.9060   -0.1480 ca        1 RRC     -0.116000
     27 HAP        -0.5180   -0.5080   -0.4700 ho        1 RRC      0.403000
     28 HAQ1        1.6650   -1.0390   -0.2670 h1        1 RRC      0.035200
     29 HAQ2        1.4640    0.7750   -0.3870 h1        1 RRC      0.035200
     30 HAR         2.9680    0.1930    1.4960 h1        1 RRC      0.086700
     31 HAK1        1.4210    2.1550    1.4980 hc        1 RRC      0.050700
     32 HAK2        0.1850    1.2230    2.4290 hc        1 RRC      0.050700
     33 HAI1        1.6160    2.7230    3.8840 hc        1 RRC      0.036700
     34 HAI2        3.0850    1.7840    3.3870 hc        1 RRC      0.036700
     35 HAI3        1.7780    0.9790    4.3440 hc        1 RRC      0.036700
     36 HAS         0.6980   -1.1780    2.8180 hn        1 RRC      0.427800
     37 HAZ         0.3960   -5.3990    4.1280 h1        1 RRC      0.091700
     38 HAY1       -0.6670   -7.6200    3.8850 hc        1 RRC      0.046533
     39 HAY2        0.8040   -8.2990    3.0690 hc        1 RRC      0.046533
     40 HAY3       -0.1600   -6.9910    2.2610 hc        1 RRC      0.046533
     41 HBA1        2.0410   -6.0800    5.9040 hc        1 RRC      0.046533
     42 HBA2        2.1060   -7.7600    5.2230 hc        1 RRC      0.046533
     43 HBA3        0.5520   -7.1150    5.9030 hc        1 RRC      0.046533
     44 HAX         3.3130   -7.7280    2.9490 h5        1 RRC      0.068800
     45 HAJ         5.8580   -4.3260    0.6520 hn        1 RRC      0.452800
     46 HAD1        5.2670   -1.7770   -0.6060 h1        1 RRC      0.058200
     47 HAD2        6.1270   -1.5930    0.9870 h1        1 RRC      0.058200
     48 HAG         6.4190   -3.9810   -1.9830 ha        1 RRC      0.138500
     49 HAH         8.5850   -4.3760   -3.1500 ha        1 RRC      0.133500
     50 HAF        10.6450   -3.1800   -2.4020 ha        1 RRC      0.133000
     51 HAC        10.5360   -1.5950   -0.4780 ha        1 RRC      0.133500
     52 HAB         8.3780   -1.2090    0.7030 ha        1 RRC      0.138500
@<TRIPOS>BOND
     1    1    2 1   
     2    1   27 1   
     3    2    3 1   
     4    2   28 1   
     5    2   29 1   
     6    3    4 1   
     7    3    6 1   
     8    3   30 1   
     9    4    5 1   
    10    4   31 1   
    11    4   32 1   
    12    5   33 1   
    13    5   34 1   
    14    5   35 1   
    15    6    7 1   
    16    6   36 1   
    17    7    8 ar  
    18    7   17 ar  
    19    8    9 ar  
    20    9   10 1   
    21    9   15 ar  
    22   10   11 1   
    23   10   14 1   
    24   11   12 1   
    25   11   13 1   
    26   11   37 1   
    27   12   38 1   
    28   12   39 1   
    29   12   40 1   
    30   13   41 1   
    31   13   42 1   
    32   13   43 1   
    33   14   16 2   
    34   14   44 1   
    35   15   16 1   
    36   15   18 ar  
    37   17   18 ar  
    38   18   19 1   
    39   19   20 1   
    40   19   45 1   
    41   20   21 1   
    42   20   46 1   
    43   20   47 1   
    44   21   22 ar  
    45   21   26 ar  
    46   22   23 ar  
    47   22   48 1   
    48   23   24 ar  
    49   23   49 1   
    50   24   25 ar  
    51   24   50 1   
    52   25   26 ar  
    53   25   51 1   
    54   26   52 1   
@<TRIPOS>SUBSTRUCTURE
     1 RRC         1 TEMP              0 ****  ****    0 ROOT
