@<TRIPOS>MOLECULE
RRG
   50    52     1     0     0
SMALL
bcc


@<TRIPOS>ATOM
      1 CAA         4.9470    0.3530    2.5890 c3        1 RRG     -0.083100
      2 CAZ         4.4800    0.9000    1.2530 c3        1 RRG     -0.034400
      3 CAB         5.2660    2.1450    0.8860 c3        1 RRG     -0.083100
      4 CAY         4.5870   -0.1410    0.1810 ca        1 RRG     -0.064300
      5 CAM         5.8550   -0.6150   -0.1850 ca        1 RRG     -0.133000
      6 CAI         6.0080   -1.5550   -1.1980 ca        1 RRG     -0.146000
      7 CAH         4.8840   -2.0370   -1.8700 ca        1 RRG     -0.140000
      8 CAL         3.6190   -1.5810   -1.5130 ca        1 RRG     -0.126000
      9 CAX         3.4510   -0.6420   -0.4820 cp        1 RRG      0.004000
     10 CAW         2.0860   -0.2280   -0.1500 cp        1 RRG     -0.123000
     11 CAQ         1.2720    0.3550   -1.1330 ca        1 RRG     -0.093000
     12 CAO        -0.0370    0.7270   -0.8530 ca        1 RRG     -0.193500
     13 CAP         1.5600   -0.4380    1.1320 ca        1 RRG     -0.093000
     14 CAN         0.2510   -0.0850    1.4290 ca        1 RRG     -0.193500
     15 CAV        -0.5580    0.4990    0.4320 ca        1 RRG      0.168100
     16 OAS        -1.8250    0.8310    0.8330 os        1 RRG     -0.325900
     17 CBA        -2.8150    1.0310   -0.2030 c3        1 RRG      0.015100
     18 CAT        -2.7790    2.4900   -0.7580 c         1 RRG      0.904600
     19 OAD        -2.2340    2.6380   -1.8890 o         1 RRG     -0.820300
     20 OAC        -3.3260    3.4030   -0.0900 o         1 RRG     -0.820300
     21 CAR        -4.1520    0.7500    0.4770 c3        1 RRG     -0.044100
     22 CAU        -4.6270   -0.6470    0.2900 ca        1 RRG     -0.050300
     23 CAJ        -4.7880   -1.5020    1.3870 ca        1 RRG     -0.131500
     24 CAF        -5.2560   -2.8040    1.2070 ca        1 RRG     -0.137500
     25 CAE        -5.5660   -3.2660   -0.0700 ca        1 RRG     -0.154000
     26 CAG        -5.4060   -2.4220   -1.1690 ca        1 RRG     -0.137500
     27 CAK        -4.9390   -1.1220   -0.9920 ca        1 RRG     -0.131500
     28 H1          4.3290   -0.5310    2.8810 hc        1 RRG      0.031033
     29 H2          6.0160    0.0370    2.5370 hc        1 RRG      0.031033
     30 H3          4.8450    1.1360    3.3780 hc        1 RRG      0.031033
     31 H4          3.3960    1.2020    1.3600 hc        1 RRG      0.083700
     32 H5          6.3570    1.9230    0.8120 hc        1 RRG      0.031033
     33 H6          4.9180    2.5450   -0.0960 hc        1 RRG      0.031033
     34 H7          5.1160    2.9310    1.6650 hc        1 RRG      0.031033
     35 H8          6.7440   -0.2300    0.3380 ha        1 RRG      0.122000
     36 H9          7.0100   -1.9140   -1.4700 ha        1 RRG      0.117000
     37 H10         4.9970   -2.7740   -2.6770 ha        1 RRG      0.120000
     38 H11         2.7280   -1.9570   -2.0390 ha        1 RRG      0.137000
     39 H12         1.6810    0.5330   -2.1390 ha        1 RRG      0.121500
     40 H13        -0.6590    1.2360   -1.6170 ha        1 RRG      0.172000
     41 H14         2.1920   -0.8920    1.9090 ha        1 RRG      0.121500
     42 H15        -0.1660   -0.2480    2.4320 ha        1 RRG      0.172000
     43 H16        -2.6270    0.3090   -1.0420 h1        1 RRG      0.042700
     44 H18        -4.0560    0.9930    1.5690 hc        1 RRG      0.075200
     45 H19        -4.9070    1.4630    0.0450 hc        1 RRG      0.075200
     46 H20        -4.5370   -1.1430    2.3970 ha        1 RRG      0.137500
     47 H21        -5.3760   -3.4670    2.0760 ha        1 RRG      0.116000
     48 H22        -5.9330   -4.2920   -0.2120 ha        1 RRG      0.113000
     49 H23        -5.6460   -2.7840   -2.1790 ha        1 RRG      0.116000
     50 H24        -4.8070   -0.4550   -1.8580 ha        1 RRG      0.137500
@<TRIPOS>BOND
     1    1    2 1   
     2    1   28 1   
     3    1   29 1   
     4    1   30 1   
     5    2    3 1   
     6    2    4 1   
     7    2   31 1   
     8    3   32 1   
     9    3   33 1   
    10    3   34 1   
    11    4    5 ar  
    12    4    9 ar  
    13    5    6 ar  
    14    5   35 1   
    15    6    7 ar  
    16    6   36 1   
    17    7    8 ar  
    18    7   37 1   
    19    8    9 ar  
    20    8   38 1   
    21    9   10 1   
    22   10   11 ar  
    23   10   13 ar  
    24   11   12 ar  
    25   11   39 1   
    26   12   15 ar  
    27   12   40 1   
    28   13   14 ar  
    29   13   41 1   
    30   14   15 ar  
    31   14   42 1   
    32   15   16 1   
    33   16   17 1   
    34   17   18 1   
    35   17   21 1   
    36   17   43 1   
    37   18   19 1   
    38   18   20 1   
    39   21   22 1   
    40   21   44 1   
    41   21   45 1   
    42   22   23 ar  
    43   22   27 ar  
    44   23   24 ar  
    45   23   46 1   
    46   24   25 ar  
    47   24   47 1   
    48   25   26 ar  
    49   25   48 1   
    50   26   27 ar  
    51   26   49 1   
    52   27   50 1   
@<TRIPOS>SUBSTRUCTURE
     1 RRG         1 TEMP              0 ****  ****    0 ROOT
