@<TRIPOS>MOLECULE
RRG
   50    52     1     0     0
SMALL
bcc


@<TRIPOS>ATOM
      1 CAA         0.0960    0.0180    0.4710 c3        1 RRG     -0.083100
      2 CAZ         1.6010   -0.1460    0.3820 c3        1 RRG     -0.034400
      3 CAB         2.1990   -0.3340    1.7640 c3        1 RRG     -0.083100
      4 CAY         1.9640   -1.2850   -0.5220 ca        1 RRG     -0.064300
      5 CAM         1.6030   -2.5890   -0.1520 ca        1 RRG     -0.133000
      6 CAI         1.9470   -3.6820   -0.9410 ca        1 RRG     -0.146000
      7 CAH         2.6670   -3.4850   -2.1190 ca        1 RRG     -0.140000
      8 CAL         3.0260   -2.1970   -2.5020 ca        1 RRG     -0.126000
      9 CAX         2.6720   -1.0840   -1.7210 cp        1 RRG      0.004000
     10 CAW         3.0670    0.2410   -2.2020 cp        1 RRG     -0.123000
     11 CAQ         4.4210    0.5320   -2.4240 ca        1 RRG     -0.093000
     12 CAO         4.8190    1.7710   -2.9110 ca        1 RRG     -0.193500
     13 CAP         2.1060    1.2230   -2.4820 ca        1 RRG     -0.093000
     14 CAN         2.4810    2.4630   -2.9810 ca        1 RRG     -0.193500
     15 CAV         3.8460    2.7420   -3.2020 ca        1 RRG      0.168100
     16 OAS         4.1120    4.0010   -3.6720 os        1 RRG     -0.325900
     17 CBA         5.3960    4.2110   -4.3060 c3        1 RRG      0.015100
     18 CAT         6.5060    4.5400   -3.2580 c         1 RRG      0.904600
     19 OAD         7.3080    3.6020   -2.9890 o         1 RRG     -0.820300
     20 OAC         6.5690    5.7060   -2.7930 o         1 RRG     -0.820300
     21 CAR         5.1770    5.3950   -5.2450 c3        1 RRG     -0.044100
     22 CAU         4.8550    4.9910   -6.6390 ca        1 RRG     -0.050300
     23 CAJ         3.6230    5.3220   -7.2160 ca        1 RRG     -0.131500
     24 CAF         3.3370    4.9600   -8.5310 ca        1 RRG     -0.137500
     25 CAE         4.2780    4.2620   -9.2860 ca        1 RRG     -0.154000
     26 CAG         5.5080    3.9250   -8.7190 ca        1 RRG     -0.137500
     27 CAK         5.7950    4.2870   -7.4050 ca        1 RRG     -0.131500
     28 H1         -0.1550    0.8800    1.1350 hc        1 RRG      0.031033
     29 H2         -0.3330    0.2100   -0.5410 hc        1 RRG      0.031033
     30 H3         -0.3790   -0.9020    0.8890 hc        1 RRG      0.031033
     31 H4          2.0300    0.8080   -0.0460 hc        1 RRG      0.083700
     32 H5          1.7760   -1.2390    2.2630 hc        1 RRG      0.031033
     33 H6          3.3060   -0.4520    1.6930 hc        1 RRG      0.031033
     34 H7          1.9740    0.5570    2.3980 hc        1 RRG      0.031033
     35 H8          1.0420   -2.7470    0.7810 ha        1 RRG      0.122000
     36 H9          1.6560   -4.6960   -0.6340 ha        1 RRG      0.117000
     37 H10         2.9500   -4.3440   -2.7440 ha        1 RRG      0.120000
     38 H11         3.5940   -2.0350   -3.4310 ha        1 RRG      0.137000
     39 H12         5.1820   -0.2290   -2.1960 ha        1 RRG      0.121500
     40 H13         5.8940    2.0150   -3.0340 ha        1 RRG      0.172000
     41 H14         1.0410    1.0040   -2.3090 ha        1 RRG      0.121500
     42 H15         1.7320    3.2340   -3.2020 ha        1 RRG      0.172000
     43 H16         5.6850    3.2890   -4.8770 h1        1 RRG      0.042700
     44 H18         4.3620    6.0410   -4.8210 hc        1 RRG      0.075200
     45 H19         6.1200    6.0080   -5.2400 hc        1 RRG      0.075200
     46 H20         2.8750    5.8670   -6.6200 ha        1 RRG      0.137500
     47 H21         2.3660    5.2230   -8.9720 ha        1 RRG      0.116000
     48 H22         4.0520    3.9760  -10.3220 ha        1 RRG      0.113000
     49 H23         6.2510    3.3710   -9.3090 ha        1 RRG      0.116000
     50 H24         6.7630    4.0180   -6.9530 ha        1 RRG      0.137500
@<TRIPOS>BOND
     1    1    2 1   
     2    1   28 1   
     3    1   29 1   
     4    1   30 1   
     5    2    3 1   
     6    2    4 1   
     7    2   31 1   
     8    3   32 1   
     9    3   33 1   
    10    3   34 1   
    11    4    5 ar  
    12    4    9 ar  
    13    5    6 ar  
    14    5   35 1   
    15    6    7 ar  
    16    6   36 1   
    17    7    8 ar  
    18    7   37 1   
    19    8    9 ar  
    20    8   38 1   
    21    9   10 1   
    22   10   11 ar  
    23   10   13 ar  
    24   11   12 ar  
    25   11   39 1   
    26   12   15 ar  
    27   12   40 1   
    28   13   14 ar  
    29   13   41 1   
    30   14   15 ar  
    31   14   42 1   
    32   15   16 1   
    33   16   17 1   
    34   17   18 1   
    35   17   21 1   
    36   17   43 1   
    37   18   19 1   
    38   18   20 1   
    39   21   22 1   
    40   21   44 1   
    41   21   45 1   
    42   22   23 ar  
    43   22   27 ar  
    44   23   24 ar  
    45   23   46 1   
    46   24   25 ar  
    47   24   47 1   
    48   25   26 ar  
    49   25   48 1   
    50   26   27 ar  
    51   26   49 1   
    52   27   50 1   
@<TRIPOS>SUBSTRUCTURE
     1 RRG         1 TEMP              0 ****  ****    0 ROOT
