@<TRIPOS>MOLECULE
RRG
   50    52     1     0     0
SMALL
bcc


@<TRIPOS>ATOM
      1 CAA         0.0650    0.0300    0.4410 c3        1 RRG     -0.083100
      2 CAZ         1.5730   -0.1240    0.3730 c3        1 RRG     -0.034400
      3 CAB         2.1520   -0.2940    1.7650 c3        1 RRG     -0.083100
      4 CAY         1.9550   -1.2690   -0.5140 ca        1 RRG     -0.064300
      5 CAM         1.5990   -2.5720   -0.1360 ca        1 RRG     -0.133000
      6 CAI         1.9610   -3.6700   -0.9090 ca        1 RRG     -0.146000
      7 CAH         2.6960   -3.4800   -2.0790 ca        1 RRG     -0.140000
      8 CAL         3.0500   -2.1930   -2.4700 ca        1 RRG     -0.126000
      9 CAX         2.6780   -1.0750   -1.7050 cp        1 RRG      0.004000
     10 CAW         3.0700    0.2480   -2.1940 cp        1 RRG     -0.123000
     11 CAQ         4.4250    0.5470   -2.4020 ca        1 RRG     -0.093000
     12 CAO         4.8210    1.7830   -2.8960 ca        1 RRG     -0.193500
     13 CAP         2.1060    1.2200   -2.4960 ca        1 RRG     -0.093000
     14 CAN         2.4790    2.4580   -3.0030 ca        1 RRG     -0.193500
     15 CAV         3.8450    2.7450   -3.2090 ca        1 RRG      0.168100
     16 OAS         4.1090    4.0000   -3.6880 os        1 RRG     -0.325900
     17 CBA         5.3990    4.2130   -4.3080 c3        1 RRG      0.015100
     18 CAT         6.4940    4.5600   -3.2510 c         1 RRG      0.904600
     19 OAD         7.2990    3.6300   -2.9630 o         1 RRG     -0.820300
     20 OAC         6.5430    5.7300   -2.7960 o         1 RRG     -0.820300
     21 CAR         5.1840    5.3860   -5.2610 c3        1 RRG     -0.044100
     22 CAU         4.8700    4.9670   -6.6520 ca        1 RRG     -0.050300
     23 CAJ         3.6390    5.2900   -7.2380 ca        1 RRG     -0.131500
     24 CAF         3.3600    4.9130   -8.5510 ca        1 RRG     -0.137500
     25 CAE         4.3060    4.2090   -9.2940 ca        1 RRG     -0.154000
     26 CAG         5.5340    3.8810   -8.7180 ca        1 RRG     -0.137500
     27 CAK         5.8150    4.2570   -7.4070 ca        1 RRG     -0.131500
     28 H1         -0.2010    0.8970    1.0930 hc        1 RRG      0.031033
     29 H2         -0.4090   -0.8890    0.8610 hc        1 RRG      0.031033
     30 H3         -0.3510    0.2100   -0.5790 hc        1 RRG      0.031033
     31 H4          2.0010    0.8290   -0.0580 hc        1 RRG      0.083700
     32 H5          1.7290   -1.1970    2.2680 hc        1 RRG      0.031033
     33 H6          3.2620   -0.4050    1.7110 hc        1 RRG      0.031033
     34 H7          1.9130    0.6020    2.3870 hc        1 RRG      0.031033
     35 H8          1.0260   -2.7250    0.7910 ha        1 RRG      0.122000
     36 H9          1.6730   -4.6830   -0.5960 ha        1 RRG      0.117000
     37 H10         2.9930   -4.3430   -2.6920 ha        1 RRG      0.120000
     38 H11         3.6300   -2.0360   -3.3930 ha        1 RRG      0.137000
     39 H12         5.1890   -0.2070   -2.1570 ha        1 RRG      0.121500
     40 H13         5.8960    2.0330   -3.0080 ha        1 RRG      0.172000
     41 H14         1.0410    0.9960   -2.3340 ha        1 RRG      0.121500
     42 H15         1.7280    3.2220   -3.2410 ha        1 RRG      0.172000
     43 H16         5.7010    3.2870   -4.8670 h1        1 RRG      0.042700
     44 H18         4.3670    6.0370   -4.8480 hc        1 RRG      0.075700
     45 H19         6.1270    6.0000   -5.2580 hc        1 RRG      0.075700
     46 H20         2.8870    5.8380   -6.6520 ha        1 RRG      0.137000
     47 H21         2.3900    5.1690   -8.9990 ha        1 RRG      0.116500
     48 H22         4.0850    3.9120  -10.3280 ha        1 RRG      0.113000
     49 H23         6.2810    3.3220   -9.2990 ha        1 RRG      0.116500
     50 H24         6.7810    3.9950   -6.9480 ha        1 RRG      0.137000
@<TRIPOS>BOND
     1    1    2 1   
     2    1   28 1   
     3    1   29 1   
     4    1   30 1   
     5    2    3 1   
     6    2    4 1   
     7    2   31 1   
     8    3   32 1   
     9    3   33 1   
    10    3   34 1   
    11    4    5 ar  
    12    4    9 ar  
    13    5    6 ar  
    14    5   35 1   
    15    6    7 ar  
    16    6   36 1   
    17    7    8 ar  
    18    7   37 1   
    19    8    9 ar  
    20    8   38 1   
    21    9   10 1   
    22   10   11 ar  
    23   10   13 ar  
    24   11   12 ar  
    25   11   39 1   
    26   12   15 ar  
    27   12   40 1   
    28   13   14 ar  
    29   13   41 1   
    30   14   15 ar  
    31   14   42 1   
    32   15   16 1   
    33   16   17 1   
    34   17   18 1   
    35   17   21 1   
    36   17   43 1   
    37   18   19 1   
    38   18   20 1   
    39   21   22 1   
    40   21   44 1   
    41   21   45 1   
    42   22   23 ar  
    43   22   27 ar  
    44   23   24 ar  
    45   23   46 1   
    46   24   25 ar  
    47   24   47 1   
    48   25   26 ar  
    49   25   48 1   
    50   26   27 ar  
    51   26   49 1   
    52   27   50 1   
@<TRIPOS>SUBSTRUCTURE
     1 RRG         1 TEMP              0 ****  ****    0 ROOT
