@<TRIPOS>MOLECULE
RRH
   50    52     1     0     0
SMALL
bcc


@<TRIPOS>ATOM
      1 CAA         4.5920    2.0640    1.5620 c3        1 RRH     -0.083600
      2 CAZ         4.3180    1.4830    0.1880 c3        1 RRH     -0.035400
      3 CAB         5.1910    2.1540   -0.8560 c3        1 RRH     -0.083600
      4 CAY         4.5180   -0.0020    0.1850 ca        1 RRH     -0.061300
      5 CAM         5.8040   -0.5160    0.4050 ca        1 RRH     -0.133000
      6 CAI         6.0460   -1.8860    0.3830 ca        1 RRH     -0.146000
      7 CAH         4.9950   -2.7690    0.1350 ca        1 RRH     -0.142000
      8 CAL         3.7130   -2.2750   -0.0770 ca        1 RRH     -0.128000
      9 CAX         3.4540   -0.8940   -0.0460 cp        1 RRH      0.003000
     10 CAW         2.0750   -0.4520   -0.2610 cp        1 RRH     -0.123000
     11 CAQ         1.4100   -0.7940   -1.4470 ca        1 RRH     -0.092500
     12 CAO         0.0920   -0.4120   -1.6580 ca        1 RRH     -0.193500
     13 CAP         1.3890    0.2850    0.7150 ca        1 RRH     -0.092500
     14 CAN         0.0700    0.6770    0.5240 ca        1 RRH     -0.193500
     15 CAV        -0.5890    0.3250   -0.6660 ca        1 RRH      0.168100
     16 OAS        -1.8770    0.6670   -0.9800 os        1 RRH     -0.325900
     17 CBA        -2.7410    1.0610    0.1110 c3        1 RRH      0.015100
     18 CAT        -2.5730    2.5720    0.4630 c         1 RRH      0.904600
     19 OAD        -3.1320    3.4280   -0.2680 o         1 RRH     -0.820300
     20 OAC        -1.9130    2.8270    1.5100 o         1 RRH     -0.820300
     21 CAR        -4.1550    0.7850   -0.3940 c3        1 RRH     -0.044100
     22 CAU        -4.6700   -0.5560   -0.0080 ca        1 RRH     -0.050300
     23 CAJ        -4.8680   -0.8740    1.3430 ca        1 RRH     -0.131500
     24 CAF        -5.3710   -2.1200    1.7080 ca        1 RRH     -0.137500
     25 CAE        -5.6820   -3.0660    0.7310 ca        1 RRH     -0.154000
     26 CAG        -5.4860   -2.7580   -0.6150 ca        1 RRH     -0.137500
     27 CAK        -4.9820   -1.5110   -0.9830 ca        1 RRH     -0.131500
     28 H1          3.9090    1.6070    2.3180 hc        1 RRH      0.031533
     29 H2          5.6470    1.8710    1.8730 hc        1 RRH      0.031533
     30 H3          4.4210    3.1680    1.5500 hc        1 RRH      0.031533
     31 H4          3.2420    1.7070   -0.0740 hc        1 RRH      0.086700
     32 H5          4.9890    1.7220   -1.8650 hc        1 RRH      0.031533
     33 H6          4.9710    3.2480   -0.8850 hc        1 RRH      0.031533
     34 H7          6.2740    2.0180   -0.6210 hc        1 RRH      0.031533
     35 H8          6.6350    0.1790    0.5960 ha        1 RRH      0.123000
     36 H9          7.0610   -2.2690    0.5580 ha        1 RRH      0.117000
     37 H10         5.1790   -3.8530    0.1120 ha        1 RRH      0.119000
     38 H11         2.8800   -2.9670   -0.2690 ha        1 RRH      0.134000
     39 H12         1.9400   -1.3710   -2.2190 ha        1 RRH      0.121000
     40 H13        -0.4290   -0.6690   -2.5900 ha        1 RRH      0.171500
     41 H14         1.9070    0.5640    1.6460 ha        1 RRH      0.121000
     42 H15        -0.4520    1.2980    1.2800 ha        1 RRH      0.171500
     43 H16        -2.5060    0.4380    1.0150 h1        1 RRH      0.042700
     44 H18        -4.8260    1.5810    0.0330 hc        1 RRH      0.075200
     45 H19        -4.1660    0.9090   -1.5100 hc        1 RRH      0.075200
     46 H20        -4.6170   -0.1280    2.1130 ha        1 RRH      0.137500
     47 H21        -5.5210   -2.3600    2.7710 ha        1 RRH      0.116000
     48 H22        -6.0780   -4.0490    1.0200 ha        1 RRH      0.113000
     49 H23        -5.7250   -3.5010   -1.3880 ha        1 RRH      0.116000
     50 H24        -4.8210   -1.2750   -2.0450 ha        1 RRH      0.137500
@<TRIPOS>BOND
     1    1    2 1   
     2    1   28 1   
     3    1   29 1   
     4    1   30 1   
     5    2    3 1   
     6    2    4 1   
     7    2   31 1   
     8    3   32 1   
     9    3   33 1   
    10    3   34 1   
    11    4    5 ar  
    12    4    9 ar  
    13    5    6 ar  
    14    5   35 1   
    15    6    7 ar  
    16    6   36 1   
    17    7    8 ar  
    18    7   37 1   
    19    8    9 ar  
    20    8   38 1   
    21    9   10 1   
    22   10   11 ar  
    23   10   13 ar  
    24   11   12 ar  
    25   11   39 1   
    26   12   15 ar  
    27   12   40 1   
    28   13   14 ar  
    29   13   41 1   
    30   14   15 ar  
    31   14   42 1   
    32   15   16 1   
    33   16   17 1   
    34   17   18 1   
    35   17   21 1   
    36   17   43 1   
    37   18   19 1   
    38   18   20 1   
    39   21   22 1   
    40   21   44 1   
    41   21   45 1   
    42   22   23 ar  
    43   22   27 ar  
    44   23   24 ar  
    45   23   46 1   
    46   24   25 ar  
    47   24   47 1   
    48   25   26 ar  
    49   25   48 1   
    50   26   27 ar  
    51   26   49 1   
    52   27   50 1   
@<TRIPOS>SUBSTRUCTURE
     1 RRH         1 TEMP              0 ****  ****    0 ROOT
