@<TRIPOS>MOLECULE
RRH
   50    42     1     0     0
SMALL
bcc


@<TRIPOS>ATOM
      1 CAA         0.4650   -3.4610    1.1790 c3        1 RRH     -0.201500
      2 CAZ        -0.3600   -3.1980   -0.0620 c3        1 RRH     -0.080000
      3 CAB         0.0250   -4.1870   -1.1420 c3        1 RRH     -0.201500
      4 CAY        -1.8290   -3.3560    0.2660 c2        1 RRH     -0.057000
      5 CAM        -2.3220   -4.5890    0.6630 c2        1 RRH     -0.133000
      6 CAI        -3.6610   -4.7260    0.9940 c1        1 RRH     -0.146000
      7 CAH        -4.5070   -3.6310    0.9280 c1        1 RRH     -0.140167
      8 CAL        -4.0140   -2.3970    0.5300 c1        1 RRH     -0.140167
      9 CAX        -2.6750   -2.2600    0.2000 c1        1 RRH      0.002000
     10 CAW        -2.1220   -0.8990   -0.1650 c1        1 RRH     -0.000500
     11 CAQ        -2.1260   -0.4800   -1.4860 c1        1 RRH     -0.140167
     12 CAO        -1.6560    0.7810   -1.8150 c1        1 RRH     -0.140167
     13 CAP        -1.6490   -0.0550    0.8280 c1        1 RRH     -0.144500
     14 CAN        -1.1780    1.2070    0.4990 c1        1 RRH     -0.144500
     15 CAV        -1.1820    1.6250   -0.8220 c1        1 RRH     -0.000500
     16 OAS        -0.6900    2.8970   -1.1580 o         1 RRH     -0.212000
     17 CBA         0.7110    2.9560   -1.2660 c3        1 RRH     -0.041000
     18 CAT         1.1040    2.9710   -2.7260 c1        1 RRH      0.326000
     19 OAD         2.0940    2.2990   -3.1190 os        1 RRH     -0.565000
     20 OAC         0.4610    3.6790   -3.5440 o         1 RRH     -0.551000
     21 CAR         1.2160    4.2140   -0.5950 c3        1 RRH     -0.133000
     22 CAU         2.4440    3.8880    0.2290 c2        1 RRH     -0.047000
     23 CAJ         2.3040    3.4530    1.5370 c2        1 RRH     -0.142000
     24 CAF         3.4280    3.2240    2.3160 c1        1 RRH     -0.148000
     25 CAE         4.6910    3.4320    1.7870 c1        1 RRH     -0.140167
     26 CAG         4.8320    3.8680    0.4780 c1        1 RRH     -0.140167
     27 CAK         3.7080    4.0960   -0.3010 c1        1 RRH     -0.111000
     28 H1          0.0480   -3.0190    1.9480 hc        1 RRH      0.070833
     29 H2          0.5120   -4.4260    1.3420 hc        1 RRH      0.070833
     30 H3          1.3700   -3.1070    1.0500 hc        1 RRH      0.070833
     31 H4         -0.1920   -2.2900   -0.3780 hc        1 RRH      0.120000
     32 H5          0.2850   -5.0370   -0.7290 hc        1 RRH      0.070833
     33 H6          0.7780   -3.8300   -1.6590 hc        1 RRH      0.070833
     34 H7         -0.7390   -4.3340   -1.7380 hc        1 RRH      0.070833
     35 H8         -1.7240   -5.3580    0.7200 ha        1 RRH      0.122000
     36 H9         -4.0030   -5.5890    1.2960 ha        1 RRH      0.118000
     37 H10        -5.4500   -3.7270    1.1610 ha        1 RRH      0.137833
     38 H11        -4.6100   -1.6260    0.4840 ha        1 RRH      0.137833
     39 H12        -2.4600   -1.0740   -2.1850 ha        1 RRH      0.137833
     40 H13        -1.6580    1.0760   -2.7460 ha        1 RRH      0.137833
     41 H14        -1.6520   -0.3470    1.7590 ha        1 RRH      0.125500
     42 H15        -0.8440    1.8010    1.1980 ha        1 RRH      0.125500
     43 H16         1.1050    2.1740   -0.8300 h1        1 RRH      0.082000
     44 H18         0.5190    4.5750   -0.0120 hc        1 RRH      0.103000
     45 H19         1.4480    4.8760   -1.2770 hc        1 RRH      0.103000
     46 H20         1.4130    3.3060    1.9100 ha        1 RRH      0.120000
     47 H21         3.3290    2.9180    3.2380 ha        1 RRH      0.110000
     48 H22         5.4830    3.2710    2.3350 ha        1 RRH      0.137833
     49 H23         5.7220    4.0140    0.1050 ha        1 RRH      0.137833
     50 H24         3.8070    4.4030   -1.2220 ha        1 RRH      0.189000
@<TRIPOS>BOND
     1    1    2 1   
     2    1   28 1   
     3    1   29 1   
     4    1   30 1   
     5    2    3 1   
     6    2    4 1   
     7    2   31 1   
     8    3   32 1   
     9    3   33 1   
    10    3   34 1   
    11    4    5 1   
    12    4    9 1   
    13    5    6 1   
    14    5   35 1   
    15    6   36 1   
    16    7    8 1   
    17    7   37 1   
    18    8   38 1   
    19   10   13 1   
    20   11   12 1   
    21   11   39 1   
    22   12   40 1   
    23   13   41 1   
    24   14   15 1   
    25   14   42 1   
    26   16   17 1   
    27   17   18 1   
    28   17   21 1   
    29   17   43 1   
    30   18   20 1   
    31   21   22 1   
    32   21   44 1   
    33   21   45 1   
    34   22   23 1   
    35   22   27 1   
    36   23   24 1   
    37   23   46 1   
    38   24   47 1   
    39   25   26 1   
    40   25   48 1   
    41   26   49 1   
    42   27   50 1   
@<TRIPOS>SUBSTRUCTURE
     1 RRH         1 TEMP              0 ****  ****    0 ROOT
