@<TRIPOS>MOLECULE
RRH
   50    52     1     0     0
SMALL
bcc


@<TRIPOS>ATOM
      1 CAA         0.0330   -0.1290    0.4200 c3        1 RRH     -0.083600
      2 CAZ         1.5480   -0.1890    0.3760 c3        1 RRH     -0.035400
      3 CAB         2.1150   -0.3190    1.7770 c3        1 RRH     -0.083600
      4 CAY         2.0140   -1.3120   -0.5010 ca        1 RRH     -0.061300
      5 CAM         1.7380   -2.6330   -0.1200 ca        1 RRH     -0.133000
      6 CAI         2.1750   -3.7090   -0.8850 ca        1 RRH     -0.146000
      7 CAH         2.9030   -3.4780   -2.0510 ca        1 RRH     -0.142000
      8 CAL         3.1790   -2.1730   -2.4450 ca        1 RRH     -0.128000
      9 CAX         2.7330   -1.0770   -1.6870 cp        1 RRH      0.003000
     10 CAW         3.0470    0.2670   -2.1770 cp        1 RRH     -0.123000
     11 CAQ         4.3830    0.6410   -2.3790 ca        1 RRH     -0.092500
     12 CAO         4.7020    1.8990   -2.8720 ca        1 RRH     -0.193500
     13 CAP         2.0310    1.1830   -2.4830 ca        1 RRH     -0.092500
     14 CAN         2.3280    2.4470   -2.9790 ca        1 RRH     -0.193500
     15 CAV         3.6710    2.8100   -3.1810 ca        1 RRH      0.168100
     16 OAS         4.0920    4.0280   -3.6430 os        1 RRH     -0.325900
     17 CBA         3.1200    4.8440   -4.3370 c3        1 RRH      0.015100
     18 CAT         2.2520    5.6780   -3.3430 c         1 RRH      0.904600
     19 OAD         2.7450    6.7200   -2.8400 o         1 RRH     -0.820300
     20 OAC         1.0750    5.2620   -3.1520 o         1 RRH     -0.820300
     21 CAR         3.9510    5.7680   -5.2250 c3        1 RRH     -0.044100
     22 CAU         4.1480    5.2440   -6.6020 ca        1 RRH     -0.050300
     23 CAJ         3.0490    5.0710   -7.4560 ca        1 RRH     -0.131500
     24 CAF         3.2310    4.6020   -8.7550 ca        1 RRH     -0.137500
     25 CAE         4.5110    4.2990   -9.2190 ca        1 RRH     -0.154000
     26 CAG         5.6090    4.4650   -8.3760 ca        1 RRH     -0.137500
     27 CAK         5.4290    4.9340   -7.0750 ca        1 RRH     -0.131500
     28 H1         -0.3910   -1.0740    0.8370 hc        1 RRH      0.031533
     29 H2         -0.2960    0.7230    1.0620 hc        1 RRH      0.031533
     30 H3         -0.3780    0.0220   -0.6080 hc        1 RRH      0.031533
     31 H4          1.9210    0.7880   -0.0520 hc        1 RRH      0.086700
     32 H5          1.7360   -1.2410    2.2800 hc        1 RRH      0.031533
     33 H6          1.8150    0.5660    2.3890 hc        1 RRH      0.031533
     34 H7          3.2290   -0.3660    1.7410 hc        1 RRH      0.031533
     35 H8          1.1670   -2.8170    0.8020 ha        1 RRH      0.123000
     36 H9          1.9470   -4.7370   -0.5710 ha        1 RRH      0.117000
     37 H10         3.2560   -4.3230   -2.6590 ha        1 RRH      0.119000
     38 H11         3.7500   -1.9840   -3.3670 ha        1 RRH      0.134000
     39 H12         5.1870   -0.0710   -2.1400 ha        1 RRH      0.121000
     40 H13         5.7480    2.2000   -3.0210 ha        1 RRH      0.171500
     41 H14         0.9790    0.9000   -2.3210 ha        1 RRH      0.121000
     42 H15         1.5230    3.1830   -3.1760 ha        1 RRH      0.171500
     43 H16         2.4520    4.1840   -4.9530 h1        1 RRH      0.042700
     44 H18         4.9390    5.9500   -4.7240 hc        1 RRH      0.075200
     45 H19         3.4170    6.7570   -5.2730 hc        1 RRH      0.075200
     46 H20         2.0390    5.3070   -7.0870 ha        1 RRH      0.137500
     47 H21         2.3620    4.4680   -9.4150 ha        1 RRH      0.116000
     48 H22         4.6530    3.9280  -10.2430 ha        1 RRH      0.113000
     49 H23         6.6190    4.2230   -8.7350 ha        1 RRH      0.116000
     50 H24         6.2960    5.0570   -6.4100 ha        1 RRH      0.137500
@<TRIPOS>BOND
     1    1    2 1   
     2    1   28 1   
     3    1   29 1   
     4    1   30 1   
     5    2    3 1   
     6    2    4 1   
     7    2   31 1   
     8    3   32 1   
     9    3   33 1   
    10    3   34 1   
    11    4    5 ar  
    12    4    9 ar  
    13    5    6 ar  
    14    5   35 1   
    15    6    7 ar  
    16    6   36 1   
    17    7    8 ar  
    18    7   37 1   
    19    8    9 ar  
    20    8   38 1   
    21    9   10 1   
    22   10   11 ar  
    23   10   13 ar  
    24   11   12 ar  
    25   11   39 1   
    26   12   15 ar  
    27   12   40 1   
    28   13   14 ar  
    29   13   41 1   
    30   14   15 ar  
    31   14   42 1   
    32   15   16 1   
    33   16   17 1   
    34   17   18 1   
    35   17   21 1   
    36   17   43 1   
    37   18   19 1   
    38   18   20 1   
    39   21   22 1   
    40   21   44 1   
    41   21   45 1   
    42   22   23 ar  
    43   22   27 ar  
    44   23   24 ar  
    45   23   46 1   
    46   24   25 ar  
    47   24   47 1   
    48   25   26 ar  
    49   25   48 1   
    50   26   27 ar  
    51   26   49 1   
    52   27   50 1   
@<TRIPOS>SUBSTRUCTURE
     1 RRH         1 TEMP              0 ****  ****    0 ROOT
