@<TRIPOS>MOLECULE
RRH
   50    52     1     0     0
SMALL
bcc


@<TRIPOS>ATOM
      1 CAA         0.0500   -0.1250    0.4370 c3        1 RRH     -0.083600
      2 CAZ         1.5660   -0.1710    0.3930 c3        1 RRH     -0.035400
      3 CAB         2.1350   -0.2830    1.7950 c3        1 RRH     -0.083600
      4 CAY         2.0430   -1.2970   -0.4750 ca        1 RRH     -0.061300
      5 CAM         1.7800   -2.6170   -0.0820 ca        1 RRH     -0.133000
      6 CAI         2.2260   -3.6960   -0.8390 ca        1 RRH     -0.146000
      7 CAH         2.9520   -3.4670   -2.0070 ca        1 RRH     -0.142000
      8 CAL         3.2150   -2.1630   -2.4120 ca        1 RRH     -0.128000
      9 CAX         2.7590   -1.0650   -1.6630 cp        1 RRH      0.003000
     10 CAW         3.0600    0.2770   -2.1650 cp        1 RRH     -0.123000
     11 CAQ         4.3930    0.6620   -2.3700 ca        1 RRH     -0.092500
     12 CAO         4.6990    1.9190   -2.8750 ca        1 RRH     -0.193500
     13 CAP         2.0350    1.1810   -2.4780 ca        1 RRH     -0.092500
     14 CAN         2.3200    2.4430   -2.9850 ca        1 RRH     -0.193500
     15 CAV         3.6590    2.8170   -3.1910 ca        1 RRH      0.168100
     16 OAS         4.0680    4.0350   -3.6630 os        1 RRH     -0.325900
     17 CBA         3.0880    4.8360   -4.3650 c3        1 RRH      0.015100
     18 CAT         2.2130    5.6700   -3.3770 c         1 RRH      0.904600
     19 OAD         2.6960    6.7210   -2.8840 o         1 RRH     -0.820300
     20 OAC         1.0400    5.2450   -3.1820 o         1 RRH     -0.820300
     21 CAR         3.9100    5.7600   -5.2600 c3        1 RRH     -0.044100
     22 CAU         4.1140    5.2240   -6.6320 ca        1 RRH     -0.050300
     23 CAJ         3.0190    5.0320   -7.4860 ca        1 RRH     -0.131500
     24 CAF         3.2080    4.5520   -8.7800 ca        1 RRH     -0.137500
     25 CAE         4.4920    4.2570   -9.2390 ca        1 RRH     -0.154000
     26 CAG         5.5870    4.4440   -8.3960 ca        1 RRH     -0.137500
     27 CAK         5.4000    4.9240   -7.1000 ca        1 RRH     -0.131500
     28 H1         -0.3640   -1.0710    0.8620 hc        1 RRH      0.031533
     29 H2         -0.2860    0.7300    1.0720 hc        1 RRH      0.031533
     30 H3         -0.3620    0.0130   -0.5920 hc        1 RRH      0.031533
     31 H4          1.9300    0.8060   -0.0440 hc        1 RRH      0.086700
     32 H5          1.7650   -1.2050    2.3050 hc        1 RRH      0.031533
     33 H6          1.8270    0.6040    2.3990 hc        1 RRH      0.031533
     34 H7          3.2500   -0.3200    1.7590 hc        1 RRH      0.031533
     35 H8          1.2100   -2.7990    0.8420 ha        1 RRH      0.123000
     36 H9          2.0090   -4.7230   -0.5150 ha        1 RRH      0.117000
     37 H10         3.3130   -4.3140   -2.6080 ha        1 RRH      0.119000
     38 H11         3.7840   -1.9770   -3.3360 ha        1 RRH      0.134000
     39 H12         5.2030   -0.0400   -2.1260 ha        1 RRH      0.121000
     40 H13         5.7420    2.2290   -3.0270 ha        1 RRH      0.171500
     41 H14         0.9860    0.8890   -2.3140 ha        1 RRH      0.121000
     42 H15         1.5080    3.1700   -3.1880 ha        1 RRH      0.171500
     43 H16         2.4260    4.1640   -4.9740 h1        1 RRH      0.042700
     44 H18         4.8950    5.9580   -4.7600 hc        1 RRH      0.075200
     45 H19         3.3650    6.7430   -5.3190 hc        1 RRH      0.075200
     46 H20         2.0060    5.2600   -7.1210 ha        1 RRH      0.137500
     47 H21         2.3420    4.4020   -9.4400 ha        1 RRH      0.116000
     48 H22         4.6400    3.8780  -10.2590 ha        1 RRH      0.113000
     49 H23         6.6000    4.2090   -8.7510 ha        1 RRH      0.116000
     50 H24         6.2650    5.0630   -6.4350 ha        1 RRH      0.137500
@<TRIPOS>BOND
     1    1    2 1   
     2    1   28 1   
     3    1   29 1   
     4    1   30 1   
     5    2    3 1   
     6    2    4 1   
     7    2   31 1   
     8    3   32 1   
     9    3   33 1   
    10    3   34 1   
    11    4    5 ar  
    12    4    9 ar  
    13    5    6 ar  
    14    5   35 1   
    15    6    7 ar  
    16    6   36 1   
    17    7    8 ar  
    18    7   37 1   
    19    8    9 ar  
    20    8   38 1   
    21    9   10 1   
    22   10   11 ar  
    23   10   13 ar  
    24   11   12 ar  
    25   11   39 1   
    26   12   15 ar  
    27   12   40 1   
    28   13   14 ar  
    29   13   41 1   
    30   14   15 ar  
    31   14   42 1   
    32   15   16 1   
    33   16   17 1   
    34   17   18 1   
    35   17   21 1   
    36   17   43 1   
    37   18   19 1   
    38   18   20 1   
    39   21   22 1   
    40   21   44 1   
    41   21   45 1   
    42   22   23 ar  
    43   22   27 ar  
    44   23   24 ar  
    45   23   46 1   
    46   24   25 ar  
    47   24   47 1   
    48   25   26 ar  
    49   25   48 1   
    50   26   27 ar  
    51   26   49 1   
    52   27   50 1   
@<TRIPOS>SUBSTRUCTURE
     1 RRH         1 TEMP              0 ****  ****    0 ROOT
