@<TRIPOS>MOLECULE
RRO
   14    14     1     0     0
SMALL
bcc


@<TRIPOS>ATOM
      1 OAA         0.8610    2.5130   -1.0960 o         1 RRO     -0.770300
      2 CAH         0.4370    2.1460    0.0220 c         1 RRO      0.923800
      3 OAD         0.5580    2.7090    1.1320 o         1 RRO     -0.770300
      4 CAI        -0.4450    0.8460    0.0170 cc        1 RRO      0.093400
      5 CAJ         0.0370   -0.4330    0.1950 cd        1 RRO     -0.284500
      6 BR          1.8500   -0.7450    0.4680 br        1 RRO     -0.041700
      7 CAL        -0.8730   -1.5790    0.1720 c         1 RRO      0.733700
      8 OAC        -0.5830   -2.7820    0.3170 o         1 RRO     -0.653500
      9 NAG        -2.2400   -1.2890   -0.0390 n         1 RRO     -0.590500
     10 CAK        -2.7220    0.0120   -0.2190 c         1 RRO      0.792500
     11 OAB        -3.9450    0.2310   -0.4040 o         1 RRO     -0.691500
     12 NAF        -1.7920    1.0640   -0.1850 n         1 RRO     -0.434100
     13 H3         -2.9010   -2.0320   -0.0640 hn        1 RRO      0.333500
     14 H2         -2.1300    1.9920   -0.3130 hn        1 RRO      0.358500
@<TRIPOS>BOND
     1    1    2 1   
     2    2    3 1   
     3    2    4 1   
     4    4    5 2   
     5    4   12 1   
     6    5    6 1   
     7    5    7 1   
     8    7    8 2   
     9    7    9 1   
    10    9   10 1   
    11    9   13 1   
    12   10   11 2   
    13   10   12 1   
    14   12   14 1   
@<TRIPOS>SUBSTRUCTURE
     1 RRO         1 TEMP              0 ****  ****    0 ROOT
