@<TRIPOS>MOLECULE
RRO
   14    12     1     0     0
SMALL
bcc


@<TRIPOS>ATOM
      1 OAA        -2.4390   -0.0790    2.0880 o         1 RRO     -0.738500
      2 CAH        -1.1800   -0.0790    2.0880 c1        1 RRO      0.841000
      3 OAD        -0.5510   -0.0790    3.1780 o         1 RRO     -0.738500
      4 CAI        -0.4240   -0.0790    0.7780 c1        1 RRO      0.116200
      5 CAJ         0.0150    1.1910    0.1820 cg        1 RRO     -0.360200
      6 BR         -0.5880    2.8500    0.9160 br        1 RRO      0.084000
      7 CAL         0.7500    1.1850   -1.0920 c         1 RRO      0.647300
      8 OAC         1.1150    2.2320   -1.5880 o         1 RRO     -0.617100
      9 NAG         1.0320   -0.0450   -1.7390 n         1 RRO     -0.590500
     10 CAK         0.5930   -1.3030   -1.1410 c         1 RRO      0.756100
     11 OAB         0.7330   -2.3460   -1.7490 o         1 RRO     -0.655100
     12 NAF        -0.1360   -1.3040    0.1210 n         1 RRO     -0.437700
     13 H3          1.4880   -0.0500   -2.5290 hn        1 RRO      0.333500
     14 H2         -0.4070   -2.0930    0.4890 hn        1 RRO      0.358500
@<TRIPOS>BOND
     1    1    2 2   
     2    2    3 2   
     3    4    5 3   
     4    4   12 1   
     5    5    7 1   
     6    7    8 2   
     7    7    9 1   
     8    9   10 1   
     9    9   13 1   
    10   10   11 2   
    11   10   12 1   
    12   12   14 1   
@<TRIPOS>SUBSTRUCTURE
     1 RRO         1 TEMP              0 ****  ****    0 ROOT
