@<TRIPOS>MOLECULE
RRO
   14    14     1     0     0
SMALL
bcc


@<TRIPOS>ATOM
      1 OAA         0.9070   -1.0620    0.5080 o         1 RRO     -0.769800
      2 CAH         1.3340    0.0430    0.1070 c         1 RRO      0.923800
      3 OAD         1.3460    1.1430    0.7020 o         1 RRO     -0.769800
      4 CAI         2.0300    0.0280   -1.3010 cc        1 RRO      0.093400
      5 CAJ         1.3880    0.2580   -2.4980 cd        1 RRO     -0.284500
      6 Br         -0.4350    0.6230   -2.5550 br        1 RRO     -0.041700
      7 CAL         2.1320    0.2210   -3.7580 c         1 RRO      0.733700
      8 OAC         1.6890    0.4080   -4.9080 o         1 RRO     -0.653500
      9 NAG         3.5140   -0.0600   -3.6610 ns        1 RRO     -0.590500
     10 CAK         4.1590   -0.2930   -2.4420 c         1 RRO      0.792500
     11 OAB         5.3890   -0.5390   -2.3950 o         1 RRO     -0.691500
     12 NAF         3.3820   -0.2410   -1.2730 ns        1 RRO     -0.434100
     13 H3          4.0660   -0.0970   -4.4880 hn        1 RRO      0.333500
     14 H2          3.8360   -0.4060   -0.4020 hn        1 RRO      0.358500
@<TRIPOS>BOND
     1    1    2 1   
     2    2    3 1   
     3    2    4 1   
     4    4    5 2   
     5    4   12 1   
     6    5    6 1   
     7    5    7 1   
     8    7    8 2   
     9    7    9 1   
    10    9   10 1   
    11    9   13 1   
    12   10   11 2   
    13   10   12 1   
    14   12   14 1   
@<TRIPOS>SUBSTRUCTURE
     1 RRO         1 TEMP              0 ****  ****    0 ROOT
