@<TRIPOS>MOLECULE
RRO
   14    14     1     0     0
SMALL
bcc


@<TRIPOS>ATOM
      1 OAA         0.9530   -1.0910    0.5240 o         1 RRO     -0.770300
      2 CAH         1.3150    0.0280    0.0970 c         1 RRO      0.923800
      3 OAD         1.2540    1.1420    0.6620 o         1 RRO     -0.770300
      4 CAI         2.0220    0.0190   -1.3050 cc        1 RRO      0.093400
      5 CAJ         1.3790    0.1810   -2.5130 cd        1 RRO     -0.284500
      6 BR         -0.4620    0.4340   -2.5920 br        1 RRO     -0.041700
      7 CAL         2.1350    0.1570   -3.7650 c         1 RRO      0.733700
      8 OAC         1.6920    0.2880   -4.9230 o         1 RRO     -0.653500
      9 NAG         3.5300   -0.0390   -3.6510 n         1 RRO     -0.590500
     10 CAK         4.1770   -0.2030   -2.4220 c         1 RRO      0.792500
     11 OAB         5.4190   -0.3740   -2.3600 o         1 RRO     -0.691500
     12 NAF         3.3880   -0.1680   -1.2600 n         1 RRO     -0.434100
     13 H3          4.0900   -0.0640   -4.4730 hn        1 RRO      0.333500
     14 H2          3.8440   -0.2840   -0.3820 hn        1 RRO      0.358500
@<TRIPOS>BOND
     1    1    2 1   
     2    2    3 1   
     3    2    4 1   
     4    4    5 2   
     5    4   12 1   
     6    5    6 1   
     7    5    7 1   
     8    7    8 2   
     9    7    9 1   
    10    9   10 1   
    11    9   13 1   
    12   10   11 2   
    13   10   12 1   
    14   12   14 1   
@<TRIPOS>SUBSTRUCTURE
     1 RRO         1 TEMP              0 ****  ****    0 ROOT
