@<TRIPOS>MOLECULE
RRP
   49    52     1     0     0
SMALL
bcc


@<TRIPOS>ATOM
      1 N29         1.7360   -1.3500    8.3160 n2        1 RRP     -0.837100
      2 C28         1.5140   -0.2370    7.6790 ce        1 RRP      0.640800
      3 N30         2.3140    0.9050    7.8890 nh        1 RRP     -0.894800
      4 C27         0.3720   -0.0260    6.7320 ca        1 RRP     -0.202900
      5 C26         0.1460   -0.9630    5.7190 ca        1 RRP     -0.105000
      6 C24        -0.9240   -0.7940    4.8380 ca        1 RRP     -0.127300
      7 C22        -1.7690    0.3140    4.9730 ca        1 RRP     -0.097000
      8 C23        -1.5410    1.2450    5.9840 ca        1 RRP     -0.136000
      9 C25        -0.4710    1.0800    6.8640 ca        1 RRP     -0.089000
     10 C21        -1.1990   -1.8130    3.7670 c3        1 RRP      0.133300
     11 N2         -0.8810   -1.3980    2.4170 n         1 RRP     -0.456800
     12 C8         -1.8210   -0.7090    1.6630 c         1 RRP      0.690500
     13 O1         -2.9950   -0.5640    2.0540 o         1 RRP     -0.639500
     14 C4         -1.4440   -0.2030    0.2650 c3        1 RRP      0.153800
     15 N1         -0.0390   -0.0710    0.0070 n3        1 RRP     -0.812500
     16 C7          0.7710   -1.1220    0.5600 c3        1 RRP      0.208800
     17 C2          0.5180   -1.3460    2.0660 c3        1 RRP      0.078000
     18 S4          0.5860    1.1920   -0.8250 sy        1 RRP      1.537800
     19 O8         -0.1890    2.3440   -0.5840 o         1 RRP     -0.645300
     20 O9          1.9660    1.2770   -0.5520 o         1 RRP     -0.645300
     21 C1          0.3670    0.7490   -2.4240 cc        1 RRP     -0.451500
     22 C3         -0.6330    1.3330   -3.1880 cd        1 RRP      0.019800
     23 C6         -0.6410    0.8560   -4.5330 ca        1 RRP     -0.119800
     24 C5          0.3940   -0.1040   -4.7350 ca        1 RRP     -0.074100
     25 S2          1.2640   -0.3340   -3.3340 ss        1 RRP      0.221500
     26 C10         0.5590   -0.7010   -5.9970 ca        1 RRP     -0.107000
     27 C14        -0.2990   -0.3370   -7.0210 ca        1 RRP      0.050400
     28 CL         -0.1240   -1.0430   -8.5560 cl        1 RRP     -0.078400
     29 C15        -1.3280    0.6190   -6.8250 ca        1 RRP     -0.138000
     30 C11        -1.4980    1.2100   -5.5920 ca        1 RRP     -0.057000
     31 H29         1.0440   -2.0510    8.1650 hn        1 RRP      0.393400
     32 H301        3.1670    0.7470    8.3800 hn        1 RRP      0.399800
     33 H302        2.4220    1.4660    7.0730 hn        1 RRP      0.399800
     34 H26         0.8110   -1.8350    5.6170 ha        1 RRP      0.135000
     35 H22        -2.6120    0.4380    4.2720 ha        1 RRP      0.161000
     36 H23        -2.2080    2.1140    6.0890 ha        1 RRP      0.141000
     37 H25        -0.2970    1.8150    7.6660 ha        1 RRP      0.150000
     38 H211       -0.6090   -2.7510    3.9820 h1        1 RRP      0.072200
     39 H212       -2.3000   -2.0710    3.7950 h1        1 RRP      0.072200
     40 H41        -1.9460    0.8030    0.1380 h1        1 RRP      0.086200
     41 H42        -1.9090   -0.9340   -0.4610 h1        1 RRP      0.086200
     42 H71         0.5630   -2.0860    0.0110 h1        1 RRP      0.066700
     43 H72         1.8630   -0.8650    0.4320 h1        1 RRP      0.066700
     44 H21         1.0310   -0.5300    2.6550 h1        1 RRP      0.053200
     45 H22A        0.9940   -2.3280    2.3500 h1        1 RRP      0.053200
     46 H3         -1.3350    2.0900   -2.8140 ha        1 RRP      0.183000
     47 H10         1.3570   -1.4410   -6.1580 ha        1 RRP      0.156000
     48 H15        -1.9870    0.8810   -7.6670 ha        1 RRP      0.155000
     49 H11        -2.2910    1.9550   -5.4250 ha        1 RRP      0.149000
@<TRIPOS>BOND
     1    1    2 2   
     2    1   31 1   
     3    2    3 1   
     4    2    4 1   
     5    3   32 1   
     6    3   33 1   
     7    4    5 ar  
     8    4    9 ar  
     9    5    6 ar  
    10    5   34 1   
    11    6    7 ar  
    12    6   10 1   
    13    7    8 ar  
    14    7   35 1   
    15    8    9 ar  
    16    8   36 1   
    17    9   37 1   
    18   10   11 1   
    19   10   38 1   
    20   10   39 1   
    21   11   12 1   
    22   11   17 1   
    23   12   13 2   
    24   12   14 1   
    25   14   15 1   
    26   14   40 1   
    27   14   41 1   
    28   15   16 1   
    29   15   18 1   
    30   16   17 1   
    31   16   42 1   
    32   16   43 1   
    33   17   44 1   
    34   17   45 1   
    35   18   19 2   
    36   18   20 2   
    37   18   21 1   
    38   21   22 2   
    39   21   25 1   
    40   22   23 1   
    41   22   46 1   
    42   23   24 ar  
    43   23   30 ar  
    44   24   25 1   
    45   24   26 ar  
    46   26   27 ar  
    47   26   47 1   
    48   27   28 1   
    49   27   29 ar  
    50   29   30 ar  
    51   29   48 1   
    52   30   49 1   
@<TRIPOS>SUBSTRUCTURE
     1 RRP         1 TEMP              0 ****  ****    0 ROOT
