@<TRIPOS>MOLECULE
RRR
   45    48     1     0     0
SMALL
bcc


@<TRIPOS>ATOM
      1 N10         1.9630   -5.0300    2.8180 na        1 RRR     -0.186400
      2 C4          3.1830   -5.4490    3.3350 ca        1 RRR     -0.015200
      3 C5          4.1730   -5.3660    2.2790 ca        1 RRR     -0.224100
      4 C6          5.4900   -5.7570    2.5800 ca        1 RRR      0.452200
      5 N1          5.8500   -6.1950    3.7910 nb        1 RRR     -0.689000
      6 C2          4.9030   -6.2620    4.7650 ca        1 RRR      0.406200
      7 C3          3.5610   -5.9080    4.6090 ca        1 RRR     -0.262300
      8 C12         3.4900   -4.8640    1.1130 cc        1 RRR     -0.130200
      9 C11         2.1550   -4.6680    1.4710 cd        1 RRR     -0.108300
     10 C13         1.0450   -4.2000    0.5870 c3        1 RRR      0.150200
     11 N14         0.5490   -2.8690    0.8500 n         1 RRR     -0.468800
     12 C17         1.0020   -1.7900    0.1020 c         1 RRR      0.696500
     13 O44         1.7480   -1.9500   -0.8820 o         1 RRR     -0.631500
     14 C18         0.5030   -0.3760    0.4210 c3        1 RRR      0.153800
     15 N19        -0.1910   -0.2090    1.6650 n3        1 RRR     -0.812500
     16 C20        -0.9880   -1.3330    2.0710 c3        1 RRR      0.210800
     17 C21        -0.1910   -2.6550    2.0680 c3        1 RRR      0.080000
     18 S28        -0.0530    1.1510    2.5720 sy        1 RRR      1.513800
     19 O37         1.2100    1.7410    2.3480 o         1 RRR     -0.651800
     20 O45        -0.3960    0.8420    3.9050 o         1 RRR     -0.651800
     21 C29        -1.2260    2.1490    1.9430 ce        1 RRR     -0.507100
     22 C30        -1.0080    3.2270    1.1710 cf        1 RRR      0.135800
     23 C31        -2.0160    4.1150    0.6780 cd        1 RRR     -0.157900
     24 C35        -3.3870    4.0370    0.9020 cc        1 RRR     -0.091000
     25 C34        -4.0910    5.0900    0.2600 cc        1 RRR     -0.162000
     26 C33        -3.2270    5.9310   -0.4300 cd        1 RRR     -0.020700
     27 CL36       -3.6970    7.2740   -1.3030 cl        1 RRR     -0.012400
     28 S32        -1.6350    5.4400   -0.2830 ss        1 RRR      0.106200
     29 H10         1.1240   -4.9280    3.3230 hn        1 RRR      0.296700
     30 H6          6.2840   -5.7140    1.8130 h4        1 RRR      0.024100
     31 H2          5.2700   -6.6300    5.7400 h4        1 RRR      0.019100
     32 H3          2.8480   -5.9850    5.4370 ha        1 RRR      0.142000
     33 H12         3.9340   -4.6710    0.1410 ha        1 RRR      0.168000
     34 H131        1.4270   -4.2290   -0.4780 h1        1 RRR      0.079700
     35 H132        0.1740   -4.9150    0.6740 h1        1 RRR      0.079700
     36 H181        1.4130    0.2960    0.4050 h1        1 RRR      0.086700
     37 H182       -0.1700   -0.0930   -0.4420 h1        1 RRR      0.086700
     38 H201       -1.8740   -1.4390    1.3800 h1        1 RRR      0.066700
     39 H202       -1.3700   -1.1650    3.1200 h1        1 RRR      0.066700
     40 H211        0.5100   -2.6570    2.9530 h1        1 RRR      0.047700
     41 H212       -0.9240   -3.5020    2.2010 h1        1 RRR      0.047700
     42 H29        -2.2670    1.9170    2.2350 h4        1 RRR      0.177000
     43 H30         0.0350    3.4820    0.8810 ha        1 RRR      0.148000
     44 H35        -3.8780    3.2660    1.5010 ha        1 RRR      0.164000
     45 H34        -5.1760    5.2130    0.3100 ha        1 RRR      0.172000
@<TRIPOS>BOND
     1    1    2 1   
     2    1    9 1   
     3    1   29 1   
     4    2    3 ar  
     5    2    7 ar  
     6    3    4 ar  
     7    3    8 1   
     8    4    5 ar  
     9    4   30 1   
    10    5    6 ar  
    11    6    7 ar  
    12    6   31 1   
    13    7   32 1   
    14    8    9 2   
    15    8   33 1   
    16    9   10 1   
    17   10   11 1   
    18   10   34 1   
    19   10   35 1   
    20   11   12 1   
    21   11   17 1   
    22   12   13 2   
    23   12   14 1   
    24   14   15 1   
    25   14   36 1   
    26   14   37 1   
    27   15   16 1   
    28   15   18 1   
    29   16   17 1   
    30   16   38 1   
    31   16   39 1   
    32   17   40 1   
    33   17   41 1   
    34   18   19 2   
    35   18   20 2   
    36   18   21 1   
    37   21   22 2   
    38   21   42 1   
    39   22   23 1   
    40   22   43 1   
    41   23   24 2   
    42   23   28 1   
    43   24   25 1   
    44   24   44 1   
    45   25   26 2   
    46   25   45 1   
    47   26   27 1   
    48   26   28 1   
@<TRIPOS>SUBSTRUCTURE
     1 RRR         1 TEMP              0 ****  ****    0 ROOT
