@<TRIPOS>MOLECULE
RRR
   45    36     1     0     0
SMALL
bcc


@<TRIPOS>ATOM
      1 N10         3.7090    2.0000   -2.0750 n2        1 RRR     -0.210000
      2 C4          5.0720    1.9900   -1.7970 c1        1 RRR      0.031000
      3 C5          5.2230    1.9230   -0.4530 c1        1 RRR     -0.147000
      4 C6          6.5220    1.8740    0.1140 c1        1 RRR     -0.012000
      5 N1          7.6190    1.8940   -0.6920 n1        1 RRR     -0.163000
      6 C2          7.4690    1.9620   -2.0600 c1        1 RRR     -0.059000
      7 C3          6.1940    2.0110   -2.6200 c1        1 RRR     -0.198000
      8 C12         3.9650    1.8910    0.1190 c1        1 RRR     -0.140000
      9 C11         3.0370    1.9390   -0.8920 c1        1 RRR     -0.079000
     10 C13         1.5720    2.4210   -0.7280 c2        1 RRR      0.029000
     11 N14         0.7170    1.2870   -0.4500 n         1 RRR     -0.325000
     12 C17         0.3220    0.9410    1.0220 c2        1 RRR      0.305000
     13 O44         1.1840    0.8870    1.8930 o         1 RRR     -0.353000
     14 C18        -1.1840    1.3610    1.4040 c3        1 RRR     -0.036000
     15 N19        -2.2100    0.7770    0.2880 n3        1 RRR     -0.829000
     16 C20        -1.7210    1.1820   -1.2650 c3        1 RRR     -0.022000
     17 C21        -0.3490    0.7880   -1.5440 c3        1 RRR     -0.037000
     18 S28        -2.9080   -1.3370    0.5950 s4        1 RRR      2.085800
     19 O37        -3.1730   -1.6040    1.9870 o         1 RRR     -0.543900
     20 O45        -1.8650   -2.2670    0.3290 o         1 RRR     -0.543900
     21 C29        -4.3600   -1.6720   -0.4200 c1        1 RRR     -0.421500
     22 C30        -5.2080   -2.7510   -0.0990 c1        1 RRR     -0.421500
     23 C31        -4.8980   -3.6270    1.0970 c1        1 RRR     -0.476500
     24 C35        -5.7720   -3.8650    2.2320 c1        1 RRR     -0.138000
     25 C34        -5.0740   -4.9300    3.1830 c1        1 RRR     -0.138000
     26 C33        -3.8080   -5.3010    2.5970 c1        1 RRR     -0.476500
     27 CL36       -2.7090   -6.4840    3.2190 cl        1 RRR      0.052000
     28 S32        -3.6420   -4.5070    1.2730 ss        1 RRR      0.885000
     29 H10         3.3350    2.0410   -2.8990 DU        1 RRR      0.184000
     30 H6          6.6320    1.8250    1.1040 ha        1 RRR      0.162000
     31 H2          8.2660    1.9770   -2.6440 ha        1 RRR      0.157000
     32 H3          6.0910    2.0580   -3.5780 ha        1 RRR      0.142000
     33 H12         3.7720    1.8420    1.0720 DU        1 RRR      0.184000
     34 H131        1.5200    3.0570    0.0120 h4        1 RRR      0.119500
     35 H132        1.2790    2.8560   -1.5510 h4        1 RRR      0.119500
     36 H181       -1.2520    2.3070    1.5350 h1        1 RRR      0.128500
     37 H182       -1.4410    1.0220    2.3130 h1        1 RRR      0.128500
     38 H201       -2.3270    0.7310   -1.9220 h1        1 RRR      0.103500
     39 H202       -1.8010    2.1720   -1.3800 h1        1 RRR      0.103500
     40 H211       -0.0920    1.1550   -2.4250 h1        1 RRR      0.088000
     41 H212       -0.3110   -0.1840   -1.5910 h1        1 RRR      0.088000
     42 H29        -4.5590   -1.1020   -1.1990 ha        1 RRR      0.155000
     43 H30        -5.9900   -2.9330   -0.6460 ha        1 RRR      0.155000
     44 H35        -6.6360   -3.4440    2.3840 DU        1 RRR      0.184000
     45 H34        -5.4340   -5.2700    4.0080 DU        1 RRR      0.184000
@<TRIPOS>BOND
     1    1    2 1   
     2    1    9 1   
     3    2    7 1   
     4    3    4 1   
     5    4   30 1   
     6    5    6 1   
     7    6   31 1   
     8    7   32 1   
     9    8    9 1   
    10   10   11 1   
    11   10   34 1   
    12   10   35 1   
    13   11   12 1   
    14   11   17 1   
    15   12   13 1   
    16   12   14 1   
    17   14   15 1   
    18   14   36 1   
    19   14   37 1   
    20   15   16 1   
    21   15   18 1   
    22   16   17 1   
    23   16   38 1   
    24   16   39 1   
    25   17   40 1   
    26   17   41 1   
    27   18   19 1   
    28   18   20 1   
    29   21   22 1   
    30   21   42 1   
    31   22   43 1   
    32   23   24 1   
    33   23   28 1   
    34   24   25 1   
    35   25   26 1   
    36   26   28 1   
@<TRIPOS>SUBSTRUCTURE
     1 RRR         1 TEMP              0 ****  ****    0 ROOT
