@<TRIPOS>MOLECULE
RRS
   72    74     1     0     0
SMALL
bcc


@<TRIPOS>ATOM
      1 C1         -2.0090   -2.7200   -0.3300 c         1 RRS      0.577100
      2 O2         -1.4660   -2.2470    0.6490 o         1 RRS     -0.367100
      3 N1         -2.8420   -3.9900   -0.0190 n4        1 RRS     -0.459300
      4 O1         -3.6890   -4.1990   -1.0500 oh        1 RRS     -0.373300
      5 C2         -2.0050   -2.2610   -1.7550 c3        1 RRS     -0.146400
      6 C3         -1.0740   -1.0560   -1.9360 c3        1 RRS     -0.124700
      7 C4         -1.4880   -0.3160   -3.1970 c         1 RRS      0.549100
      8 O3         -2.4120   -0.5820   -3.9450 o         1 RRS     -0.388100
      9 N2         -0.6280    0.8860   -3.5530 n4        1 RRS     -0.689800
     10 C5         -1.0250    1.5990   -4.8240 c3        1 RRS      0.058500
     11 C6          0.2460    2.0550   -5.5700 c         1 RRS      0.539100
     12 O4          1.3500    1.5690   -5.3410 o         1 RRS     -0.422100
     13 N3          0.1300    3.0950   -6.6190 n4        1 RRS     -0.643800
     14 C7          0.8900    2.7920   -7.8850 c3        1 RRS      0.111800
     15 C8          1.2690    4.0490   -8.6570 c3        1 RRS     -0.117400
     16 C9          0.1210    5.0030   -8.9210 c3        1 RRS     -0.103400
     17 C10         0.1880    6.2420   -8.0450 c3        1 RRS     -0.093400
     18 C11        -1.1650    6.9020   -7.8600 c3        1 RRS     -0.110400
     19 C12        -1.4540    7.3190   -6.4160 c3        1 RRS      0.011300
     20 N4         -1.3890    6.2320   -5.4620 na        1 RRS     -0.012400
     21 C13         0.3900   -1.4860   -2.0150 c3        1 RRS     -0.117400
     22 C14         1.3530   -0.4600   -1.4170 c3        1 RRS     -0.071700
     23 C15         1.7470   -0.8570   -0.0080 c3        1 RRS     -0.108100
     24 C16         2.5850   -0.3210   -2.2880 c3        1 RRS     -0.108100
     25 C17        -2.0560    2.7240   -4.5480 c3        1 RRS     -0.000200
     26 C18        -1.5250    4.0720   -4.7020 cc        1 RRS     -0.344400
     27 C19        -2.0450    5.0270   -5.6050 cd        1 RRS     -0.060100
     28 C20        -0.5150    4.7490   -3.9160 ca        1 RRS     -0.112800
     29 C21        -0.4350    6.0960   -4.4330 ca        1 RRS     -0.066200
     30 C22         0.2930    4.3890   -2.8330 ca        1 RRS     -0.150000
     31 C23         0.4490    7.0380   -3.8750 ca        1 RRS     -0.088000
     32 C24         1.1590    5.3250   -2.2930 ca        1 RRS     -0.087000
     33 C25         1.2390    6.6330   -2.8120 ca        1 RRS     -0.091000
     34 HN1        -2.1950   -4.7970    0.0970 hn        1 RRS      0.490300
     35 HO1        -4.2840   -4.9620   -0.8390 ho        1 RRS      0.505000
     36 H21        -1.6850   -3.1080   -2.4270 hc        1 RRS      0.143700
     37 H22A       -3.0670   -2.0020   -2.0460 hc        1 RRS      0.143700
     38 H3         -1.2110   -0.3540   -1.0570 hc        1 RRS      0.133700
     39 HN2        -0.6810    1.5620   -2.7720 hn        1 RRS      0.489800
     40 H5         -1.5170    0.8250   -5.5010 hx        1 RRS      0.156700
     41 HN3        -0.8640    3.2640   -6.8430 hn        1 RRS      0.489800
     42 H71         0.2300    2.1270   -8.5140 hx        1 RRS      0.117200
     43 H72         1.8290    2.2290   -7.6070 hx        1 RRS      0.117200
     44 H81         2.1100    4.5820   -8.1360 hc        1 RRS      0.107200
     45 H82         1.6870    3.6790   -9.6390 hc        1 RRS      0.107200
     46 H91        -0.8630    4.4770   -8.7990 hc        1 RRS      0.065700
     47 H92         0.1600    5.3290   -9.9980 hc        1 RRS      0.065700
     48 H101        0.6430    5.9820   -7.0520 hc        1 RRS      0.053200
     49 H102        0.8960    6.9780   -8.5180 hc        1 RRS      0.053200
     50 H111       -1.2180    7.8380   -8.4820 hc        1 RRS      0.079700
     51 H112       -1.9880    6.2310   -8.2250 hc        1 RRS      0.079700
     52 H121       -0.7160    8.1080   -6.0940 h1        1 RRS      0.102200
     53 H122       -2.4920    7.7640   -6.3660 h1        1 RRS      0.102200
     54 H131        0.6660   -1.7220   -3.0780 hc        1 RRS      0.083200
     55 H132        0.5060   -2.4510   -1.4470 hc        1 RRS      0.083200
     56 H14         0.8450    0.5450   -1.3500 hc        1 RRS      0.007700
     57 H151        2.3580   -1.7930   -0.0170 hc        1 RRS      0.061867
     58 H152        0.8390   -1.0240    0.6210 hc        1 RRS      0.061867
     59 H153        2.3620   -0.0490    0.4610 hc        1 RRS      0.061867
     60 H161        2.3220    0.0620   -3.3060 hc        1 RRS      0.061867
     61 H162        3.1020   -1.3050   -2.4040 hc        1 RRS      0.061867
     62 H163        3.3070    0.3920   -1.8180 hc        1 RRS      0.061867
     63 H171       -2.9110    2.5620   -5.2670 hc        1 RRS      0.097700
     64 H172       -2.4940    2.6010   -3.5160 hc        1 RRS      0.097700
     65 H19        -2.8740    4.9160   -6.3160 h4        1 RRS      0.195000
     66 H22         0.2150    3.3900   -2.3840 ha        1 RRS      0.082000
     67 H23         0.4990    8.0710   -4.2540 ha        1 RRS      0.174000
     68 H24         1.7910    5.0590   -1.4290 ha        1 RRS      0.162000
     69 H25         1.9350    7.3520   -2.3460 ha        1 RRS      0.180000
     70 H12        -3.3560   -3.8440    0.8750 hn        1 RRS      0.490300
     71 H221        0.3570    0.5580   -3.6150 hn        1 RRS      0.489800
     72 H32         0.4930    3.9820   -6.2080 hn        1 RRS      0.489800
@<TRIPOS>BOND
     1    1    2 2   
     2    1    3 1   
     3    1    5 1   
     4    3    4 1   
     5    3   34 1   
     6    3   70 1   
     7    4   35 1   
     8    5    6 1   
     9    5   36 1   
    10    5   37 1   
    11    6    7 1   
    12    6   21 1   
    13    6   38 1   
    14    7    8 2   
    15    7    9 1   
    16    9   10 1   
    17    9   39 1   
    18    9   71 1   
    19   10   11 1   
    20   10   25 1   
    21   10   40 1   
    22   11   12 2   
    23   11   13 1   
    24   13   14 1   
    25   13   41 1   
    26   13   72 1   
    27   14   15 1   
    28   14   42 1   
    29   14   43 1   
    30   15   16 1   
    31   15   44 1   
    32   15   45 1   
    33   16   17 1   
    34   16   46 1   
    35   16   47 1   
    36   17   18 1   
    37   17   48 1   
    38   17   49 1   
    39   18   19 1   
    40   18   50 1   
    41   18   51 1   
    42   19   20 1   
    43   19   52 1   
    44   19   53 1   
    45   20   27 1   
    46   20   29 1   
    47   21   22 1   
    48   21   54 1   
    49   21   55 1   
    50   22   23 1   
    51   22   24 1   
    52   22   56 1   
    53   23   57 1   
    54   23   58 1   
    55   23   59 1   
    56   24   60 1   
    57   24   61 1   
    58   24   62 1   
    59   25   26 1   
    60   25   63 1   
    61   25   64 1   
    62   26   27 2   
    63   26   28 1   
    64   27   65 1   
    65   28   29 ar  
    66   28   30 ar  
    67   29   31 ar  
    68   30   32 ar  
    69   30   66 1   
    70   31   33 ar  
    71   31   67 1   
    72   32   33 ar  
    73   32   68 1   
    74   33   69 1   
@<TRIPOS>SUBSTRUCTURE
     1 RRS         1 TEMP              0 ****  ****    0 ROOT
