@<TRIPOS>MOLECULE
RRS
   72    74     1     0     0
SMALL
bcc


@<TRIPOS>ATOM
      1 C1         -2.1460   -2.7050   -0.3700 c         1 RRS      0.577100
      2 O2         -1.6380   -2.2270    0.6240 o         1 RRS     -0.366100
      3 N1         -2.9490   -4.0000   -0.0900 ny        1 RRS     -0.459300
      4 O1         -3.0260   -4.7050   -1.2400 oh        1 RRS     -0.373300
      5 C2         -2.1200   -2.2320   -1.7920 c3        1 RRS     -0.147400
      6 C3         -1.1800   -1.0290   -1.9450 c3        1 RRS     -0.124700
      7 C4         -1.5610   -0.2820   -3.2120 c         1 RRS      0.549100
      8 O3         -2.4790   -0.5310   -3.9740 o         1 RRS     -0.389100
      9 N2         -0.6770    0.9060   -3.5530 ny        1 RRS     -0.689800
     10 C5         -1.0360    1.6200   -4.8350 c3        1 RRS      0.058500
     11 C6          0.2560    2.0600   -5.5530 c         1 RRS      0.539100
     12 O4          1.3490    1.5630   -5.2970 o         1 RRS     -0.422100
     13 N3          0.1760    3.0980   -6.6070 ny        1 RRS     -0.643800
     14 C7          0.9610    2.7830   -7.8540 c3        1 RRS      0.111800
     15 C8          1.3730    4.0340   -8.6200 c3        1 RRS     -0.117400
     16 C9          0.2410    5.0000   -8.9120 c3        1 RRS     -0.103400
     17 C10         0.3030    6.2410   -8.0380 c3        1 RRS     -0.093400
     18 C11        -1.0470    6.9160   -7.8860 c3        1 RRS     -0.110400
     19 C12        -1.3650    7.3400   -6.4500 c3        1 RRS      0.011300
     20 N4         -1.3340    6.2550   -5.4930 na        1 RRS     -0.012400
     21 C13         0.2830   -1.4690   -1.9910 c3        1 RRS     -0.118400
     22 C14         1.2370   -0.4510   -1.3680 c3        1 RRS     -0.071700
     23 C15         1.5910   -0.8510    0.0520 c3        1 RRS     -0.108100
     24 C16         2.4930   -0.3210   -2.2060 c3        1 RRS     -0.108100
     25 C17        -2.0610    2.7570   -4.5850 c3        1 RRS     -0.000200
     26 C18        -1.5110    4.0990   -4.7310 cc        1 RRS     -0.344400
     27 C19        -2.0000    5.0580   -5.6480 cd        1 RRS     -0.060100
     28 C20        -0.5130    4.7670   -3.9220 ca        1 RRS     -0.112800
     29 C21        -0.4060    6.1120   -4.4410 ca        1 RRS     -0.066200
     30 C22         0.2660    4.4010   -2.8200 ca        1 RRS     -0.150000
     31 C23         0.4750    7.0450   -3.8650 ca        1 RRS     -0.088000
     32 C24         1.1290    5.3290   -2.2620 ca        1 RRS     -0.087000
     33 C25         1.2360    6.6340   -2.7820 ca        1 RRS     -0.091000
     34 HN1        -3.8990   -3.7420    0.2470 hn        1 RRS      0.490300
     35 HO1        -3.4490   -5.5830   -1.0610 ho        1 RRS      0.505000
     36 H21        -3.1720   -1.9660   -2.1020 hc        1 RRS      0.143700
     37 H22A       -1.7850   -3.0770   -2.4630 hc        1 RRS      0.143700
     38 H3         -1.3340   -0.3300   -1.0670 hc        1 RRS      0.133700
     39 HN2         0.3050    0.5640   -3.5940 hn        1 RRS      0.489800
     40 H5         -1.5220    0.8500   -5.5210 hx        1 RRS      0.156700
     41 HN3         0.5390    3.9820   -6.1900 hn        1 RRS      0.489800
     42 H71         0.3090    2.1240   -8.4960 hx        1 RRS      0.117200
     43 H72         1.8880    2.2100   -7.5530 hx        1 RRS      0.117200
     44 H81         1.8080    3.6570   -9.5910 hc        1 RRS      0.107200
     45 H82         2.2070    4.5590   -8.0810 hc        1 RRS      0.107200
     46 H91        -0.7500    4.4850   -8.8120 hc        1 RRS      0.065700
     47 H92         0.3090    5.3230   -9.9890 hc        1 RRS      0.065700
     48 H101        0.7320    5.9780   -7.0340 hc        1 RRS      0.053200
     49 H102        1.0300    6.9670   -8.4970 hc        1 RRS      0.053200
     50 H111       -1.8690    6.2540   -8.2680 hc        1 RRS      0.079700
     51 H112       -1.0750    7.8510   -8.5110 hc        1 RRS      0.079700
     52 H121       -2.3980    7.7970   -6.4250 h1        1 RRS      0.102200
     53 H122       -0.6250    8.1220   -6.1130 h1        1 RRS      0.102200
     54 H131        0.3800   -2.4360   -1.4230 hc        1 RRS      0.084200
     55 H132        0.5820   -1.7040   -3.0470 hc        1 RRS      0.084200
     56 H14         0.7360    0.5590   -1.3140 hc        1 RRS      0.007700
     57 H151        2.1940   -1.7920    0.0590 hc        1 RRS      0.062200
     58 H152        2.1990   -0.0480    0.5380 hc        1 RRS      0.062200
     59 H153        0.6640   -1.0110    0.6550 hc        1 RRS      0.062200
     60 H161        3.2090    0.3850   -1.7160 hc        1 RRS      0.062200
     61 H162        2.2600    0.0640   -3.2290 hc        1 RRS      0.062200
     62 H163        3.0050   -1.3100   -2.3080 hc        1 RRS      0.062200
     63 H171       -2.9010    2.6030   -5.3230 hc        1 RRS      0.097700
     64 H172       -2.5230    2.6420   -3.5640 hc        1 RRS      0.097700
     65 H19        -2.8130    4.9540   -6.3770 h4        1 RRS      0.195000
     66 H22         0.1670    3.4040   -2.3710 ha        1 RRS      0.082000
     67 H23         0.5460    8.0770   -4.2450 ha        1 RRS      0.174000
     68 H24         1.7380    5.0590   -1.3830 ha        1 RRS      0.162000
     69 H25         1.9290    7.3470   -2.3020 ha        1 RRS      0.181000
     70 H12        -2.4650   -4.5400    0.6590 hn        1 RRS      0.490300
     71 H221       -0.7360    1.5860   -2.7750 hn        1 RRS      0.489800
     72 H32        -0.8100    3.2780   -6.8540 hn        1 RRS      0.489800
@<TRIPOS>BOND
     1    1    2 2   
     2    1    3 1   
     3    1    5 1   
     4    3    4 1   
     5    3   34 1   
     6    3   70 1   
     7    4   35 1   
     8    5    6 1   
     9    5   36 1   
    10    5   37 1   
    11    6    7 1   
    12    6   21 1   
    13    6   38 1   
    14    7    8 2   
    15    7    9 1   
    16    9   10 1   
    17    9   39 1   
    18    9   71 1   
    19   10   11 1   
    20   10   25 1   
    21   10   40 1   
    22   11   12 2   
    23   11   13 1   
    24   13   14 1   
    25   13   41 1   
    26   13   72 1   
    27   14   15 1   
    28   14   42 1   
    29   14   43 1   
    30   15   16 1   
    31   15   44 1   
    32   15   45 1   
    33   16   17 1   
    34   16   46 1   
    35   16   47 1   
    36   17   18 1   
    37   17   48 1   
    38   17   49 1   
    39   18   19 1   
    40   18   50 1   
    41   18   51 1   
    42   19   20 1   
    43   19   52 1   
    44   19   53 1   
    45   20   27 1   
    46   20   29 1   
    47   21   22 1   
    48   21   54 1   
    49   21   55 1   
    50   22   23 1   
    51   22   24 1   
    52   22   56 1   
    53   23   57 1   
    54   23   58 1   
    55   23   59 1   
    56   24   60 1   
    57   24   61 1   
    58   24   62 1   
    59   25   26 1   
    60   25   63 1   
    61   25   64 1   
    62   26   27 2   
    63   26   28 1   
    64   27   65 1   
    65   28   29 ar  
    66   28   30 ar  
    67   29   31 ar  
    68   30   32 ar  
    69   30   66 1   
    70   31   33 ar  
    71   31   67 1   
    72   32   33 ar  
    73   32   68 1   
    74   33   69 1   
@<TRIPOS>SUBSTRUCTURE
     1 RRS         1 TEMP              0 ****  ****    0 ROOT
