@<TRIPOS>MOLECULE
RRS
   69    71     1     0     0
SMALL
bcc


@<TRIPOS>ATOM
      1 C1         -2.6360    1.0790   -4.2480 c         1 RRS      0.591100
      2 O2         -3.1010   -0.0070   -3.8670 o         1 RRS     -0.565100
      3 N1         -2.9820    1.5880   -5.5390 n         1 RRS     -0.352400
      4 O1         -4.1470    1.1490   -6.0200 oh        1 RRS     -0.436100
      5 C2         -1.6150    1.8610   -3.4560 c3        1 RRS     -0.151400
      6 C3         -0.6770    0.9380   -2.6870 c3        1 RRS     -0.123700
      7 C4          0.0760    1.7930   -1.6660 c         1 RRS      0.656100
      8 O3          0.6550    2.8440   -2.0060 o         1 RRS     -0.608100
      9 N2          0.0980    1.3480   -0.3590 n         1 RRS     -0.571900
     10 C5          0.6420    2.1330    0.7180 c3        1 RRS      0.037700
     11 C6          2.0270    1.6810    1.2470 c         1 RRS      0.652100
     12 O4          2.5390    2.3300    2.1860 o         1 RRS     -0.631100
     13 N3          2.6800    0.6140    0.6810 n         1 RRS     -0.561900
     14 C7          4.0010    0.2080    1.0750 c3        1 RRS      0.087000
     15 C8          4.1510   -1.2730    1.4350 c3        1 RRS     -0.095400
     16 C9          3.7040   -1.6070    2.8430 c3        1 RRS     -0.076400
     17 C10         2.2470   -2.0180    2.9060 c3        1 RRS     -0.085400
     18 C11         1.7320   -2.0150    4.3290 c3        1 RRS     -0.097400
     19 C12         0.2070   -2.0790    4.4220 c3        1 RRS      0.036300
     20 N4         -0.5020   -1.0080    3.7720 na        1 RRS     -0.067400
     21 C13         0.3040    0.2620   -3.6350 c3        1 RRS     -0.075400
     22 C14         1.2160   -0.7400   -2.9360 c3        1 RRS     -0.067700
     23 C15         1.3240   -2.0190   -3.7410 c3        1 RRS     -0.096600
     24 C16         2.5930   -0.1460   -2.7120 c3        1 RRS     -0.096600
     25 C17        -0.3190    2.2150    1.9280 c3        1 RRS     -0.014200
     26 C18        -0.6410    0.8950    2.4820 cc        1 RRS     -0.170400
     27 C19         0.0580    0.2500    3.5010 cd        1 RRS     -0.078100
     28 C20        -1.6980   -0.0040    2.0620 ca        1 RRS     -0.093800
     29 C21        -1.5600   -1.2020    2.8610 ca        1 RRS     -0.050200
     30 C22        -2.7270    0.0810    1.1240 ca        1 RRS     -0.106000
     31 C23        -2.4370   -2.2830    2.6910 ca        1 RRS     -0.135000
     32 C24        -3.5850   -0.9980    0.9660 ca        1 RRS     -0.146000
     33 C25        -3.4380   -2.1630    1.7370 ca        1 RRS     -0.118000
     34 HN1        -2.9980    2.6020   -5.5710 hn        1 RRS      0.300500
     35 HO1        -3.9980    0.2140   -6.2680 ho        1 RRS      0.436000
     36 H21        -2.1850    2.5080   -2.7350 hc        1 RRS      0.084700
     37 H22A       -1.0050    2.5400   -4.1100 hc        1 RRS      0.084700
     38 H3         -1.2960    0.1440   -2.1800 hc        1 RRS      0.087700
     39 HN2        -0.4450    0.5540   -0.1020 hn        1 RRS      0.327500
     40 H5          0.8190    3.1890    0.3370 h1        1 RRS      0.110700
     41 HN3         2.2640    0.1090   -0.0660 hn        1 RRS      0.317500
     42 H71         4.3320    0.8410    1.9480 h1        1 RRS      0.058700
     43 H72         4.7000    0.4200    0.2110 h1        1 RRS      0.058700
     44 H81         5.2440   -1.5160    1.3400 hc        1 RRS      0.045200
     45 H82         3.6050   -1.9160    0.6960 hc        1 RRS      0.045200
     46 H91         3.8770   -0.7210    3.5110 hc        1 RRS      0.043700
     47 H92         4.3350   -2.4450    3.2420 hc        1 RRS      0.043700
     48 H101        2.1220   -3.0410    2.4620 hc        1 RRS      0.048700
     49 H102        1.6440   -1.3120    2.2760 hc        1 RRS      0.048700
     50 H111        2.1010   -1.1010    4.8650 hc        1 RRS      0.052700
     51 H112        2.1370   -2.9060    4.8790 hc        1 RRS      0.052700
     52 H121       -0.0800   -2.0620    5.5140 h1        1 RRS      0.056200
     53 H122       -0.1460   -3.0570    3.9850 h1        1 RRS      0.056200
     54 H131        0.9210    1.0470   -4.1470 hc        1 RRS      0.061200
     55 H132       -0.3010   -0.2610   -4.4250 hc        1 RRS      0.061200
     56 H14         0.7740   -0.9980   -1.9310 hc        1 RRS      0.041700
     57 H151        2.0190   -2.7330   -3.2380 hc        1 RRS      0.038533
     58 H152        0.3230   -2.5060   -3.8380 hc        1 RRS      0.038533
     59 H153        1.7160   -1.8070   -4.7650 hc        1 RRS      0.038533
     60 H161        3.1330   -0.0320   -3.6820 hc        1 RRS      0.038533
     61 H162        2.5080    0.8630   -2.2370 hc        1 RRS      0.038533
     62 H163        3.1990   -0.8100   -2.0480 hc        1 RRS      0.038533
     63 H171        0.1860    2.8510    2.7060 hc        1 RRS      0.072200
     64 H172       -1.2590    2.7370    1.6060 hc        1 RRS      0.072200
     65 H19         0.9200    0.6160    4.0670 h4        1 RRS      0.182000
     66 H22        -2.8590    0.9980    0.5320 ha        1 RRS      0.131000
     67 H23        -2.3400   -3.1930    3.2970 ha        1 RRS      0.134000
     68 H24        -4.3980   -0.9460    0.2250 ha        1 RRS      0.136000
     69 H25        -4.1370   -2.9990    1.5810 ha        1 RRS      0.132000
@<TRIPOS>BOND
     1    1    2 2   
     2    1    3 1   
     3    1    5 1   
     4    3    4 1   
     5    3   34 1   
     6    4   35 1   
     7    5    6 1   
     8    5   36 1   
     9    5   37 1   
    10    6    7 1   
    11    6   21 1   
    12    6   38 1   
    13    7    8 2   
    14    7    9 1   
    15    9   10 1   
    16    9   39 1   
    17   10   11 1   
    18   10   25 1   
    19   10   40 1   
    20   11   12 2   
    21   11   13 1   
    22   13   14 1   
    23   13   41 1   
    24   14   15 1   
    25   14   42 1   
    26   14   43 1   
    27   15   16 1   
    28   15   44 1   
    29   15   45 1   
    30   16   17 1   
    31   16   46 1   
    32   16   47 1   
    33   17   18 1   
    34   17   48 1   
    35   17   49 1   
    36   18   19 1   
    37   18   50 1   
    38   18   51 1   
    39   19   20 1   
    40   19   52 1   
    41   19   53 1   
    42   20   27 1   
    43   20   29 1   
    44   21   22 1   
    45   21   54 1   
    46   21   55 1   
    47   22   23 1   
    48   22   24 1   
    49   22   56 1   
    50   23   57 1   
    51   23   58 1   
    52   23   59 1   
    53   24   60 1   
    54   24   61 1   
    55   24   62 1   
    56   25   26 1   
    57   25   63 1   
    58   25   64 1   
    59   26   27 2   
    60   26   28 1   
    61   27   65 1   
    62   28   29 ar  
    63   28   30 ar  
    64   29   31 ar  
    65   30   32 ar  
    66   30   66 1   
    67   31   33 ar  
    68   31   67 1   
    69   32   33 ar  
    70   32   68 1   
    71   33   69 1   
@<TRIPOS>SUBSTRUCTURE
     1 RRS         1 TEMP              0 ****  ****    0 ROOT
