@<TRIPOS>MOLECULE
RRT
   32    26     1     0     0
SMALL
bcc


@<TRIPOS>ATOM
      1 SG          0.4680    1.0530   -0.5090 sh        1 RRT     -0.154000
      2 CB2         1.9430   -1.7100    1.0900 c2        1 RRT     -0.207000
      3 CA1         2.3970   -0.9650    2.1020 c2        1 RRT     -0.162000
      4 CB1         6.4020    3.5710   -0.5300 c1        1 RRT     -0.171000
      5 CG          5.8160    3.3290    0.4870 c1        1 RRT     -0.078500
      6 CD1         4.0280   -1.3690    4.8710 c1        1 RRT     -0.104000
      7 CD2         5.1560    3.0580    1.6410 c1        1 RRT     -0.078500
      8 CE1         4.5030   -2.2970    5.7150 c1        1 RRT     -0.189000
      9 CE2         4.5740    2.8180    2.6620 c1        1 RRT     -0.171000
     10 CZ          4.9160   -3.2470    6.3570 c1        1 RRT     -0.104000
     11 O1          2.4810    1.2900    4.3520 o         1 RRT     -0.476000
     12 N           2.1950    0.4640    2.2050 n4        1 RRT     -0.092000
     13 CA2         0.2310    0.7160    3.6980 c2        1 RRT     -0.561000
     14 C2         -1.2850    2.8300    3.1380 c1        1 RRT      0.453000
     15 O2         -1.5780    3.0260    4.2710 o         1 RRT     -0.233000
     16 O3         -1.0620    2.7130    1.9690 o         1 RRT     -0.233000
     17 HSG         0.7090    2.2880   -0.9310 hs        1 RRT      0.089500
     18 HB21       -0.6640    1.3490    0.1370 hs        1 RRT      0.089500
     19 HB22        1.3780   -1.3080    0.2340 ha        1 RRT      0.138000
     20 HA1         2.1220   -2.7930    1.0740 ha        1 RRT      0.138000
     21 HB11        2.9610   -1.3770    2.9780 hx        1 RRT      0.225000
     22 HB12        6.9230    3.7850   -1.4280 ha        1 RRT      0.249000
     23 HD1         3.9380   -0.2970    5.0640 ha        1 RRT      0.193500
     24 HD2         1.8720   -1.6780    5.5240 ha        1 RRT      0.010000
     25 HE1         1.7140   -1.1390    5.1360 ha        1 RRT      0.010000
     26 HE2         5.2760   -4.0780    6.9080 ha        1 RRT      0.193500
     27 HZ          4.0540    2.6040    3.5720 ha        1 RRT      0.249000
     28 H           3.1100    0.9240    2.1390 hn        1 RRT      0.229500
     29 HA21       -0.4010    0.2840    2.9230 ha        1 RRT      0.129000
     30 HA22       -0.2340    0.9380    4.6620 ha        1 RRT      0.129000
     31 C1          1.5790    0.8570    3.5900 c2        1 RRT      0.258000
     32 HN3         1.5870    0.8050    1.4420 hn        1 RRT      0.229500
@<TRIPOS>BOND
     1    1   17 1   
     2    1   18 1   
     3    2    3 1   
     4    2   19 1   
     5    2   20 1   
     6    3   12 1   
     7    3   21 1   
     8    4    5 1   
     9    4   22 1   
    10    5    7 1   
    11    6    8 1   
    12    6   23 1   
    13    7    9 1   
    14    8   10 1   
    15    9   27 1   
    16   10   26 1   
    17   11   31 1   
    18   12   28 1   
    19   12   31 1   
    20   12   32 1   
    21   13   29 1   
    22   13   30 1   
    23   13   31 1   
    24   14   15 1   
    25   14   16 1   
    26   24   25 1   
@<TRIPOS>SUBSTRUCTURE
     1 RRT         1 TEMP              0 ****  ****    0 ROOT
