@<TRIPOS>MOLECULE
RRT
   31    31     1     0     0
SMALL
bcc


@<TRIPOS>ATOM
      1 SG          1.4850    3.2370    1.5650 sh        1 RRT     -0.468900
      2 CB2         0.3790    2.9510    0.2070 c3        1 RRT      0.017700
      3 CA1        -0.2080    1.5320    0.1620 c3        1 RRT      0.099700
      4 CB1        -1.5180    1.5860   -0.6590 c3        1 RRT     -0.048100
      5 CG         -2.3900    0.4040   -0.4240 ca        1 RRT     -0.087300
      6 CD1        -3.5090    0.5200    0.4100 ca        1 RRT     -0.121500
      7 CD2        -2.1200   -0.8230   -1.0460 ca        1 RRT     -0.121500
      8 CE1        -4.3510   -0.5700    0.6190 ca        1 RRT     -0.138500
      9 CE2        -2.9660   -1.9110   -0.8310 ca        1 RRT     -0.138500
     10 CZ         -4.0810   -1.7880   -0.0040 ca        1 RRT     -0.142000
     11 O1          1.3020   -0.2830    1.6800 o         1 RRT     -0.687100
     12 N           0.7340    0.5730   -0.3630 n         1 RRT     -0.560900
     13 CA2         2.0320   -1.5540   -0.2290 c3        1 RRT     -0.269400
     14 C2          1.8700   -1.7530   -1.7450 c         1 RRT      0.914600
     15 O2          2.8450   -2.2680   -2.3550 o         1 RRT     -0.841300
     16 O3          0.7810   -1.4330   -2.3150 o         1 RRT     -0.841300
     17 HSG         1.8720    1.9820    1.8250 hs        1 RRT      0.274800
     18 HB21        0.9080    3.1900   -0.7460 h1        1 RRT      0.063200
     19 HB22       -0.4430    3.6950    0.3460 h1        1 RRT      0.063200
     20 HA1        -0.4720    1.2360    1.2250 h1        1 RRT      0.084700
     21 HB11       -2.0730    2.5190   -0.3720 hc        1 RRT      0.048700
     22 HB12       -1.2770    1.6630   -1.7540 hc        1 RRT      0.048700
     23 HD1        -3.7230    1.4770    0.9080 ha        1 RRT      0.161500
     24 HD2        -1.2260   -0.9450   -1.6920 ha        1 RRT      0.161500
     25 HE1        -5.2250   -0.4690    1.2780 ha        1 RRT      0.124000
     26 HE2        -2.7400   -2.8720   -1.3170 ha        1 RRT      0.124000
     27 HZ         -4.7430   -2.6500    0.1630 ha        1 RRT      0.115000
     28 H           0.6540    0.3630   -1.3430 hn        1 RRT      0.352500
     29 HA21        1.6710   -2.4900    0.2720 hc        1 RRT      0.068200
     30 HA22        3.1240   -1.4390   -0.0020 hc        1 RRT      0.068200
     31 C1          1.3150   -0.4010    0.4290 c         1 RRT      0.675100
@<TRIPOS>BOND
     1    1    2 1   
     2    1   17 1   
     3    2    3 1   
     4    2   18 1   
     5    2   19 1   
     6    3    4 1   
     7    3   12 1   
     8    3   20 1   
     9    4    5 1   
    10    4   21 1   
    11    4   22 1   
    12    5    6 ar  
    13    5    7 ar  
    14    6    8 ar  
    15    6   23 1   
    16    7    9 ar  
    17    7   24 1   
    18    8   10 ar  
    19    8   25 1   
    20    9   10 ar  
    21    9   26 1   
    22   10   27 1   
    23   11   31 2   
    24   12   28 1   
    25   12   31 1   
    26   13   14 1   
    27   13   29 1   
    28   13   30 1   
    29   13   31 1   
    30   14   15 1   
    31   14   16 1   
@<TRIPOS>SUBSTRUCTURE
     1 RRT         1 TEMP              0 ****  ****    0 ROOT
