@<TRIPOS>MOLECULE
RRT
   32    31     1     0     0
SMALL
bcc


@<TRIPOS>ATOM
      1 SG          0.3580    2.8010    1.5750 sh        1 RRT     -0.153000
      2 CB2         2.3290   -0.2990   -0.4240 cx        1 RRT     -0.217000
      3 CA1         2.6850   -0.6650    1.0020 cx        1 RRT     -0.030000
      4 CB1         3.6110    0.2160    0.1730 cx        1 RRT     -0.169000
      5 CG          3.7580    1.6750    0.4850 c3        1 RRT     -0.033000
      6 CD1         1.5190   -2.2220    7.6300 c1        1 RRT      0.232000
      7 CD2         4.4470    2.3910   -0.5500 c1        1 RRT     -0.166000
      8 CE1         1.9080   -0.9830    7.4390 c2        1 RRT     -0.547000
      9 CE2         5.0190    3.0010   -1.4050 c1        1 RRT     -0.214000
     10 CZ          2.8930   -0.4710    6.4520 c3        1 RRT      0.052000
     11 O1          2.3920   -1.9630    3.4720 o         1 RRT     -0.372000
     12 N           1.9400   -0.1640    2.1030 ns        1 RRT     -0.343000
     13 CA2         0.9370   -0.2740    4.3630 c3        1 RRT     -0.236000
     14 C2          1.5790    0.9270    4.9840 c2        1 RRT      0.316000
     15 O2          2.5160    0.8260    5.9760 os        1 RRT     -0.244000
     16 O3          1.3390    2.1000    4.6840 o         1 RRT     -0.331000
     17 HSG         0.1380    2.9030    2.8890 hs        1 RRT      0.085000
     18 HB21        1.2640    3.7690    1.5220 hs        1 RRT      0.085000
     19 HB22        2.3720   -1.0940   -1.1900 hc        1 RRT      0.120500
     20 HA1         1.5100    0.4170   -0.6170 hc        1 RRT      0.120500
     21 HB11        3.0340   -1.7080    1.1980 h1        1 RRT      0.158000
     22 HB12        4.5630   -0.2460   -0.1580 hc        1 RRT      0.131000
     23 HD1         4.3300    1.7820    1.4510 hc        1 RRT      0.104000
     24 HD2         2.7420    2.1450    0.6440 hc        1 RRT      0.104000
     25 HE1         1.4960   -0.1990    8.1130 ha        1 RRT      0.210000
     26 HE2         3.8780   -0.2660    6.9610 h1        1 RRT      0.126500
     27 HZ          5.5270    3.5430   -2.1610 ha        1 RRT      0.222000
     28 H           3.0420   -1.1800    5.5940 h1        1 RRT      0.126500
     29 HA21        0.7550   -1.0660    5.1400 hc        1 RRT      0.146500
     30 HA22       -0.0560    0.0300    3.9360 hc        1 RRT      0.146500
     31 C1          1.8190   -0.8710    3.2730 c2        1 RRT      0.310000
     32 HN3         1.4690    0.7160    1.9910 hn        1 RRT      0.258000
@<TRIPOS>BOND
     1    1   17 1   
     2    1   18 1   
     3    2    3 1   
     4    2    4 1   
     5    2   19 1   
     6    2   20 1   
     7    3    4 1   
     8    3   12 1   
     9    3   21 1   
    10    4    5 1   
    11    4   22 1   
    12    5    7 1   
    13    5   23 1   
    14    5   24 1   
    15    6    8 1   
    16    7    9 1   
    17    8   10 1   
    18    8   25 1   
    19    9   27 1   
    20   10   15 1   
    21   10   26 1   
    22   10   28 1   
    23   11   31 1   
    24   12   31 1   
    25   12   32 1   
    26   13   14 1   
    27   13   29 1   
    28   13   30 1   
    29   13   31 1   
    30   14   15 1   
    31   14   16 1   
@<TRIPOS>SUBSTRUCTURE
     1 RRT         1 TEMP              0 ****  ****    0 ROOT
