@<TRIPOS>MOLECULE
RRV
   47    47     1     0     0
SMALL
bcc


@<TRIPOS>ATOM
      1 C1          0.2650   -0.6780    0.1800 c3        1 RRV     -0.108600
      2 C2          1.7300   -0.2880    0.0710 c3        1 RRV     -0.051000
      3 C3          2.5490   -1.5440   -0.2320 c3        1 RRV     -0.108600
      4 C4          1.9500    0.6970   -1.0840 c3        1 RRV      0.128400
      5 O5          1.1710    1.8640   -0.8400 oh        1 RRV     -0.679800
      6 C6          2.2620    0.2930    1.4020 c3        1 RRV      0.107100
      7 C7          1.7380    1.6870    1.7710 c         1 RRV      0.511100
      8 O8          2.4440    2.6370    2.0700 o         1 RRV     -0.410100
      9 N9          0.2490    1.8930    1.8090 ny        1 RRV     -0.669800
     10 C10        -0.1830    2.9250    2.7970 c3        1 RRV      0.102800
     11 C11        -1.6930    3.1220    2.8120 c3        1 RRV     -0.108400
     12 C12        -2.0220    4.3480    3.6700 c3        1 RRV      0.153100
     13 O13        -1.3190    5.4350    3.0840 oh        1 RRV     -0.622800
     14 C15        -3.5330    4.5830    3.6930 c3        1 RRV     -0.066100
     15 C16        -3.9000    5.6640    4.6470 ca        1 RRV     -0.116300
     16 C17        -4.0440    6.9820    4.1970 ca        1 RRV     -0.128000
     17 C18        -4.3990    7.9930    5.0890 ca        1 RRV     -0.119500
     18 C19        -4.6130    7.6950    6.4350 ca        1 RRV     -0.112000
     19 C20        -4.4740    6.3820    6.8880 ca        1 RRV     -0.119500
     20 C21        -4.1190    5.3700    5.9980 ca        1 RRV     -0.128000
     21 O22         3.6600    0.4130    1.2640 oh        1 RRV     -0.547800
     22 H1          0.0120   -1.0360    1.2070 hc        1 RRV      0.059033
     23 H1A        -0.4090    0.1640   -0.1120 hc        1 RRV      0.059033
     24 H1B         0.0490   -1.5200   -0.5290 hc        1 RRV      0.059033
     25 H3          2.2160   -1.9910   -1.2000 hc        1 RRV      0.059033
     26 H3A         2.4080   -2.2960    0.5800 hc        1 RRV      0.059033
     27 H3B         3.6360   -1.2940   -0.3070 hc        1 RRV      0.059033
     28 H4          3.0380    0.9730   -1.1430 h1        1 RRV      0.069700
     29 H4A         1.6200    0.2230   -2.0470 h1        1 RRV      0.069700
     30 HO5         1.3360    2.4710   -1.5730 ho        1 RRV      0.447000
     31 H6          1.9940   -0.3980    2.2540 h1        1 RRV      0.081700
     32 HN9        -0.0390    2.1900    0.8590 hn        1 RRV      0.467800
     33 H10         0.1820    2.6060    3.8140 hx        1 RRV      0.121700
     34 H10A        0.3260    3.9010    2.5290 hx        1 RRV      0.121700
     35 H11        -2.2110    2.2280    3.2430 hc        1 RRV      0.069700
     36 H11A       -2.0830    3.2980    1.7750 hc        1 RRV      0.069700
     37 H12        -1.6430    4.1940    4.7210 h1        1 RRV      0.053700
     38 HO13       -1.6900    6.2490    3.4530 ho        1 RRV      0.438000
     39 H15        -3.8760    4.8500    2.6580 hc        1 RRV      0.065700
     40 H15A       -4.0430    3.6270    3.9880 hc        1 RRV      0.065700
     41 H17        -3.8900    7.2200    3.1340 ha        1 RRV      0.131000
     42 H18        -4.5150    9.0260    4.7290 ha        1 RRV      0.143500
     43 H19        -4.8960    8.4930    7.1380 ha        1 RRV      0.146000
     44 H20        -4.6490    6.1440    7.9480 ha        1 RRV      0.143500
     45 H21        -4.0190    4.3350    6.3570 ha        1 RRV      0.131000
     46 HO22        4.0350    0.6500    2.1250 ho        1 RRV      0.436000
     47 H92        -0.2110    1.0000    2.0090 hn        1 RRV      0.467800
@<TRIPOS>BOND
     1    1    2 1   
     2    1   22 1   
     3    1   23 1   
     4    1   24 1   
     5    2    3 1   
     6    2    4 1   
     7    2    6 1   
     8    3   25 1   
     9    3   26 1   
    10    3   27 1   
    11    4    5 1   
    12    4   28 1   
    13    4   29 1   
    14    5   30 1   
    15    6    7 1   
    16    6   21 1   
    17    6   31 1   
    18    7    8 2   
    19    7    9 1   
    20    9   10 1   
    21    9   32 1   
    22    9   47 1   
    23   10   11 1   
    24   10   33 1   
    25   10   34 1   
    26   11   12 1   
    27   11   35 1   
    28   11   36 1   
    29   12   13 1   
    30   12   14 1   
    31   12   37 1   
    32   13   38 1   
    33   14   15 1   
    34   14   39 1   
    35   14   40 1   
    36   15   16 ar  
    37   15   20 ar  
    38   16   17 ar  
    39   16   41 1   
    40   17   18 ar  
    41   17   42 1   
    42   18   19 ar  
    43   18   43 1   
    44   19   20 ar  
    45   19   44 1   
    46   20   45 1   
    47   21   46 1   
@<TRIPOS>SUBSTRUCTURE
     1 RRV         1 TEMP              0 ****  ****    0 ROOT
