@<TRIPOS>MOLECULE
RRV
   47    47     1     0     0
SMALL
bcc


@<TRIPOS>ATOM
      1 C1          0.2060   -0.7020    0.1880 c3        1 RRV     -0.108600
      2 C2          1.6730   -0.3260    0.0570 c3        1 RRV     -0.051000
      3 C3          2.4780   -1.5910   -0.2480 c3        1 RRV     -0.108600
      4 C4          1.8860    0.6490   -1.1090 c3        1 RRV      0.128400
      5 O5          1.1210    1.8240   -0.8630 oh        1 RRV     -0.679800
      6 C6          2.2280    0.2610    1.3760 c3        1 RRV      0.107100
      7 C7          1.7210    1.6620    1.7410 c         1 RRV      0.511100
      8 O8          2.4400    2.6080    2.0230 o         1 RRV     -0.410100
      9 N9          0.2350    1.8810    1.7980 n4        1 RRV     -0.669800
     10 C10        -0.1750    2.9230    2.7850 c3        1 RRV      0.102800
     11 C11        -1.6820    3.1340    2.8190 c3        1 RRV     -0.108400
     12 C12        -1.9890    4.3670    3.6760 c3        1 RRV      0.153100
     13 O13        -1.2830    5.4440    3.0760 oh        1 RRV     -0.622800
     14 C15        -3.4970    4.6160    3.7170 c3        1 RRV     -0.066100
     15 C16        -3.8420    5.7040    4.6710 ca        1 RRV     -0.116300
     16 C17        -3.9790    7.0220    4.2180 ca        1 RRV     -0.128000
     17 C18        -4.3140    8.0390    5.1100 ca        1 RRV     -0.119500
     18 C19        -4.5130    7.7480    6.4600 ca        1 RRV     -0.112000
     19 C20        -4.3810    6.4360    6.9150 ca        1 RRV     -0.119500
     20 C21        -4.0460    5.4170    6.0250 ca        1 RRV     -0.128000
     21 O22         3.6250    0.3670    1.2180 oh        1 RRV     -0.547800
     22 H1         -0.4640    0.1430   -0.1010 hc        1 RRV      0.059033
     23 H1A        -0.0260   -1.5470   -0.5110 hc        1 RRV      0.059033
     24 H1B        -0.0350   -1.0510    1.2210 hc        1 RRV      0.059033
     25 H3          2.1280   -2.0420   -1.2080 hc        1 RRV      0.059033
     26 H3A         2.3400   -2.3360    0.5720 hc        1 RRV      0.059033
     27 H3B         3.5660   -1.3520   -0.3390 hc        1 RRV      0.059033
     28 H4          1.5400    0.1700   -2.0640 h1        1 RRV      0.069700
     29 H4A         2.9750    0.9150   -1.1840 h1        1 RRV      0.069700
     30 HO5         1.2810    2.4250   -1.6030 ho        1 RRV      0.447000
     31 H6          1.9660   -0.4210    2.2360 h1        1 RRV      0.081700
     32 HN9        -0.0630    2.1750    0.8500 hn        1 RRV      0.467300
     33 H10         0.3400    3.8930    2.5030 hx        1 RRV      0.121700
     34 H10A        0.2010    2.6070    3.7990 hx        1 RRV      0.121700
     35 H11        -2.0840    3.3090    1.7860 hc        1 RRV      0.069700
     36 H11A       -2.2020    2.2460    3.2610 hc        1 RRV      0.069700
     37 H12        -1.5980    4.2130    4.7220 h1        1 RRV      0.053700
     38 HO13       -1.6420    6.2640    3.4460 ho        1 RRV      0.438000
     39 H15        -3.8510    4.8820    2.6850 hc        1 RRV      0.065700
     40 H15A       -4.0120    3.6660    4.0210 hc        1 RRV      0.065700
     41 H17        -3.8370    7.2540    3.1510 ha        1 RRV      0.131000
     42 H18        -4.4250    9.0720    4.7470 ha        1 RRV      0.143500
     43 H19        -4.7810    8.5520    7.1630 ha        1 RRV      0.146000
     44 H20        -4.5440    6.2040    7.9790 ha        1 RRV      0.143500
     45 H21        -3.9520    4.3830    6.3870 ha        1 RRV      0.131000
     46 HO22        4.0130    0.6080    2.0730 ho        1 RRV      0.436000
     47 H92        -0.2300    0.9930    2.0100 hn        1 RRV      0.467300
@<TRIPOS>BOND
     1    1    2 1   
     2    1   22 1   
     3    1   23 1   
     4    1   24 1   
     5    2    3 1   
     6    2    4 1   
     7    2    6 1   
     8    3   25 1   
     9    3   26 1   
    10    3   27 1   
    11    4    5 1   
    12    4   28 1   
    13    4   29 1   
    14    5   30 1   
    15    6    7 1   
    16    6   21 1   
    17    6   31 1   
    18    7    8 2   
    19    7    9 1   
    20    9   10 1   
    21    9   32 1   
    22    9   47 1   
    23   10   11 1   
    24   10   33 1   
    25   10   34 1   
    26   11   12 1   
    27   11   35 1   
    28   11   36 1   
    29   12   13 1   
    30   12   14 1   
    31   12   37 1   
    32   13   38 1   
    33   14   15 1   
    34   14   39 1   
    35   14   40 1   
    36   15   16 ar  
    37   15   20 ar  
    38   16   17 ar  
    39   16   41 1   
    40   17   18 ar  
    41   17   42 1   
    42   18   19 ar  
    43   18   43 1   
    44   19   20 ar  
    45   19   44 1   
    46   20   45 1   
    47   21   46 1   
@<TRIPOS>SUBSTRUCTURE
     1 RRV         1 TEMP              0 ****  ****    0 ROOT
