@<TRIPOS>MOLECULE
RS1
   49    51     1     0     0
SMALL
bcc


@<TRIPOS>ATOM
      1 C1         -1.0980   -1.2430    0.7580 ca        1 RS1     -0.113500
      2 C2         -0.2940   -1.4250   -0.3750 ca        1 RS1      0.029400
      3 C3          0.9270   -0.7520   -0.5030 ca        1 RS1     -0.113500
      4 C4          1.3570    0.1040    0.5090 ca        1 RS1     -0.113500
      5 C5          0.5460    0.2740    1.6370 ca        1 RS1      0.040100
      6 C6         -0.6790   -0.3880    1.7740 ca        1 RS1     -0.113500
      7 O11         0.9150    1.2530    2.5740 os        1 RS1     -0.221200
      8 C12         1.4890    0.8180    3.7370 ca        1 RS1      0.238100
      9 C13         1.7730   -0.5270    4.0360 ca        1 RS1     -0.202000
     10 C14         2.3640   -0.8400    5.2470 ca        1 RS1      0.032500
     11 C15         2.6930    0.1550    6.1910 ca        1 RS1     -0.521500
     12 C16         2.3850    1.4950    5.8680 ca        1 RS1      0.032500
     13 C17         1.7980    1.8390    4.6680 ca        1 RS1     -0.202000
     14 S22         3.3300   -0.2470    7.6220 sy        1 RS1      1.428300
     15 O23         3.0900   -1.5640    8.0020 o         1 RS1     -0.674800
     16 O24         3.1410    0.7500    8.6160 o         1 RS1     -0.674800
     17 C25         5.0470   -0.0730    7.2880 c3        1 RS1     -0.319600
     18 C26         6.0540   -0.5340    8.3340 c3        1 RS1     -0.041000
     19 C29         7.4620   -0.0870    7.9120 c3        1 RS1     -0.125400
     20 C30         8.5410   -0.7210    8.7770 c3        1 RS1      0.113400
     21 O31         8.4540   -2.1360    8.7430 os        1 RS1     -0.383600
     22 C32         7.2100   -2.6190    9.2350 c3        1 RS1      0.113400
     23 C33         6.0340   -2.0680    8.4450 c3        1 RS1     -0.125400
     24 C40         5.7620    0.0500    9.7120 c         1 RS1      0.543100
     25 N41         5.5040    1.5630    9.7900 n4        1 RS1     -0.473300
     26 O42         5.7320   -0.5010   10.7980 o         1 RS1     -0.398100
     27 O43         5.9040    2.1090   10.9590 oh        1 RS1     -0.363300
     28 CL2        -0.8080   -2.4690   -1.6060 cl        1 RS1     -0.053400
     29 H1         -2.0630   -1.7680    0.8450 ha        1 RS1      0.164500
     30 H3          1.5480   -0.8930   -1.4020 ha        1 RS1      0.164500
     31 H4          2.3060    0.6520    0.4170 ha        1 RS1      0.157000
     32 H6         -1.3060   -0.2230    2.6630 ha        1 RS1      0.157000
     33 H13         1.5180   -1.3180    3.3120 ha        1 RS1      0.177000
     34 H14         2.5680   -1.8990    5.4920 ha        1 RS1      0.155500
     35 H16         2.6040    2.2860    6.6080 ha        1 RS1      0.155500
     36 H17         1.5550    2.8850    4.4220 ha        1 RS1      0.177000
     37 H251        5.2580    0.9970    7.0220 h1        1 RS1      0.119200
     38 H252        5.2900   -0.6470    6.3490 h1        1 RS1      0.119200
     39 H291        7.5600    1.0270    7.9330 hc        1 RS1      0.085450
     40 H292        7.6140   -0.4190    6.8490 hc        1 RS1      0.085450
     41 H301        9.5630   -0.4950    8.3670 h1        1 RS1      0.073200
     42 H302        8.4650   -0.3550    9.8360 h1        1 RS1      0.073200
     43 H321        7.1100   -2.3740   10.3260 h1        1 RS1      0.073200
     44 H322        7.2800   -3.7340    9.1030 h1        1 RS1      0.073200
     45 H331        5.0740   -2.4130    8.9140 hc        1 RS1      0.085450
     46 H332        6.0760   -2.4800    7.4010 hc        1 RS1      0.085450
     47 HN          4.4780    1.7470    9.6430 hn        1 RS1      0.499800
     48 HO          5.5790    1.5420   11.7000 ho        1 RS1      0.484000
     49 H412        6.0450    2.0520    9.0540 hn        1 RS1      0.499800
@<TRIPOS>BOND
     1    1    2 ar  
     2    1    6 ar  
     3    1   29 1   
     4    2    3 ar  
     5    2   28 1   
     6    3    4 ar  
     7    3   30 1   
     8    4    5 ar  
     9    4   31 1   
    10    5    6 ar  
    11    5    7 1   
    12    6   32 1   
    13    7    8 1   
    14    8    9 ar  
    15    8   13 ar  
    16    9   10 ar  
    17    9   33 1   
    18   10   11 ar  
    19   10   34 1   
    20   11   12 ar  
    21   11   14 1   
    22   12   13 ar  
    23   12   35 1   
    24   13   36 1   
    25   14   15 2   
    26   14   16 2   
    27   14   17 1   
    28   17   18 1   
    29   17   37 1   
    30   17   38 1   
    31   18   19 1   
    32   18   23 1   
    33   18   24 1   
    34   19   20 1   
    35   19   39 1   
    36   19   40 1   
    37   20   21 1   
    38   20   41 1   
    39   20   42 1   
    40   21   22 1   
    41   22   23 1   
    42   22   43 1   
    43   22   44 1   
    44   23   45 1   
    45   23   46 1   
    46   24   25 1   
    47   24   26 2   
    48   25   27 1   
    49   25   47 1   
    50   25   49 1   
    51   27   48 1   
@<TRIPOS>SUBSTRUCTURE
     1 RS1         1 TEMP              0 ****  ****    0 ROOT
