@<TRIPOS>MOLECULE
RS1
   49    51     1     0     0
SMALL
bcc


@<TRIPOS>ATOM
      1 C1         -1.0450   -1.2780    0.7150 ca        1 RS1     -0.113500
      2 C2         -0.2310   -1.4190   -0.4170 ca        1 RS1      0.029400
      3 C3          0.9730   -0.7120   -0.5260 ca        1 RS1     -0.113500
      4 C4          1.3750    0.1370    0.5030 ca        1 RS1     -0.113500
      5 C5          0.5550    0.2660    1.6290 ca        1 RS1      0.040100
      6 C6         -0.6530   -0.4300    1.7480 ca        1 RS1     -0.113500
      7 O11         0.8940    1.2380    2.5850 os        1 RS1     -0.221200
      8 C12         1.4730    0.7970    3.7440 ca        1 RS1      0.238100
      9 C13         1.7900   -0.5450    4.0210 ca        1 RS1     -0.202000
     10 C14         2.3820   -0.8640    5.2290 ca        1 RS1      0.032500
     11 C15         2.6810    0.1230    6.1920 ca        1 RS1     -0.521500
     12 C16         2.3410    1.4600    5.8910 ca        1 RS1      0.032500
     13 C17         1.7500    1.8100    4.6940 ca        1 RS1     -0.202000
     14 S22         3.3210   -0.2880    7.6190 sy        1 RS1      1.428300
     15 O23         3.1130   -1.6170    7.9760 o         1 RS1     -0.674800
     16 O24         3.1020    0.6870    8.6300 o         1 RS1     -0.674800
     17 C25         5.0350   -0.0650    7.2980 c3        1 RS1     -0.319600
     18 C26         6.0480   -0.5190    8.3410 c3        1 RS1     -0.041000
     19 C29         7.4460   -0.0290    7.9350 c3        1 RS1     -0.125400
     20 C30         8.5370   -0.6520    8.7950 c3        1 RS1      0.113400
     21 O31         8.4860   -2.0670    8.7360 os        1 RS1     -0.383600
     22 C32         7.2510   -2.5900    9.2120 c3        1 RS1      0.113400
     23 C33         6.0660   -2.0550    8.4260 c3        1 RS1     -0.125400
     24 C40         5.7340    0.0330    9.7280 c         1 RS1      0.543100
     25 N41         5.4380    1.5380    9.8290 ny        1 RS1     -0.473300
     26 O42         5.7130   -0.5370   10.8030 o         1 RS1     -0.398100
     27 O43         5.8190    2.0740   11.0110 oh        1 RS1     -0.363300
     28 Cl2        -0.7110   -2.4530   -1.6690 cl        1 RS1     -0.053400
     29 H1         -1.9960   -1.8290    0.7880 ha        1 RS1      0.164500
     30 H3          1.6010   -0.8200   -1.4250 ha        1 RS1      0.164500
     31 H4          2.3100    0.7110    0.4250 ha        1 RS1      0.157000
     32 H6         -1.2880   -0.2970    2.6370 ha        1 RS1      0.157000
     33 H13         1.5590   -1.3300    3.2820 ha        1 RS1      0.177000
     34 H14         2.6130   -1.9220    5.4570 ha        1 RS1      0.155500
     35 H16         2.5350    2.2420    6.6460 ha        1 RS1      0.155500
     36 H17         1.4820    2.8530    4.4650 ha        1 RS1      0.177000
     37 H251        5.2210    1.0140    7.0520 h1        1 RS1      0.119200
     38 H252        5.2970   -0.6170    6.3500 h1        1 RS1      0.119200
     39 H291        7.6120   -0.3400    6.8670 hc        1 RS1      0.085450
     40 H292        7.5170    1.0860    7.9750 hc        1 RS1      0.085450
     41 H301        9.5540   -0.3930    8.3950 h1        1 RS1      0.073200
     42 H302        8.4460   -0.3060    9.8600 h1        1 RS1      0.073200
     43 H321        7.1400   -2.3660   10.3070 h1        1 RS1      0.073200
     44 H322        7.3500   -3.7000    9.0610 h1        1 RS1      0.073200
     45 H331        5.1120   -2.4320    8.8830 hc        1 RS1      0.085450
     46 H332        6.1230   -2.4480    7.3750 hc        1 RS1      0.085450
     47 HN          4.4090    1.6980    9.6810 hn        1 RS1      0.499800
     48 HO          5.5040    1.4860   11.7400 ho        1 RS1      0.484000
     49 H412        5.9700    2.0540    9.1050 hn        1 RS1      0.499800
@<TRIPOS>BOND
     1    1    2 ar  
     2    1    6 ar  
     3    1   29 1   
     4    2    3 ar  
     5    2   28 1   
     6    3    4 ar  
     7    3   30 1   
     8    4    5 ar  
     9    4   31 1   
    10    5    6 ar  
    11    5    7 1   
    12    6   32 1   
    13    7    8 1   
    14    8    9 ar  
    15    8   13 ar  
    16    9   10 ar  
    17    9   33 1   
    18   10   11 ar  
    19   10   34 1   
    20   11   12 ar  
    21   11   14 1   
    22   12   13 ar  
    23   12   35 1   
    24   13   36 1   
    25   14   15 2   
    26   14   16 2   
    27   14   17 1   
    28   17   18 1   
    29   17   37 1   
    30   17   38 1   
    31   18   19 1   
    32   18   23 1   
    33   18   24 1   
    34   19   20 1   
    35   19   39 1   
    36   19   40 1   
    37   20   21 1   
    38   20   41 1   
    39   20   42 1   
    40   21   22 1   
    41   22   23 1   
    42   22   43 1   
    43   22   44 1   
    44   23   45 1   
    45   23   46 1   
    46   24   25 1   
    47   24   26 2   
    48   25   27 1   
    49   25   47 1   
    50   25   49 1   
    51   27   48 1   
@<TRIPOS>SUBSTRUCTURE
     1 RS1         1 TEMP              0 ****  ****    0 ROOT
