@<TRIPOS>MOLECULE
RS1
   48    50     1     0     0
SMALL
bcc


@<TRIPOS>ATOM
      1 C1          0.6110    1.5380   -6.2700 ca        1 RS1     -0.112000
      2 C2         -0.5980    1.3650   -6.9540 ca        1 RS1      0.015400
      3 C3         -1.4780    0.3350   -6.6040 ca        1 RS1     -0.112000
      4 C4         -1.1540   -0.5280   -5.5590 ca        1 RS1     -0.126000
      5 C5          0.0590   -0.3490   -4.8830 ca        1 RS1      0.074100
      6 C6          0.9460    0.6770   -5.2280 ca        1 RS1     -0.126000
      7 O11         0.4100   -1.3220   -3.9420 os        1 RS1     -0.240200
      8 C12         0.6140   -0.8990   -2.6440 ca        1 RS1      0.192100
      9 C13         0.3120    0.3870   -2.1720 ca        1 RS1     -0.200500
     10 C14         0.5330    0.6790   -0.8320 ca        1 RS1      0.016500
     11 C15         1.0450   -0.2800    0.0520 ca        1 RS1     -0.439500
     12 C16         1.3490   -1.5570   -0.4500 ca        1 RS1      0.016500
     13 C17         1.1400   -1.8810   -1.7810 ca        1 RS1     -0.200500
     14 S22         1.3360    0.1010    1.6460 sy        1 RS1      1.391300
     15 O23         1.5360    1.4780    1.7870 o         1 RS1     -0.655300
     16 O24         2.2980   -0.7720    2.1860 o         1 RS1     -0.655300
     17 C25        -0.1890   -0.3630    2.3080 c3        1 RS1     -0.312600
     18 C26        -0.5350    0.0300    3.7450 c3        1 RS1     -0.058000
     19 C29        -1.9210   -0.5540    4.0630 c3        1 RS1     -0.107900
     20 C30        -2.5080    0.0390    5.3310 c3        1 RS1      0.122900
     21 O31        -2.5970    1.4550    5.2400 os        1 RS1     -0.414600
     22 C32        -1.3180    2.0610    5.0820 c3        1 RS1      0.122900
     23 C33        -0.5910    1.5590    3.8450 c3        1 RS1     -0.107900
     24 C40         0.4440   -0.5320    4.7840 c         1 RS1      0.575100
     25 N41         0.9500   -1.8590    4.6010 n         1 RS1     -0.345400
     26 O42         0.6510    0.0470    5.8640 o         1 RS1     -0.561100
     27 O43         1.8640   -2.2220    5.5070 oh        1 RS1     -0.428100
     28 CL2        -1.0010    2.4170   -8.2240 cl        1 RS1     -0.078400
     29 H1          1.3000    2.3490   -6.5550 ha        1 RS1      0.156500
     30 H3         -2.4250    0.2030   -7.1490 ha        1 RS1      0.156500
     31 H4         -1.8290   -1.3490   -5.2750 ha        1 RS1      0.157000
     32 H6          1.8940    0.7960   -4.6830 ha        1 RS1      0.157000
     33 H13        -0.0900    1.1510   -2.8540 ha        1 RS1      0.162500
     34 H14         0.3130    1.6960   -0.4550 ha        1 RS1      0.159500
     35 H16         1.7810   -2.3120    0.2320 ha        1 RS1      0.159500
     36 H17         1.3790   -2.8800   -2.1730 ha        1 RS1      0.162500
     37 H251       -0.3120   -1.4770    2.2170 h1        1 RS1      0.114200
     38 H252       -1.0100    0.0640    1.6650 h1        1 RS1      0.114200
     39 H291       -2.6070   -0.3240    3.2060 hc        1 RS1      0.064700
     40 H292       -1.8540   -1.6670    4.1640 hc        1 RS1      0.064700
     41 H301       -3.5690   -0.2980    5.4750 h1        1 RS1      0.061700
     42 H302       -1.8880   -0.2450    6.2240 h1        1 RS1      0.061700
     43 H321       -1.5470    3.1550    4.9810 h1        1 RS1      0.061700
     44 H322       -0.7010    1.8800    6.0030 h1        1 RS1      0.061700
     45 H331        0.4500    1.9770    3.8480 hc        1 RS1      0.064700
     46 H332       -1.1170    1.9510    2.9350 hc        1 RS1      0.064700
     47 HN          1.3770   -1.9980    3.6870 hn        1 RS1      0.321500
     48 HO          1.4050   -2.2320    6.3700 ho        1 RS1      0.427000
@<TRIPOS>BOND
     1    1    2 ar  
     2    1    6 ar  
     3    1   29 1   
     4    2    3 ar  
     5    2   28 1   
     6    3    4 ar  
     7    3   30 1   
     8    4    5 ar  
     9    4   31 1   
    10    5    6 ar  
    11    5    7 1   
    12    6   32 1   
    13    7    8 1   
    14    8    9 ar  
    15    8   13 ar  
    16    9   10 ar  
    17    9   33 1   
    18   10   11 ar  
    19   10   34 1   
    20   11   12 ar  
    21   11   14 1   
    22   12   13 ar  
    23   12   35 1   
    24   13   36 1   
    25   14   15 2   
    26   14   16 2   
    27   14   17 1   
    28   17   18 1   
    29   17   37 1   
    30   17   38 1   
    31   18   19 1   
    32   18   23 1   
    33   18   24 1   
    34   19   20 1   
    35   19   39 1   
    36   19   40 1   
    37   20   21 1   
    38   20   41 1   
    39   20   42 1   
    40   21   22 1   
    41   22   23 1   
    42   22   43 1   
    43   22   44 1   
    44   23   45 1   
    45   23   46 1   
    46   24   25 1   
    47   24   26 2   
    48   25   27 1   
    49   25   47 1   
    50   27   48 1   
@<TRIPOS>SUBSTRUCTURE
     1 RS1         1 TEMP              0 ****  ****    0 ROOT
