@<TRIPOS>MOLECULE
RS1
   49    51     1     0     0
SMALL
bcc


@<TRIPOS>ATOM
      1 C1         -1.0960   -1.2330    0.7590 ca        1 RS1     -0.113500
      2 C2         -0.2950   -1.4000   -0.3790 ca        1 RS1      0.029400
      3 C3          0.9200   -0.7170   -0.5050 ca        1 RS1     -0.113500
      4 C4          1.3470    0.1340    0.5120 ca        1 RS1     -0.113500
      5 C5          0.5400    0.2890    1.6440 ca        1 RS1      0.040100
      6 C6         -0.6800   -0.3830    1.7800 ca        1 RS1     -0.113500
      7 O11         0.9050    1.2640    2.5870 os        1 RS1     -0.221200
      8 C12         1.4820    0.8240    3.7470 ca        1 RS1      0.238100
      9 C13         1.7730   -0.5220    4.0360 ca        1 RS1     -0.202000
     10 C14         2.3660   -0.8400    5.2450 ca        1 RS1      0.032500
     11 C15         2.6910    0.1500    6.1950 ca        1 RS1     -0.521500
     12 C16         2.3770    1.4910    5.8810 ca        1 RS1      0.032500
     13 C17         1.7870    1.8400    4.6840 ca        1 RS1     -0.202000
     14 S22         3.3310   -0.2580    7.6230 sy        1 RS1      1.428300
     15 O23         3.0970   -1.5790    7.9950 o         1 RS1     -0.674800
     16 O24         3.1400    0.7320    8.6230 o         1 RS1     -0.674800
     17 C25         5.0480   -0.0770    7.2880 c3        1 RS1     -0.319600
     18 C26         6.0570   -0.5400    8.3300 c3        1 RS1     -0.041000
     19 C29         7.4630   -0.0860    7.9100 c3        1 RS1     -0.125400
     20 C30         8.5450   -0.7230    8.7690 c3        1 RS1      0.113400
     21 O31         8.4630   -2.1380    8.7270 os        1 RS1     -0.383600
     22 C32         7.2210   -2.6280    9.2160 c3        1 RS1      0.113400
     23 C33         6.0430   -2.0760    8.4320 c3        1 RS1     -0.125400
     24 C40         5.7650    0.0330    9.7120 c         1 RS1      0.543100
     25 N41         5.5020    1.5450    9.7990 n4        1 RS1     -0.473300
     26 O42         5.7380   -0.5240   10.7940 o         1 RS1     -0.398100
     27 O43         5.9020    2.0860   10.9720 oh        1 RS1     -0.363300
     28 CL2        -0.8060   -2.4380   -1.6160 cl        1 RS1     -0.053400
     29 H1         -2.0570   -1.7660    0.8460 ha        1 RS1      0.164500
     30 H3          1.5390   -0.8450   -1.4080 ha        1 RS1      0.164500
     31 H4          2.2920    0.6900    0.4210 ha        1 RS1      0.157000
     32 H6         -1.3050   -0.2300    2.6730 ha        1 RS1      0.157000
     33 H13         1.5200   -1.3090    3.3080 ha        1 RS1      0.177000
     34 H14         2.5750   -1.9000    5.4830 ha        1 RS1      0.155500
     35 H16         2.5930    2.2770    6.6270 ha        1 RS1      0.155500
     36 H17         1.5390    2.8860    4.4450 ha        1 RS1      0.177000
     37 H251        5.2910   -0.6440    6.3450 h1        1 RS1      0.119200
     38 H252        5.2550    0.9950    7.0290 h1        1 RS1      0.119200
     39 H291        7.5580    1.0280    7.9370 hc        1 RS1      0.085450
     40 H292        7.6150   -0.4120    6.8440 hc        1 RS1      0.085450
     41 H301        9.5660   -0.4910    8.3600 h1        1 RS1      0.073200
     42 H302        8.4690   -0.3630    9.8310 h1        1 RS1      0.073200
     43 H321        7.2950   -3.7410    9.0770 h1        1 RS1      0.073200
     44 H322        7.1210   -2.3900   10.3100 h1        1 RS1      0.073200
     45 H331        5.0830   -2.4270    8.8990 hc        1 RS1      0.085450
     46 H332        6.0840   -2.4810    7.3850 hc        1 RS1      0.085450
     47 HN          6.0400    2.0410    9.0660 hn        1 RS1      0.499800
     48 HO          5.5790    1.5130   11.7100 ho        1 RS1      0.484000
     49 H412        4.4750    1.7260    9.6550 hn        1 RS1      0.499800
@<TRIPOS>BOND
     1    1    2 ar  
     2    1    6 ar  
     3    1   29 1   
     4    2    3 ar  
     5    2   28 1   
     6    3    4 ar  
     7    3   30 1   
     8    4    5 ar  
     9    4   31 1   
    10    5    6 ar  
    11    5    7 1   
    12    6   32 1   
    13    7    8 1   
    14    8    9 ar  
    15    8   13 ar  
    16    9   10 ar  
    17    9   33 1   
    18   10   11 ar  
    19   10   34 1   
    20   11   12 ar  
    21   11   14 1   
    22   12   13 ar  
    23   12   35 1   
    24   13   36 1   
    25   14   15 2   
    26   14   16 2   
    27   14   17 1   
    28   17   18 1   
    29   17   37 1   
    30   17   38 1   
    31   18   19 1   
    32   18   23 1   
    33   18   24 1   
    34   19   20 1   
    35   19   39 1   
    36   19   40 1   
    37   20   21 1   
    38   20   41 1   
    39   20   42 1   
    40   21   22 1   
    41   22   23 1   
    42   22   43 1   
    43   22   44 1   
    44   23   45 1   
    45   23   46 1   
    46   24   25 1   
    47   24   26 2   
    48   25   27 1   
    49   25   47 1   
    50   25   49 1   
    51   27   48 1   
@<TRIPOS>SUBSTRUCTURE
     1 RS1         1 TEMP              0 ****  ****    0 ROOT
