@<TRIPOS>MOLECULE
RS2
   48    50     1     0     0
SMALL
bcc


@<TRIPOS>ATOM
      1 C1         -1.0870   -0.5220   -6.4540 ca        1 RS2     -0.116500
      2 C2         -1.7230    0.5960   -6.9970 ca        1 RS2     -0.129000
      3 C3         -1.5140    1.8610   -6.4490 ca        1 RS2     -0.116500
      4 C4         -0.6700    2.0230   -5.3500 ca        1 RS2     -0.135000
      5 C5         -0.0350    0.8930   -4.8190 ca        1 RS2      0.074100
      6 C6         -0.2350   -0.3830   -5.3600 ca        1 RS2     -0.135000
      7 O12         0.9120    1.1120   -3.8140 os        1 RS2     -0.243200
      8 C13         0.7000    0.4870   -2.6020 ca        1 RS2      0.192100
      9 C14         1.7740    0.5780   -1.6940 ca        1 RS2     -0.206000
     10 C15         1.6380    0.0100   -0.4370 ca        1 RS2      0.013500
     11 C16         0.4550   -0.6410   -0.0480 ca        1 RS2     -0.431500
     12 C17        -0.5890   -0.7330   -0.9800 ca        1 RS2      0.013500
     13 C18        -0.4840   -0.1750   -2.2470 ca        1 RS2     -0.206000
     14 S23         0.3410   -1.3800    1.4420 sy        1 RS2      1.351300
     15 C24        -0.5820   -0.2020    2.4020 c3        1 RS2     -0.194200
     16 O25         1.6140   -1.5220    2.0140 o         1 RS2     -0.642300
     17 O26        -0.4470   -2.5390    1.3300 o         1 RS2     -0.642300
     18 C27         0.0330    1.1880    2.4370 c3        1 RS2     -0.123400
     19 C28         1.3280    1.3240    3.2120 c         1 RS2      0.589100
     20 O31         1.4130    1.1180    4.4320 o         1 RS2     -0.546100
     21 N32         2.5000    1.6410    2.4510 n         1 RS2     -0.345400
     22 O33         3.5510    2.0140    3.1840 oh        1 RS2     -0.440100
     23 C36        -0.7000   -0.8280    3.7930 c3        1 RS2     -0.106400
     24 C37        -1.7020   -0.0960    4.6660 c3        1 RS2      0.136400
     25 O38        -2.9900   -0.0390    4.0620 os        1 RS2     -0.410600
     26 C39        -2.9750    0.5730    2.7820 c3        1 RS2      0.136400
     27 C40        -1.9960   -0.0880    1.8270 c3        1 RS2     -0.106400
     28 H1         -1.2520   -1.5170   -6.8930 ha        1 RS2      0.141500
     29 H2         -2.3920    0.4780   -7.8630 ha        1 RS2      0.140000
     30 H3         -2.0150    2.7400   -6.8820 ha        1 RS2      0.141500
     31 H4         -0.4880    3.0140   -4.9120 ha        1 RS2      0.151000
     32 H6          0.2770   -1.2540   -4.9250 ha        1 RS2      0.151000
     33 H14         2.7010    1.0860   -1.9970 ha        1 RS2      0.161000
     34 H15         2.4880    0.0480    0.2710 ha        1 RS2      0.164000
     35 H17        -1.5100   -1.2780   -0.7020 ha        1 RS2      0.164000
     36 H18        -1.3130   -0.2570   -2.9660 ha        1 RS2      0.161000
     37 H271       -0.6880    1.8930    2.9410 hc        1 RS2      0.074700
     38 H272        0.1580    1.5410    1.3760 hc        1 RS2      0.074700
     39 HNW         2.3290    2.3750    1.7710 hn        1 RS2      0.290500
     40 HOX         3.8800    1.1970    3.6110 ho        1 RS2      0.442000
     41 H361       -1.0410   -1.8940    3.6730 hc        1 RS2      0.075700
     42 H362        0.2990   -0.8280    4.3040 hc        1 RS2      0.075700
     43 H371       -1.8770   -0.6550    5.6230 h1        1 RS2      0.052450
     44 H372       -1.3400    0.9430    4.8920 h1        1 RS2      0.052450
     45 H391       -4.0280    0.4480    2.4090 h1        1 RS2      0.052450
     46 H392       -2.7480    1.6670    2.8930 h1        1 RS2      0.052450
     47 H401       -1.9710    0.5010    0.8730 hc        1 RS2      0.075700
     48 H402       -2.3690   -1.1250    1.5980 hc        1 RS2      0.075700
@<TRIPOS>BOND
     1    1    2 ar  
     2    1    6 ar  
     3    1   28 1   
     4    2    3 ar  
     5    2   29 1   
     6    3    4 ar  
     7    3   30 1   
     8    4    5 ar  
     9    4   31 1   
    10    5    6 ar  
    11    5    7 1   
    12    6   32 1   
    13    7    8 1   
    14    8    9 ar  
    15    8   13 ar  
    16    9   10 ar  
    17    9   33 1   
    18   10   11 ar  
    19   10   34 1   
    20   11   12 ar  
    21   11   14 1   
    22   12   13 ar  
    23   12   35 1   
    24   13   36 1   
    25   14   15 1   
    26   14   16 2   
    27   14   17 2   
    28   15   18 1   
    29   15   23 1   
    30   15   27 1   
    31   18   19 1   
    32   18   37 1   
    33   18   38 1   
    34   19   20 2   
    35   19   21 1   
    36   21   22 1   
    37   21   39 1   
    38   22   40 1   
    39   23   24 1   
    40   23   41 1   
    41   23   42 1   
    42   24   25 1   
    43   24   43 1   
    44   24   44 1   
    45   25   26 1   
    46   26   27 1   
    47   26   45 1   
    48   26   46 1   
    49   27   47 1   
    50   27   48 1   
@<TRIPOS>SUBSTRUCTURE
     1 RS2         1 TEMP              0 ****  ****    0 ROOT
