@<TRIPOS>MOLECULE
RS2
   49    51     1     0     0
SMALL
bcc


@<TRIPOS>ATOM
      1 C1         -1.1940   -0.7460    0.4170 ca        1 RS2     -0.115500
      2 C2         -0.4170   -0.7720   -0.7440 ca        1 RS2     -0.111000
      3 C3          0.7480   -0.0090   -0.8310 ca        1 RS2     -0.115500
      4 C4          1.1530    0.7840    0.2430 ca        1 RS2     -0.124000
      5 C5          0.3620    0.7970    1.3970 ca        1 RS2      0.043100
      6 C6         -0.8110    0.0410    1.5020 ca        1 RS2     -0.124000
      7 O12         0.6910    1.7190    2.4060 os        1 RS2     -0.219200
      8 C13         1.2680    1.2220    3.5420 ca        1 RS2      0.238100
      9 C14         1.6020   -0.1310    3.7460 ca        1 RS2     -0.202500
     10 C15         2.1930   -0.5070    4.9380 ca        1 RS2      0.028500
     11 C16         2.4780    0.4240    5.9560 ca        1 RS2     -0.510500
     12 C17         2.1150    1.7710    5.7300 ca        1 RS2      0.028500
     13 C18         1.5250    2.1800    4.5510 ca        1 RS2     -0.202500
     14 S23         3.0920   -0.0240    7.3910 sy        1 RS2      1.395300
     15 C24         4.8830    0.0750    7.1730 c3        1 RS2     -0.212200
     16 O25         2.9210   -1.4210    7.6100 o         1 RS2     -0.675300
     17 O26         2.7390    0.8310    8.4310 o         1 RS2     -0.675300
     18 C27         5.4130   -1.1400    6.4240 c3        1 RS2     -0.106400
     19 C28         5.8560   -2.2840    7.2930 c         1 RS2      0.555100
     20 O31         6.9860   -2.5930    7.6310 o         1 RS2     -0.411100
     21 N32         4.7690   -3.2390    7.7970 n4        1 RS2     -0.455300
     22 O33         5.2150   -4.4770    8.0940 oh        1 RS2     -0.358300
     23 C36         5.4990    0.2180    8.5630 c3        1 RS2     -0.102900
     24 C37         6.9680    0.6070    8.5130 c3        1 RS2      0.124900
     25 O38         7.1600    1.8070    7.7820 os        1 RS2     -0.381600
     26 C39         6.6920    1.7170    6.4440 c3        1 RS2      0.124900
     27 C40         5.2220    1.3380    6.3790 c3        1 RS2     -0.102900
     28 H1         -2.1180   -1.3410    0.4740 ha        1 RS2      0.151000
     29 H2         -0.7310   -1.3920   -1.5980 ha        1 RS2      0.151000
     30 H3          1.3500   -0.0250   -1.7530 ha        1 RS2      0.151000
     31 H4          2.0580    1.4050    0.1820 ha        1 RS2      0.152500
     32 H6         -1.4230    0.0850    2.4140 ha        1 RS2      0.152500
     33 H14         1.3790   -0.8740    2.9640 ha        1 RS2      0.177000
     34 H15         2.4240   -1.5740    5.1080 ha        1 RS2      0.150000
     35 H17         2.2910    2.5140    6.5320 ha        1 RS2      0.150000
     36 H18         1.2420    3.2320    4.3830 ha        1 RS2      0.177000
     37 H271        6.3340   -0.8490    5.8350 hc        1 RS2      0.111700
     38 H272        4.6390   -1.4970    5.6880 hc        1 RS2      0.111700
     39 HNW         4.2870   -2.8140    8.6220 hn        1 RS2      0.503300
     40 HOX         6.0930   -4.4040    8.5410 ho        1 RS2      0.479000
     41 H361        4.9440    1.0250    9.1240 hc        1 RS2      0.072450
     42 H362        5.3850   -0.7360    9.1390 hc        1 RS2      0.072450
     43 H371        7.3520    0.8480    9.5410 h1        1 RS2      0.064450
     44 H372        7.5790   -0.2200    8.0590 h1        1 RS2      0.064450
     45 H391        6.8510    2.7510    6.0310 h1        1 RS2      0.064450
     46 H392        7.3240    0.9850    5.8720 h1        1 RS2      0.064450
     47 H401        4.9260    1.2060    5.3060 hc        1 RS2      0.072450
     48 H402        4.6210    2.1870    6.8090 hc        1 RS2      0.072450
     49 H322        4.0300   -3.3570    7.0690 hn        1 RS2      0.503300
@<TRIPOS>BOND
     1    1    2 ar  
     2    1    6 ar  
     3    1   28 1   
     4    2    3 ar  
     5    2   29 1   
     6    3    4 ar  
     7    3   30 1   
     8    4    5 ar  
     9    4   31 1   
    10    5    6 ar  
    11    5    7 1   
    12    6   32 1   
    13    7    8 1   
    14    8    9 ar  
    15    8   13 ar  
    16    9   10 ar  
    17    9   33 1   
    18   10   11 ar  
    19   10   34 1   
    20   11   12 ar  
    21   11   14 1   
    22   12   13 ar  
    23   12   35 1   
    24   13   36 1   
    25   14   15 1   
    26   14   16 2   
    27   14   17 2   
    28   15   18 1   
    29   15   23 1   
    30   15   27 1   
    31   18   19 1   
    32   18   37 1   
    33   18   38 1   
    34   19   20 2   
    35   19   21 1   
    36   21   22 1   
    37   21   39 1   
    38   21   49 1   
    39   22   40 1   
    40   23   24 1   
    41   23   41 1   
    42   23   42 1   
    43   24   25 1   
    44   24   43 1   
    45   24   44 1   
    46   25   26 1   
    47   26   27 1   
    48   26   45 1   
    49   26   46 1   
    50   27   47 1   
    51   27   48 1   
@<TRIPOS>SUBSTRUCTURE
     1 RS2         1 TEMP              0 ****  ****    0 ROOT
