@<TRIPOS>MOLECULE
RS2
   49    51     1     0     0
SMALL
bcc


@<TRIPOS>ATOM
      1 C1         -1.1750   -0.7900    0.4040 ca        1 RS2     -0.116000
      2 C2         -0.3990   -0.7630   -0.7560 ca        1 RS2     -0.111000
      3 C3          0.7400    0.0400   -0.8250 ca        1 RS2     -0.116000
      4 C4          1.1190    0.8210    0.2670 ca        1 RS2     -0.124000
      5 C5          0.3290    0.7810    1.4210 ca        1 RS2      0.043100
      6 C6         -0.8180   -0.0160    1.5070 ca        1 RS2     -0.124000
      7 O12         0.6270    1.6890    2.4510 os        1 RS2     -0.219200
      8 C13         1.2220    1.1860    3.5750 ca        1 RS2      0.238100
      9 C14         1.6030   -0.1590    3.7460 ca        1 RS2     -0.202500
     10 C15         2.2070   -0.5430    4.9290 ca        1 RS2      0.028500
     11 C16         2.4610    0.3730    5.9680 ca        1 RS2     -0.510500
     12 C17         2.0520    1.7120    5.7740 ca        1 RS2      0.028500
     13 C18         1.4480    2.1280    4.6050 ca        1 RS2     -0.202500
     14 S23         3.0920   -0.0870    7.3920 sy        1 RS2      1.395300
     15 C24         4.8790    0.0790    7.1760 c3        1 RS2     -0.212200
     16 O25         2.9700   -1.4940    7.5780 o         1 RS2     -0.675300
     17 O26         2.7110    0.7300    8.4520 o         1 RS2     -0.675300
     18 C27         5.4490   -1.0980    6.3970 c3        1 RS2     -0.106400
     19 C28         5.9330   -2.2470    7.2370 c         1 RS2      0.555100
     20 O31         7.0740   -2.5250    7.5670 o         1 RS2     -0.411100
     21 N32         4.8800   -3.2510    7.7190 ny        1 RS2     -0.455300
     22 O33         5.3700   -4.4790    7.9840 oh        1 RS2     -0.358300
     23 C36         5.4910    0.2090    8.5690 c3        1 RS2     -0.102900
     24 C37         6.9460    0.6500    8.5280 c3        1 RS2      0.124900
     25 O38         7.0950    1.8740    7.8270 os        1 RS2     -0.381600
     26 C39         6.6290    1.8000    6.4870 c3        1 RS2      0.124900
     27 C40         5.1730    1.3730    6.4140 c3        1 RS2     -0.102900
     28 H1         -2.0800   -1.4170    0.4480 ha        1 RS2      0.151000
     29 H2         -0.6930   -1.3730   -1.6250 ha        1 RS2      0.151000
     30 H3          1.3410    0.0650   -1.7470 ha        1 RS2      0.151000
     31 H4          2.0030    1.4730    0.2200 ha        1 RS2      0.152500
     32 H6         -1.4310   -0.0140    2.4210 ha        1 RS2      0.152500
     33 H14         1.4040   -0.8910    2.9470 ha        1 RS2      0.177000
     34 H15         2.4750   -1.6050    5.0740 ha        1 RS2      0.150000
     35 H17         2.2040    2.4420    6.5930 ha        1 RS2      0.150000
     36 H18         1.1280    3.1730    4.4620 ha        1 RS2      0.177000
     37 H271        4.6870   -1.4640    5.6530 hc        1 RS2      0.111700
     38 H272        6.3590   -0.7610    5.8150 hc        1 RS2      0.111700
     39 HNW         4.1440   -3.3770    6.9880 hn        1 RS2      0.503300
     40 HOX         6.2450   -4.3870    8.4330 ho        1 RS2      0.479000
     41 H361        4.9090    0.9820    9.1500 hc        1 RS2      0.072450
     42 H362        5.4110   -0.7620    9.1220 hc        1 RS2      0.072450
     43 H371        7.5840   -0.1440    8.0540 h1        1 RS2      0.064450
     44 H372        7.3220    0.8790    9.5620 h1        1 RS2      0.064450
     45 H391        6.7510    2.8490    6.1000 h1        1 RS2      0.064450
     46 H392        7.2850    1.1050    5.8970 h1        1 RS2      0.064450
     47 H401        4.5430    2.1890    6.8650 hc        1 RS2      0.072450
     48 H402        4.8800    1.2560    5.3370 hc        1 RS2      0.072450
     49 H322        4.3850   -2.8640    8.5540 hn        1 RS2      0.503300
@<TRIPOS>BOND
     1    1    2 ar  
     2    1    6 ar  
     3    1   28 1   
     4    2    3 ar  
     5    2   29 1   
     6    3    4 ar  
     7    3   30 1   
     8    4    5 ar  
     9    4   31 1   
    10    5    6 ar  
    11    5    7 1   
    12    6   32 1   
    13    7    8 1   
    14    8    9 ar  
    15    8   13 ar  
    16    9   10 ar  
    17    9   33 1   
    18   10   11 ar  
    19   10   34 1   
    20   11   12 ar  
    21   11   14 1   
    22   12   13 ar  
    23   12   35 1   
    24   13   36 1   
    25   14   15 1   
    26   14   16 2   
    27   14   17 2   
    28   15   18 1   
    29   15   23 1   
    30   15   27 1   
    31   18   19 1   
    32   18   37 1   
    33   18   38 1   
    34   19   20 2   
    35   19   21 1   
    36   21   22 1   
    37   21   39 1   
    38   21   49 1   
    39   22   40 1   
    40   23   24 1   
    41   23   41 1   
    42   23   42 1   
    43   24   25 1   
    44   24   43 1   
    45   24   44 1   
    46   25   26 1   
    47   26   27 1   
    48   26   45 1   
    49   26   46 1   
    50   27   47 1   
    51   27   48 1   
@<TRIPOS>SUBSTRUCTURE
     1 RS2         1 TEMP              0 ****  ****    0 ROOT
