@<TRIPOS>MOLECULE
RS2
   48    44     1     0     0
SMALL
bcc


@<TRIPOS>ATOM
      1 C1          6.1840    2.5970   -1.1010 c1        1 RS2     -0.125500
      2 C2          6.4470    3.3440    0.0290 c1        1 RS2     -0.125500
      3 C3          5.4200    4.0110    0.6710 c1        1 RS2     -0.125500
      4 C4          4.1270    3.9300    0.1800 c1        1 RS2     -0.121000
      5 C5          3.8640    3.1850   -0.9470 c1        1 RS2      0.025000
      6 C6          4.8950    2.5160   -1.5910 c1        1 RS2     -0.125500
      7 O12         2.5010    3.1460   -1.5030 os        1 RS2     -0.151000
      8 C13         1.8580    1.9320   -1.1040 c2        1 RS2      0.154000
      9 C14         1.2130    1.8580    0.1400 c2        1 RS2     -0.223000
     10 C15         0.5000    0.7330    0.4790 c1        1 RS2      0.019000
     11 C16         0.4170   -0.3450   -0.4210 c1        1 RS2     -0.883000
     12 C17         1.0580   -0.2720   -1.6570 c1        1 RS2      0.018000
     13 C18         1.7760    0.8600   -1.9980 c1        1 RS2     -0.183000
     14 S23        -0.3910   -1.8400    0.0600 s4        1 RS2      2.031800
     15 C24        -2.1830   -1.5440    0.3160 c2        1 RS2     -0.656000
     16 O25        -0.1680   -2.8770   -0.8980 o         1 RS2     -0.534900
     17 O26         0.2140   -2.4090    1.2330 o         1 RS2     -0.534900
     18 C27        -2.2220   -0.7190    1.4890 c3        1 RS2     -0.170000
     19 C28        -3.6310   -0.8540    2.1760 c2        1 RS2      0.247000
     20 O31        -4.6500   -0.6190    1.5350 o         1 RS2     -0.324000
     21 N32        -3.7130   -1.0960    3.5910 n         1 RS2     -0.192000
     22 O33        -4.9400   -1.1250    4.2190 oh        1 RS2     -0.239000
     23 C36        -3.0660   -2.8560    0.3870 c3        1 RS2     -0.172000
     24 C37        -2.9500   -3.7220   -0.8660 c3        1 RS2     -0.023500
     25 O38        -2.5250   -3.0530   -1.8540 os        1 RS2     -0.275000
     26 C39        -2.8480   -1.8450   -2.1770 c3        1 RS2     -0.023500
     27 C40        -2.9640   -0.9580   -0.9620 c3        1 RS2     -0.172000
     28 H1          6.9020    2.1310   -1.5490 ha        1 RS2      0.143250
     29 H2          7.3310    3.4000    0.3640 ha        1 RS2      0.143250
     30 H3          5.6030    4.5300    1.4550 ha        1 RS2      0.143250
     31 H4          3.4140    4.3940    0.6260 ha        1 RS2      0.153000
     32 H6          4.7110    1.9910   -2.3850 ha        1 RS2      0.143250
     33 H14         1.2710    2.6050    0.7640 ha        1 RS2      0.160000
     34 H15         0.0320    0.6790    1.3820 ha        1 RS2      0.157000
     35 H17         1.0000   -1.0330   -2.2930 ha        1 RS2      0.160000
     36 H18         2.2170    0.9100   -2.8490 ha        1 RS2      0.164000
     37 H271       -1.5000   -1.0160    2.1360 hc        1 RS2      0.124000
     38 H272       -2.0660    0.2460    1.2300 hc        1 RS2      0.124000
     39 HNW        -2.9510   -1.2600    4.0700 hn        1 RS2      0.215000
     40 HOX        -4.8620   -0.7850    5.0340 ho        1 RS2      0.235000
     41 H361       -4.0000   -2.6010    0.5070 hc        1 RS2      0.105000
     42 H362       -2.7820   -3.3830    1.1590 hc        1 RS2      0.105000
     43 H371       -2.3300   -4.4640   -0.6890 h1        1 RS2      0.100250
     44 H372       -3.8040   -4.0770   -1.0780 h1        1 RS2      0.100250
     45 H391       -2.1940   -1.4970   -2.7480 h1        1 RS2      0.100250
     46 H392       -3.7040   -1.8590   -2.6440 h1        1 RS2      0.100250
     47 H401       -2.5800   -0.0320   -1.1890 hc        1 RS2      0.105000
     48 H402       -3.9330   -0.8570   -0.7290 hc        1 RS2      0.105000
@<TRIPOS>BOND
     1    1    6 1   
     2    1   28 1   
     3    2    3 1   
     4    2   29 1   
     5    3   30 1   
     6    4    5 1   
     7    4   31 1   
     8    5    7 1   
     9    6   32 1   
    10    7    8 1   
    11    8    9 1   
    12    8   13 1   
    13    9   10 1   
    14    9   33 1   
    15   10   34 1   
    16   11   12 1   
    17   11   14 1   
    18   12   35 1   
    19   13   36 1   
    20   14   16 1   
    21   14   17 1   
    22   15   18 1   
    23   15   23 1   
    24   15   27 1   
    25   18   19 1   
    26   18   37 1   
    27   18   38 1   
    28   19   20 1   
    29   19   21 1   
    30   21   22 1   
    31   21   39 1   
    32   22   40 1   
    33   23   24 1   
    34   23   41 1   
    35   23   42 1   
    36   24   25 1   
    37   24   43 1   
    38   24   44 1   
    39   25   26 1   
    40   26   27 1   
    41   26   45 1   
    42   26   46 1   
    43   27   47 1   
    44   27   48 1   
@<TRIPOS>SUBSTRUCTURE
     1 RS2         1 TEMP              0 ****  ****    0 ROOT
