@<TRIPOS>MOLECULE
RS2
   49    51     1     0     0
SMALL
bcc


@<TRIPOS>ATOM
      1 C1         -1.2050   -0.7660    0.4260 ca        1 RS2     -0.116500
      2 C2         -0.4330   -0.7520   -0.7370 ca        1 RS2     -0.111000
      3 C3          0.7150    0.0390   -0.8140 ca        1 RS2     -0.116500
      4 C4          1.1050    0.8200    0.2730 ca        1 RS2     -0.124000
      5 C5          0.3190    0.7930    1.4310 ca        1 RS2      0.043100
      6 C6         -0.8360    0.0080    1.5240 ca        1 RS2     -0.124000
      7 O12         0.6300    1.7020    2.4560 os        1 RS2     -0.219200
      8 C13         1.2260    1.1980    3.5790 ca        1 RS2      0.238100
      9 C14         1.5970   -0.1490    3.7530 ca        1 RS2     -0.202500
     10 C15         2.2040   -0.5350    4.9340 ca        1 RS2      0.028500
     11 C16         2.4690    0.3820    5.9690 ca        1 RS2     -0.510500
     12 C17         2.0700    1.7240    5.7730 ca        1 RS2      0.028500
     13 C18         1.4630    2.1420    4.6060 ca        1 RS2     -0.202500
     14 S23         3.1020   -0.0780    7.3930 sy        1 RS2      1.395300
     15 C24         4.8890    0.0740    7.1690 c3        1 RS2     -0.212200
     16 O25         2.9700   -1.4840    7.5830 o         1 RS2     -0.675300
     17 O26         2.7310    0.7450    8.4510 o         1 RS2     -0.675300
     18 C27         5.4480   -1.1100    6.3920 c3        1 RS2     -0.106400
     19 C28         5.9260   -2.2600    7.2350 c         1 RS2      0.555100
     20 O31         7.0660   -2.5450    7.5620 o         1 RS2     -0.411100
     21 N32         4.8670   -3.2550    7.7240 n4        1 RS2     -0.455300
     22 O33         5.3490   -4.4860    7.9920 oh        1 RS2     -0.358300
     23 C36         5.5070    0.2040    8.5590 c3        1 RS2     -0.102900
     24 C37         6.9650    0.6340    8.5110 c3        1 RS2      0.124900
     25 O38         7.1210    1.8540    7.8050 os        1 RS2     -0.381600
     26 C39         6.6500    1.7790    6.4680 c3        1 RS2      0.124900
     27 C40         5.1900    1.3620    6.4010 c3        1 RS2     -0.102900
     28 H1         -2.1160   -1.3840    0.4750 ha        1 RS2      0.151000
     29 H2         -0.7360   -1.3630   -1.6030 ha        1 RS2      0.151000
     30 H3          1.3130    0.0540   -1.7380 ha        1 RS2      0.151000
     31 H4          1.9960    1.4630    0.2210 ha        1 RS2      0.152500
     32 H6         -1.4450    0.0210    2.4400 ha        1 RS2      0.152500
     33 H14         1.3900   -0.8820    2.9560 ha        1 RS2      0.177000
     34 H15         2.4650   -1.5980    5.0810 ha        1 RS2      0.150000
     35 H17         2.2310    2.4550    6.5900 ha        1 RS2      0.150000
     36 H18         1.1510    3.1880    4.4610 ha        1 RS2      0.177000
     37 H271        4.6800   -1.4730    5.6520 hc        1 RS2      0.111700
     38 H272        6.3580   -0.7830    5.8060 hc        1 RS2      0.111700
     39 HNW         4.1280   -3.3780    6.9960 hn        1 RS2      0.503300
     40 HOX         6.2270   -4.3980    8.4380 ho        1 RS2      0.479000
     41 H361        5.4220   -0.7650    9.1160 hc        1 RS2      0.072450
     42 H362        4.9340    0.9830    9.1390 hc        1 RS2      0.072450
     43 H371        7.3470    0.8640    9.5430 h1        1 RS2      0.064450
     44 H372        7.5960   -0.1670    8.0380 h1        1 RS2      0.064450
     45 H391        6.7790    2.8250    6.0750 h1        1 RS2      0.064450
     46 H392        7.2980    1.0770    5.8770 h1        1 RS2      0.064450
     47 H401        4.5680    2.1850    6.8510 hc        1 RS2      0.072450
     48 H402        4.8930    1.2440    5.3260 hc        1 RS2      0.072450
     49 H322        4.3780   -2.8600    8.5590 hn        1 RS2      0.503300
@<TRIPOS>BOND
     1    1    2 ar  
     2    1    6 ar  
     3    1   28 1   
     4    2    3 ar  
     5    2   29 1   
     6    3    4 ar  
     7    3   30 1   
     8    4    5 ar  
     9    4   31 1   
    10    5    6 ar  
    11    5    7 1   
    12    6   32 1   
    13    7    8 1   
    14    8    9 ar  
    15    8   13 ar  
    16    9   10 ar  
    17    9   33 1   
    18   10   11 ar  
    19   10   34 1   
    20   11   12 ar  
    21   11   14 1   
    22   12   13 ar  
    23   12   35 1   
    24   13   36 1   
    25   14   15 1   
    26   14   16 2   
    27   14   17 2   
    28   15   18 1   
    29   15   23 1   
    30   15   27 1   
    31   18   19 1   
    32   18   37 1   
    33   18   38 1   
    34   19   20 2   
    35   19   21 1   
    36   21   22 1   
    37   21   39 1   
    38   21   49 1   
    39   22   40 1   
    40   23   24 1   
    41   23   41 1   
    42   23   42 1   
    43   24   25 1   
    44   24   43 1   
    45   24   44 1   
    46   25   26 1   
    47   26   27 1   
    48   26   45 1   
    49   26   46 1   
    50   27   47 1   
    51   27   48 1   
@<TRIPOS>SUBSTRUCTURE
     1 RS2         1 TEMP              0 ****  ****    0 ROOT
