@<TRIPOS>MOLECULE
RS3
   52    54     1     0     0
SMALL
bcc


@<TRIPOS>ATOM
      1 O4         -0.4630    0.1770   -0.1100 o         1 RS3     -0.576500
      2 C4          0.7660    0.2800    0.0200 c         1 RS3      0.611000
      3 N3          1.3180    0.5000    1.2750 ns        1 RS3     -0.616500
      4 C2          2.7150    0.5930    1.5100 c         1 RS3      0.851900
      5 O2          3.0920    0.8230    2.6730 o         1 RS3     -0.586500
      6 C4A         1.7320    0.1850   -1.1340 cc        1 RS3      0.295800
      7 C10         3.1920    0.2150   -0.7770 cc        1 RS3      0.093400
      8 N1          3.6380    0.4210    0.4510 nd        1 RS3     -0.408400
      9 N5          1.2730    0.0830   -2.3520 nd        1 RS3     -0.514000
     10 C5A         2.1920   -0.0070   -3.3930 ca        1 RS3      0.273600
     11 C6          1.7210   -0.0830   -4.7260 ca        1 RS3     -0.099300
     12 C7          2.5800   -0.1850   -5.8060 ca        1 RS3     -0.112300
     13 C7M         1.9950   -0.2930   -7.1650 c3        1 RS3     -0.048800
     14 C8          3.9900   -0.2030   -5.5790 ca        1 RS3      0.189600
     15 N8          4.8790   -0.3670   -6.6780 nh        1 RS3     -0.642000
     16 C19         4.9980    0.7780   -7.5530 c3        1 RS3      0.166600
     17 C20         6.1470   -0.9920   -6.3770 c3        1 RS3      0.166600
     18 C9          4.4740   -0.1290   -4.2650 ca        1 RS3     -0.236000
     19 C9A         3.6040   -0.0390   -3.1550 ca        1 RS3      0.009400
     20 N10         4.0920    0.0410   -1.8420 na        1 RS3     -0.105100
     21 C1'         5.5170   -0.1120   -1.6010 c3        1 RS3      0.020300
     22 C2'         6.0470   -1.5360   -1.9010 c3        1 RS3      0.146100
     23 O2'         5.9050   -2.2480   -0.6870 oh        1 RS3     -0.590800
     24 C3'         7.5380   -1.4940   -2.3000 c3        1 RS3      0.104100
     25 O3'         7.7090   -0.4190   -3.2160 oh        1 RS3     -0.605800
     26 C4'         7.9760   -2.7950   -3.0040 c3        1 RS3      0.110100
     27 O4'         7.3060   -3.8810   -2.3910 oh        1 RS3     -0.613800
     28 C5'         9.4950   -2.9740   -2.8930 c3        1 RS3      0.089400
     29 O5'         9.8010   -4.1570   -3.6120 oh        1 RS3     -0.608800
     30 HN3         0.7050    0.5850    2.0580 hn        1 RS3      0.346500
     31 H6          0.6300   -0.0690   -4.8990 ha        1 RS3      0.162000
     32 H17M        1.9500    0.7150   -7.6500 hc        1 RS3      0.050367
     33 H27M        2.5960   -0.9740   -7.8170 hc        1 RS3      0.050367
     34 H37M        0.9520   -0.6950   -7.1140 hc        1 RS3      0.050367
     35 H119        3.9890    1.2290   -7.7360 h1        1 RS3      0.041700
     36 H219        5.6750    1.5720   -7.1320 h1        1 RS3      0.041700
     37 H319        5.4230    0.4250   -8.5300 h1        1 RS3      0.041700
     38 H120        5.9760   -1.9010   -5.7430 h1        1 RS3      0.041700
     39 H220        6.6120   -1.3080   -7.3490 h1        1 RS3      0.041700
     40 H320        6.8670   -0.3120   -5.8410 h1        1 RS3      0.041700
     41 H9          5.5660   -0.1370   -4.0960 ha        1 RS3      0.169000
     42 H11'        5.7570    0.1150   -0.5220 h1        1 RS3      0.104700
     43 H21'        6.0590    0.6400   -2.2440 h1        1 RS3      0.104700
     44 H2'         5.4700   -2.0360   -2.7270 h1        1 RS3      0.060700
     45 HO2'        6.0370   -3.1870   -0.8760 ho        1 RS3      0.428000
     46 H3'         8.1570   -1.3270   -1.3760 h1        1 RS3      0.065700
     47 HO3'        8.6580   -0.3070   -3.3450 ho        1 RS3      0.409000
     48 H4'         7.6830   -2.7450   -4.0920 h1        1 RS3      0.061700
     49 HO4'        7.6830   -4.6890   -2.7660 ho        1 RS3      0.435000
     50 H15'        9.7990   -3.0800   -1.8180 h1        1 RS3      0.036700
     51 H25'       10.0250   -2.0960   -3.3500 h1        1 RS3      0.036700
     52 HO5'       10.7320   -4.3520   -3.4510 ho        1 RS3      0.415000
@<TRIPOS>BOND
     1    1    2 2   
     2    2    3 1   
     3    2    6 1   
     4    3    4 1   
     5    3   30 1   
     6    4    5 2   
     7    4    8 1   
     8    6    7 1   
     9    6    9 2   
    10    7    8 2   
    11    7   20 1   
    12    9   10 1   
    13   10   11 ar  
    14   10   19 ar  
    15   11   12 ar  
    16   11   31 1   
    17   12   13 1   
    18   12   14 ar  
    19   13   32 1   
    20   13   33 1   
    21   13   34 1   
    22   14   15 1   
    23   14   18 ar  
    24   15   16 1   
    25   15   17 1   
    26   16   35 1   
    27   16   36 1   
    28   16   37 1   
    29   17   38 1   
    30   17   39 1   
    31   17   40 1   
    32   18   19 ar  
    33   18   41 1   
    34   19   20 1   
    35   20   21 1   
    36   21   22 1   
    37   21   42 1   
    38   21   43 1   
    39   22   23 1   
    40   22   24 1   
    41   22   44 1   
    42   23   45 1   
    43   24   25 1   
    44   24   26 1   
    45   24   46 1   
    46   25   47 1   
    47   26   27 1   
    48   26   28 1   
    49   26   48 1   
    50   27   49 1   
    51   28   29 1   
    52   28   50 1   
    53   28   51 1   
    54   29   52 1   
@<TRIPOS>SUBSTRUCTURE
     1 RS3         1 TEMP              0 ****  ****    0 ROOT
