@<TRIPOS>MOLECULE
RS3
   53    55     1     0     0
SMALL
bcc


@<TRIPOS>ATOM
      1 O4         -0.4450    0.2120   -0.1070 o         1 RS3     -0.532500
      2 C4          0.7840    0.1260    0.0060 c         1 RS3      0.605000
      3 N3          1.3850    0.0610    1.2550 n         1 RS3     -0.607500
      4 C2          2.7850   -0.0270    1.4530 c         1 RS3      0.847900
      5 O2          3.2240   -0.0810    2.6100 o         1 RS3     -0.532500
      6 C4A         1.7110    0.0880   -1.1950 cc        1 RS3      0.362800
      7 C10         3.1860    0.0070   -0.8830 cc        1 RS3      0.069400
      8 N1          3.6700   -0.0530    0.3340 nd        1 RS3     -0.366400
      9 N5          1.2120    0.1180   -2.3950 nd        1 RS3     -0.539000
     10 C5A         2.0980    0.0720   -3.4810 ca        1 RS3      0.342600
     11 C6          1.5680    0.0810   -4.7860 ca        1 RS3     -0.084300
     12 C7          2.3870    0.0110   -5.9110 ca        1 RS3     -0.096300
     13 C7M         1.7710    0.0140   -7.2600 c3        1 RS3     -0.081800
     14 C8          3.7840   -0.0620   -5.7120 ca        1 RS3      0.002600
     15 N8          4.6860   -0.1630   -6.8770 n4        1 RS3     -0.551800
     16 C19         5.4920    1.0790   -7.0340 c3        1 RS3      0.084100
     17 C20         5.5640   -1.3620   -6.7810 c3        1 RS3      0.084100
     18 C9          4.3480   -0.0460   -4.4350 ca        1 RS3     -0.164000
     19 C9A         3.5190    0.0090   -3.2880 ca        1 RS3      0.008400
     20 N10         4.0560    0.0240   -2.0000 na        1 RS3     -0.109100
     21 C1'         5.4890   -0.1350   -1.8250 c3        1 RS3     -0.014700
     22 C2'         6.0210   -1.5400   -2.1950 c3        1 RS3      0.134100
     23 O2'         5.7600   -2.4690   -1.1760 oh        1 RS3     -0.573800
     24 C3'         7.5220   -1.4160   -2.5340 c3        1 RS3      0.104100
     25 O3'         7.5710   -1.0210   -3.9020 oh        1 RS3     -0.641800
     26 C4'         8.2400   -2.7550   -2.2950 c3        1 RS3      0.118100
     27 O4'         8.4050   -2.8360   -0.8870 oh        1 RS3     -0.609800
     28 C5'         9.6070   -2.8140   -2.9850 c3        1 RS3      0.092400
     29 O5'        10.1810   -4.0430   -2.5760 oh        1 RS3     -0.597800
     30 HN3         0.7990    0.0770    2.0660 hn        1 RS3      0.365500
     31 H6          0.4700    0.1380   -4.9180 ha        1 RS3      0.192000
     32 H17M        1.9790   -0.9450   -7.7990 hc        1 RS3      0.067033
     33 H27M        2.1470    0.8720   -7.8730 hc        1 RS3      0.067033
     34 H37M        0.6570    0.1190   -7.1880 hc        1 RS3      0.067033
     35 H119        6.1460    1.2170   -6.1320 hx        1 RS3      0.107533
     36 H219        6.1290    0.9880   -7.9540 hx        1 RS3      0.107533
     37 H319        4.8000    1.9580   -7.1300 hx        1 RS3      0.107533
     38 H120        6.1640   -1.4470   -7.7260 hx        1 RS3      0.107533
     39 H220        4.9250   -2.2760   -6.6480 hx        1 RS3      0.107533
     40 H320        6.2580   -1.2660   -5.8990 hx        1 RS3      0.107533
     41 H9          5.4470   -0.0920   -4.3160 ha        1 RS3      0.179000
     42 H11'        5.7710    0.0800   -0.7530 h1        1 RS3      0.093700
     43 H21'        6.0020    0.6370   -2.4680 h1        1 RS3      0.093700
     44 H2'         5.4810   -1.9610   -3.0930 h1        1 RS3      0.077700
     45 HO2'        6.3490   -2.2860   -0.4270 ho        1 RS3      0.441000
     46 H3'         8.0060   -0.6260   -1.8920 h1        1 RS3      0.070700
     47 HO3'        8.4970   -0.8400   -4.1070 ho        1 RS3      0.421000
     48 H4'         7.5990   -3.6090   -2.6520 h1        1 RS3      0.075700
     49 HO4'        8.8600   -3.6710   -0.7060 ho        1 RS3      0.445000
     50 H15'       10.2460   -1.9500   -2.6640 h1        1 RS3      0.032200
     51 H25'        9.4870   -2.8050   -4.1010 h1        1 RS3      0.032200
     52 HO5'       11.1160   -4.0160   -2.8140 ho        1 RS3      0.423000
     53 H81         4.0990   -0.2690   -7.7200 hn        1 RS3      0.457800
@<TRIPOS>BOND
     1    1    2 2   
     2    2    3 1   
     3    2    6 1   
     4    3    4 1   
     5    3   30 1   
     6    4    5 2   
     7    4    8 1   
     8    6    7 1   
     9    6    9 2   
    10    7    8 2   
    11    7   20 1   
    12    9   10 1   
    13   10   11 ar  
    14   10   19 ar  
    15   11   12 ar  
    16   11   31 1   
    17   12   13 1   
    18   12   14 ar  
    19   13   32 1   
    20   13   33 1   
    21   13   34 1   
    22   14   15 1   
    23   14   18 ar  
    24   15   16 1   
    25   15   17 1   
    26   15   53 1   
    27   16   35 1   
    28   16   36 1   
    29   16   37 1   
    30   17   38 1   
    31   17   39 1   
    32   17   40 1   
    33   18   19 ar  
    34   18   41 1   
    35   19   20 1   
    36   20   21 1   
    37   21   22 1   
    38   21   42 1   
    39   21   43 1   
    40   22   23 1   
    41   22   24 1   
    42   22   44 1   
    43   23   45 1   
    44   24   25 1   
    45   24   26 1   
    46   24   46 1   
    47   25   47 1   
    48   26   27 1   
    49   26   28 1   
    50   26   48 1   
    51   27   49 1   
    52   28   29 1   
    53   28   50 1   
    54   28   51 1   
    55   29   52 1   
@<TRIPOS>SUBSTRUCTURE
     1 RS3         1 TEMP              0 ****  ****    0 ROOT
