@<TRIPOS>MOLECULE
RS3
   52    54     1     0     0
SMALL
bcc


@<TRIPOS>ATOM
      1 O4          4.3770    3.2570   -0.6260 o         1 RS3     -0.573500
      2 C4          3.1910    3.1030   -0.3000 c         1 RS3      0.612000
      3 N3          2.3810    4.2090   -0.0770 n         1 RS3     -0.614500
      4 C2          1.0190    4.1170    0.3070 c         1 RS3      0.852900
      5 O2          0.3880    5.1770    0.4740 o         1 RS3     -0.589500
      6 C4A         2.5510    1.7500   -0.1200 cc        1 RS3      0.297800
      7 C10         1.1130    1.7530    0.3150 cc        1 RS3      0.096400
      8 N1          0.4050    2.8570    0.4960 nd        1 RS3     -0.426400
      9 N5          3.2460    0.6690   -0.3490 nd        1 RS3     -0.511000
     10 C5A         2.6170   -0.5620   -0.1880 ca        1 RS3      0.274600
     11 C6          3.3430   -1.7450   -0.4640 ca        1 RS3     -0.096300
     12 C7          2.7750   -3.0020   -0.3480 ca        1 RS3     -0.112300
     13 C7M         3.6050   -4.1830   -0.6880 c3        1 RS3     -0.049800
     14 C8          1.4110   -3.1190    0.0630 ca        1 RS3      0.196600
     15 N8          0.8010   -4.4000    0.1140 nh        1 RS3     -0.646000
     16 C19         1.2520   -5.2680    1.1790 c3        1 RS3      0.168100
     17 C20        -0.6290   -4.4390   -0.0890 c3        1 RS3      0.168100
     18 C9          0.6770   -1.9550    0.3390 ca        1 RS3     -0.236000
     19 C9A         1.2520   -0.6690    0.2340 ca        1 RS3      0.015400
     20 N10         0.5370    0.4940    0.5580 na        1 RS3     -0.098100
     21 C1'        -0.8440    0.4060    0.9960 c3        1 RS3     -0.008700
     22 C2'        -1.8730    0.2390   -0.1420 c3        1 RS3      0.103100
     23 O2'        -1.7980    1.2810   -1.0850 oh        1 RS3     -0.580800
     24 C3'        -3.2750    0.1130    0.4950 c3        1 RS3      0.080100
     25 O3'        -3.4950   -1.2290    0.8810 oh        1 RS3     -0.601800
     26 C4'        -4.3570    0.6470   -0.4610 c3        1 RS3      0.102100
     27 O4'        -4.4420    2.0550   -0.3620 oh        1 RS3     -0.578800
     28 C5'        -5.7200    0.0030   -0.1860 c3        1 RS3      0.095400
     29 O5'        -5.7030   -1.2670   -0.8180 oh        1 RS3     -0.609800
     30 HN3         2.7730    5.1190   -0.1980 hn        1 RS3      0.348500
     31 H6          4.3940   -1.6530   -0.7930 ha        1 RS3      0.163000
     32 H17M        4.0770   -4.6050    0.2350 hc        1 RS3      0.051033
     33 H27M        2.9990   -4.9850   -1.1760 hc        1 RS3      0.051033
     34 H37M        4.4270   -3.8960   -1.3910 hc        1 RS3      0.051033
     35 H119        0.7540   -5.0340    2.1600 h1        1 RS3      0.042533
     36 H219        1.0040   -6.3240    0.8940 h1        1 RS3      0.042533
     37 H319        2.3610   -5.1760    1.3100 h1        1 RS3      0.042533
     38 H120       -0.9050   -3.7730   -0.9480 h1        1 RS3      0.042533
     39 H220       -0.9090   -5.4950   -0.3440 h1        1 RS3      0.042533
     40 H320       -1.2150   -4.1270    0.8190 h1        1 RS3      0.042533
     41 H9         -0.3800   -2.0540    0.6400 ha        1 RS3      0.153000
     42 H11'       -0.9480   -0.4700    1.6980 h1        1 RS3      0.086700
     43 H21'       -1.1020    1.3340    1.5840 h1        1 RS3      0.086700
     44 H2'        -1.6480   -0.6920   -0.7390 h1        1 RS3      0.081700
     45 HO2'       -2.0870    2.0990   -0.6550 ho        1 RS3      0.431000
     46 H3'        -3.3140    0.6930    1.4630 h1        1 RS3      0.071700
     47 HO3'       -3.7780   -1.7200    0.0960 ho        1 RS3      0.425000
     48 H4'        -4.0520    0.4610   -1.5320 h1        1 RS3      0.117700
     49 HO4'       -4.7730    2.2690    0.5200 ho        1 RS3      0.400000
     50 H15'       -5.8840   -0.1180    0.9180 h1        1 RS3      0.041700
     51 H25'       -6.5320    0.6430   -0.6220 h1        1 RS3      0.041700
     52 HO5'       -6.5530   -1.6820   -0.6290 ho        1 RS3      0.413000
@<TRIPOS>BOND
     1    1    2 2   
     2    2    3 1   
     3    2    6 1   
     4    3    4 1   
     5    3   30 1   
     6    4    5 2   
     7    4    8 1   
     8    6    7 1   
     9    6    9 2   
    10    7    8 2   
    11    7   20 1   
    12    9   10 1   
    13   10   11 ar  
    14   10   19 ar  
    15   11   12 ar  
    16   11   31 1   
    17   12   13 1   
    18   12   14 ar  
    19   13   32 1   
    20   13   33 1   
    21   13   34 1   
    22   14   15 1   
    23   14   18 ar  
    24   15   16 1   
    25   15   17 1   
    26   16   35 1   
    27   16   36 1   
    28   16   37 1   
    29   17   38 1   
    30   17   39 1   
    31   17   40 1   
    32   18   19 ar  
    33   18   41 1   
    34   19   20 1   
    35   20   21 1   
    36   21   22 1   
    37   21   42 1   
    38   21   43 1   
    39   22   23 1   
    40   22   24 1   
    41   22   44 1   
    42   23   45 1   
    43   24   25 1   
    44   24   26 1   
    45   24   46 1   
    46   25   47 1   
    47   26   27 1   
    48   26   28 1   
    49   26   48 1   
    50   27   49 1   
    51   28   29 1   
    52   28   50 1   
    53   28   51 1   
    54   29   52 1   
@<TRIPOS>SUBSTRUCTURE
     1 RS3         1 TEMP              0 ****  ****    0 ROOT
