@<TRIPOS>MOLECULE
RS3
   52    54     1     0     0
SMALL
bcc


@<TRIPOS>ATOM
      1 O4         -0.4540    0.1970   -0.1000 o         1 RS3     -0.576500
      2 C4          0.7750    0.3010    0.0250 c         1 RS3      0.611000
      3 N3          1.3320    0.5300    1.2760 n         1 RS3     -0.616500
      4 C2          2.7300    0.6240    1.5060 c         1 RS3      0.851900
      5 O2          3.1100    0.8630    2.6660 o         1 RS3     -0.586500
      6 C4A         1.7370    0.1990   -1.1320 cc        1 RS3      0.295800
      7 C10         3.1990    0.2320   -0.7800 cc        1 RS3      0.093400
      8 N1          3.6490    0.4470    0.4460 nd        1 RS3     -0.408400
      9 N5          1.2740    0.0880   -2.3470 nd        1 RS3     -0.514000
     10 C5A         2.1900   -0.0090   -3.3910 ca        1 RS3      0.273600
     11 C6          1.7140   -0.0940   -4.7210 ca        1 RS3     -0.099300
     12 C7          2.5700   -0.2030   -5.8040 ca        1 RS3     -0.112300
     13 C7M         1.9810   -0.3200   -7.1600 c3        1 RS3     -0.048800
     14 C8          3.9810   -0.2190   -5.5820 ca        1 RS3      0.189600
     15 N8          4.8660   -0.3900   -6.6820 nh        1 RS3     -0.642000
     16 C19         4.9820    0.7490   -7.5660 c3        1 RS3      0.166600
     17 C20         6.1360   -1.0120   -6.3820 c3        1 RS3      0.166600
     18 C9          4.4690   -0.1360   -4.2700 ca        1 RS3     -0.236000
     19 C9A         3.6030   -0.0380   -3.1580 ca        1 RS3      0.009400
     20 N10         4.0950    0.0510   -1.8470 na        1 RS3     -0.105100
     21 C1'         5.5210   -0.1000   -1.6100 c3        1 RS3      0.020300
     22 C2'         6.0510   -1.5260   -1.9010 c3        1 RS3      0.146100
     23 O2'         5.9130   -2.2300   -0.6820 oh        1 RS3     -0.590800
     24 C3'         7.5410   -1.4860   -2.3060 c3        1 RS3      0.104100
     25 O3'         7.7080   -0.4170   -3.2290 oh        1 RS3     -0.605800
     26 C4'         7.9780   -2.7910   -3.0020 c3        1 RS3      0.110100
     27 O4'         7.3090   -3.8740   -2.3790 oh        1 RS3     -0.613800
     28 C5'         9.4970   -2.9690   -2.8930 c3        1 RS3      0.089400
     29 O5'         9.8020   -4.1560   -3.6040 oh        1 RS3     -0.608800
     30 HN3         0.7210    0.6200    2.0610 hn        1 RS3      0.346500
     31 H6          0.6230   -0.0810   -4.8910 ha        1 RS3      0.162000
     32 H17M        2.5800   -1.0040   -7.8100 hc        1 RS3      0.050367
     33 H27M        0.9380   -0.7230   -7.1030 hc        1 RS3      0.050367
     34 H37M        1.9330    0.6850   -7.6510 hc        1 RS3      0.050367
     35 H119        5.4030    0.3890   -8.5420 h1        1 RS3      0.041700
     36 H219        3.9710    1.1980   -7.7480 h1        1 RS3      0.041700
     37 H319        5.6600    1.5450   -7.1530 h1        1 RS3      0.041700
     38 H120        5.9670   -1.9170   -5.7400 h1        1 RS3      0.041700
     39 H220        6.8570   -0.3290   -5.8530 h1        1 RS3      0.041700
     40 H320        6.5970   -1.3350   -7.3530 h1        1 RS3      0.041700
     41 H9          5.5620   -0.1420   -4.1050 ha        1 RS3      0.169000
     42 H11'        6.0610    0.6470   -2.2590 h1        1 RS3      0.104700
     43 H21'        5.7650    0.1350   -0.5330 h1        1 RS3      0.104700
     44 H2'         5.4710   -2.0310   -2.7220 h1        1 RS3      0.060700
     45 HO2'        6.0450   -3.1700   -0.8650 ho        1 RS3      0.428000
     46 H3'         8.1620   -1.3120   -1.3850 h1        1 RS3      0.065700
     47 HO3'        8.6570   -0.3060   -3.3630 ho        1 RS3      0.409000
     48 H4'         7.6820   -2.7490   -4.0900 h1        1 RS3      0.061700
     49 HO4'        7.6860   -4.6840   -2.7500 ho        1 RS3      0.435000
     50 H15'       10.0250   -2.0940   -3.3570 h1        1 RS3      0.036700
     51 H25'        9.8030   -3.0670   -1.8180 h1        1 RS3      0.036700
     52 HO5'       10.7330   -4.3500   -3.4440 ho        1 RS3      0.415000
@<TRIPOS>BOND
     1    1    2 2   
     2    2    3 1   
     3    2    6 1   
     4    3    4 1   
     5    3   30 1   
     6    4    5 2   
     7    4    8 1   
     8    6    7 1   
     9    6    9 2   
    10    7    8 2   
    11    7   20 1   
    12    9   10 1   
    13   10   11 ar  
    14   10   19 ar  
    15   11   12 ar  
    16   11   31 1   
    17   12   13 1   
    18   12   14 ar  
    19   13   32 1   
    20   13   33 1   
    21   13   34 1   
    22   14   15 1   
    23   14   18 ar  
    24   15   16 1   
    25   15   17 1   
    26   16   35 1   
    27   16   36 1   
    28   16   37 1   
    29   17   38 1   
    30   17   39 1   
    31   17   40 1   
    32   18   19 ar  
    33   18   41 1   
    34   19   20 1   
    35   20   21 1   
    36   21   22 1   
    37   21   42 1   
    38   21   43 1   
    39   22   23 1   
    40   22   24 1   
    41   22   44 1   
    42   23   45 1   
    43   24   25 1   
    44   24   26 1   
    45   24   46 1   
    46   25   47 1   
    47   26   27 1   
    48   26   28 1   
    49   26   48 1   
    50   27   49 1   
    51   28   29 1   
    52   28   50 1   
    53   28   51 1   
    54   29   52 1   
@<TRIPOS>SUBSTRUCTURE
     1 RS3         1 TEMP              0 ****  ****    0 ROOT
