@<TRIPOS>MOLECULE
RS7
   38    38     1     0     0
SMALL
bcc


@<TRIPOS>ATOM
      1 C1         -0.8560   -1.5360   -0.8530 c         1 RS7      0.893800
      2 O19        -1.8260   -2.3320   -1.0230 o         1 RS7     -0.831300
      3 O18         0.3090   -1.9020   -0.5320 o         1 RS7     -0.831300
      4 C2         -1.1100   -0.0520   -0.9710 ce        1 RS7     -0.134200
      5 C3         -1.2600    0.7140   -2.0580 cf        1 RS7     -0.194200
      6 C4         -1.2520    0.3140   -3.4530 ca        1 RS7      0.035200
      7 C5         -1.5780   -0.9950   -3.8490 ca        1 RS7     -0.125000
      8 C6         -1.5860   -1.3530   -5.1910 ca        1 RS7     -0.124000
      9 C7         -1.2740   -0.4140   -6.1770 ca        1 RS7     -0.168000
     10 C8         -0.9540    0.8870   -5.8110 ca        1 RS7     -0.119000
     11 C9         -0.9410    1.2630   -4.4560 ca        1 RS7     -0.019000
     12 C10        -0.6100    2.5930   -4.1290 cg        1 RS7     -0.059000
     13 C11        -0.3250    3.7280   -3.8660 c1        1 RS7     -0.190100
     14 C12         0.0340    5.0710   -3.5310 c3        1 RS7      0.019700
     15 C13        -1.0880    6.0570   -3.8150 c3        1 RS7     -0.077400
     16 C14        -0.6740    7.4650   -3.4450 c3        1 RS7     -0.080400
     17 C15        -1.7860    8.4540   -3.7240 c3        1 RS7     -0.079400
     18 C16        -1.3760    9.8640   -3.3560 c3        1 RS7     -0.080400
     19 C17        -2.4800   10.8510   -3.6310 c3        1 RS7     -0.091100
     20 H21        -1.1430    0.4370    0.0200 ha        1 RS7      0.098000
     21 H31        -1.3970    1.8040   -1.9180 ha        1 RS7      0.097000
     22 H5         -1.8250   -1.7440   -3.0670 ha        1 RS7      0.208000
     23 H6         -1.8380   -2.3850   -5.4770 ha        1 RS7      0.121000
     24 H7         -1.2800   -0.7020   -7.2370 ha        1 RS7      0.111000
     25 H8         -0.7060    1.6320   -6.5800 ha        1 RS7      0.115000
     26 H121        0.9490    5.3710   -4.1160 hc        1 RS7      0.048200
     27 H122        0.3080    5.1210   -2.4390 hc        1 RS7      0.048200
     28 H131       -2.0000    5.7640   -3.2310 hc        1 RS7      0.046700
     29 H132       -1.3600    6.0140   -4.9010 hc        1 RS7      0.046700
     30 H141        0.2400    7.7540   -4.0270 hc        1 RS7      0.036700
     31 H142       -0.4010    7.5040   -2.3580 hc        1 RS7      0.036700
     32 H151       -2.0600    8.4140   -4.8110 hc        1 RS7      0.040200
     33 H152       -2.7010    8.1640   -3.1430 hc        1 RS7      0.040200
     34 H161       -0.4600   10.1500   -3.9370 hc        1 RS7      0.036700
     35 H162       -1.1010    9.9000   -2.2680 hc        1 RS7      0.036700
     36 H171       -2.7520   10.8470   -4.7150 hc        1 RS7      0.030033
     37 H172       -3.3940   10.5960   -3.0420 hc        1 RS7      0.030033
     38 H173       -2.1580   11.8840   -3.3530 hc        1 RS7      0.030033
@<TRIPOS>BOND
     1    1    2 1   
     2    1    3 1   
     3    1    4 1   
     4    4    5 2   
     5    4   20 1   
     6    5    6 1   
     7    5   21 1   
     8    6    7 ar  
     9    6   11 ar  
    10    7    8 ar  
    11    7   22 1   
    12    8    9 ar  
    13    8   23 1   
    14    9   10 ar  
    15    9   24 1   
    16   10   11 ar  
    17   10   25 1   
    18   11   12 1   
    19   12   13 3   
    20   13   14 1   
    21   14   15 1   
    22   14   26 1   
    23   14   27 1   
    24   15   16 1   
    25   15   28 1   
    26   15   29 1   
    27   16   17 1   
    28   16   30 1   
    29   16   31 1   
    30   17   18 1   
    31   17   32 1   
    32   17   33 1   
    33   18   19 1   
    34   18   34 1   
    35   18   35 1   
    36   19   36 1   
    37   19   37 1   
    38   19   38 1   
@<TRIPOS>SUBSTRUCTURE
     1 RS7         1 TEMP              0 ****  ****    0 ROOT
