@<TRIPOS>MOLECULE
RS7
   38    38     1     0     0
SMALL
bcc


@<TRIPOS>ATOM
      1 C1         -4.8690  -10.6130    0.1860 c         1 RS7      0.888800
      2 O19        -5.5840   -9.6320    0.5350 o         1 RS7     -0.831300
      3 O18        -5.2820  -11.5760   -0.5230 o         1 RS7     -0.831300
      4 C2         -3.4210  -10.6680    0.6290 ce        1 RS7     -0.150200
      5 C3         -2.8690   -9.7510    1.4360 cf        1 RS7     -0.191200
      6 C4         -1.4960   -9.7520    1.9030 ca        1 RS7      0.030200
      7 C5         -0.6920  -10.9030    1.8130 ca        1 RS7     -0.148000
      8 C6          0.6220  -10.9030    2.2640 ca        1 RS7     -0.125000
      9 C7          1.1720   -9.7500    2.8250 ca        1 RS7     -0.171000
     10 C8          0.3980   -8.5990    2.9300 ca        1 RS7     -0.111000
     11 C9         -0.9310   -8.5870    2.4770 ca        1 RS7      0.003000
     12 C10        -1.6840   -7.4040    2.5980 cg        1 RS7     -0.090000
     13 C11        -2.3290   -6.3990    2.6990 c1        1 RS7     -0.145100
     14 C12        -3.1410   -5.2260    2.8100 c3        1 RS7      0.007700
     15 C13        -2.4590   -3.9940    2.2390 c3        1 RS7     -0.076400
     16 C14        -3.3540   -2.7790    2.3620 c3        1 RS7     -0.080400
     17 C15        -2.6840   -1.5460    1.7960 c3        1 RS7     -0.078400
     18 C16        -3.5770   -0.3290    1.9170 c3        1 RS7     -0.080400
     19 C17        -2.9140    0.9020    1.3550 c3        1 RS7     -0.091100
     20 H21        -2.8590  -11.5270    0.2300 ha        1 RS7      0.098000
     21 H31        -3.4970   -8.9050    1.7760 ha        1 RS7      0.155000
     22 H5         -1.1200  -11.8200    1.3780 ha        1 RS7      0.140000
     23 H6          1.2300  -11.8160    2.1820 ha        1 RS7      0.115000
     24 H7          2.2110   -9.7500    3.1820 ha        1 RS7      0.114000
     25 H8          0.8260   -7.6880    3.3720 ha        1 RS7      0.120000
     26 H121       -3.3940   -5.0460    3.8930 hc        1 RS7      0.059700
     27 H122       -4.1130   -5.4040    2.2660 hc        1 RS7      0.059700
     28 H131       -1.4950   -3.8110    2.7800 hc        1 RS7      0.044700
     29 H132       -2.2080   -4.1720    1.1600 hc        1 RS7      0.044700
     30 H141       -3.6100   -2.6070    3.4400 hc        1 RS7      0.039700
     31 H142       -4.3180   -2.9660    1.8190 hc        1 RS7      0.039700
     32 H151       -1.7200   -1.3590    2.3380 hc        1 RS7      0.038700
     33 H152       -2.4290   -1.7180    0.7170 hc        1 RS7      0.038700
     34 H161       -4.5410   -0.5190    1.3740 hc        1 RS7      0.038200
     35 H162       -3.8340   -0.1600    2.9960 hc        1 RS7      0.038200
     36 H171       -2.6730    0.7610    0.2740 hc        1 RS7      0.029033
     37 H172       -1.9640    1.1210    1.8990 hc        1 RS7      0.029033
     38 H173       -3.5890    1.7870    1.4530 hc        1 RS7      0.029033
@<TRIPOS>BOND
     1    1    2 1   
     2    1    3 1   
     3    1    4 1   
     4    4    5 2   
     5    4   20 1   
     6    5    6 1   
     7    5   21 1   
     8    6    7 ar  
     9    6   11 ar  
    10    7    8 ar  
    11    7   22 1   
    12    8    9 ar  
    13    8   23 1   
    14    9   10 ar  
    15    9   24 1   
    16   10   11 ar  
    17   10   25 1   
    18   11   12 1   
    19   12   13 3   
    20   13   14 1   
    21   14   15 1   
    22   14   26 1   
    23   14   27 1   
    24   15   16 1   
    25   15   28 1   
    26   15   29 1   
    27   16   17 1   
    28   16   30 1   
    29   16   31 1   
    30   17   18 1   
    31   17   32 1   
    32   17   33 1   
    33   18   19 1   
    34   18   34 1   
    35   18   35 1   
    36   19   36 1   
    37   19   37 1   
    38   19   38 1   
@<TRIPOS>SUBSTRUCTURE
     1 RS7         1 TEMP              0 ****  ****    0 ROOT
