@<TRIPOS>MOLECULE
RS7
   38    38     1     0     0
SMALL
bcc


@<TRIPOS>ATOM
      1 C1         -0.6360   -1.6640   -0.9400 c         1 RS7      0.893800
      2 O19        -1.5930   -2.4800   -1.0920 o         1 RS7     -0.831300
      3 O18         0.5540   -2.0090   -0.6990 o         1 RS7     -0.831300
      4 C2         -0.9370   -0.1840   -0.9790 ce        1 RS7     -0.134200
      5 C3         -1.1680    0.6220   -2.0210 cf        1 RS7     -0.194200
      6 C4         -1.2250    0.2820   -3.4310 ca        1 RS7      0.034200
      7 C5         -1.5380   -1.0180   -3.8660 ca        1 RS7     -0.125000
      8 C6         -1.6100   -1.3190   -5.2210 ca        1 RS7     -0.124000
      9 C7         -1.3780   -0.3310   -6.1790 ca        1 RS7     -0.168000
     10 C8         -1.0720    0.9620   -5.7740 ca        1 RS7     -0.119000
     11 C9         -0.9950    1.2810   -4.4070 ca        1 RS7     -0.019000
     12 C10        -0.6830    2.6050   -4.0400 cg        1 RS7     -0.059000
     13 C11        -0.4140    3.7350   -3.7430 c1        1 RS7     -0.190100
     14 C12        -0.0740    5.0720   -3.3660 c3        1 RS7      0.018700
     15 C13        -1.1320    6.0790   -3.7890 c3        1 RS7     -0.077400
     16 C14        -0.7420    7.4800   -3.3710 c3        1 RS7     -0.080400
     17 C15        -1.7890    8.4890   -3.7890 c3        1 RS7     -0.079400
     18 C16        -1.4020    9.8920   -3.3720 c3        1 RS7     -0.080400
     19 C17        -2.4420   10.9000   -3.7870 c3        1 RS7     -0.091100
     20 H21        -0.9290    0.2610    0.0330 ha        1 RS7      0.098000
     21 H31        -1.3260    1.7010   -1.8270 ha        1 RS7      0.097000
     22 H5         -1.7210   -1.8060   -3.1060 ha        1 RS7      0.208000
     23 H6         -1.8490   -2.3450   -5.5370 ha        1 RS7      0.121000
     24 H7         -1.4350   -0.5730   -7.2490 ha        1 RS7      0.111000
     25 H8         -0.8870    1.7460   -6.5220 ha        1 RS7      0.115000
     26 H121        0.9130    5.3530   -3.8310 hc        1 RS7      0.048700
     27 H122        0.0610    5.1210   -2.2480 hc        1 RS7      0.048700
     28 H131       -2.1160    5.8050   -3.3250 hc        1 RS7      0.046200
     29 H132       -1.2660    6.0380   -4.9010 hc        1 RS7      0.046200
     30 H141        0.2450    7.7490   -3.8320 hc        1 RS7      0.037200
     31 H142       -0.6070    7.5170   -2.2580 hc        1 RS7      0.037200
     32 H151       -1.9240    8.4520   -4.9020 hc        1 RS7      0.039700
     33 H152       -2.7760    8.2190   -3.3280 hc        1 RS7      0.039700
     34 H161       -0.4140   10.1590   -3.8320 hc        1 RS7      0.036700
     35 H162       -1.2670    9.9260   -2.2590 hc        1 RS7      0.036700
     36 H171       -2.5730   10.8980   -4.8960 hc        1 RS7      0.029700
     37 H172       -3.4280   10.6640   -3.3190 hc        1 RS7      0.029700
     38 H173       -2.1380   11.9270   -3.4700 hc        1 RS7      0.029700
@<TRIPOS>BOND
     1    1    2 1   
     2    1    3 1   
     3    1    4 1   
     4    4    5 2   
     5    4   20 1   
     6    5    6 1   
     7    5   21 1   
     8    6    7 ar  
     9    6   11 ar  
    10    7    8 ar  
    11    7   22 1   
    12    8    9 ar  
    13    8   23 1   
    14    9   10 ar  
    15    9   24 1   
    16   10   11 ar  
    17   10   25 1   
    18   11   12 1   
    19   12   13 3   
    20   13   14 1   
    21   14   15 1   
    22   14   26 1   
    23   14   27 1   
    24   15   16 1   
    25   15   28 1   
    26   15   29 1   
    27   16   17 1   
    28   16   30 1   
    29   16   31 1   
    30   17   18 1   
    31   17   32 1   
    32   17   33 1   
    33   18   19 1   
    34   18   34 1   
    35   18   35 1   
    36   19   36 1   
    37   19   37 1   
    38   19   38 1   
@<TRIPOS>SUBSTRUCTURE
     1 RS7         1 TEMP              0 ****  ****    0 ROOT
