@<TRIPOS>MOLECULE
RS8
   46    48     1     0     0
SMALL
bcc


@<TRIPOS>ATOM
      1 C1         -5.1860    0.2130    2.4960 cc        1 RS8      0.854100
      2 N1         -5.2270    0.5260    3.8740 nh        1 RS8     -0.893800
      3 O1         -7.3040   -1.0290    0.0030 o         1 RS8     -0.506100
      4 C2         -6.2610   -0.6490    0.5520 c         1 RS8      0.620000
      5 N2         -6.2950   -0.2030    1.8850 nd        1 RS8     -0.749100
      6 C3         -4.9360   -0.6330   -0.1590 ca        1 RS8      0.196500
      7 N3         -3.9250    0.3350    1.8630 na        1 RS8     -0.832900
      8 O2         -0.9740   -1.4140   -2.9270 o         1 RS8     -0.605100
      9 C4         -3.7860   -0.1380    0.5540 ca        1 RS8      0.541900
     10 N4         -2.5410   -0.0960   -0.0310 nb        1 RS8     -0.659000
     11 C5         -2.4650   -0.5390   -1.2950 ca        1 RS8      0.312500
     12 N5         -4.8240   -1.0810   -1.4340 nb        1 RS8     -0.558000
     13 C6         -3.6110   -1.0370   -1.9950 ca        1 RS8      0.290900
     14 C7         -1.1390   -0.5620   -2.0290 c         1 RS8      0.560600
     15 N6         -0.2270    0.4180   -1.7350 n         1 RS8     -0.510900
     16 C8          1.1120    0.3740   -2.2650 c3        1 RS8     -0.010000
     17 C9          2.1810    0.7630   -1.2180 c         1 RS8      0.629100
     18 O3          1.8310    1.2460   -0.1170 o         1 RS8     -0.647100
     19 N7          3.4780    0.4850   -1.5640 n         1 RS8     -0.490900
     20 C10         4.6030    1.1000   -0.8810 c3        1 RS8     -0.060300
     21 C18         5.4680    1.9880   -1.8600 c         1 RS8      0.908600
     22 O5          5.2630    1.8780   -3.1000 o         1 RS8     -0.824300
     23 C11         5.5570    0.0680   -0.2640 c3        1 RS8     -0.040100
     24 C12         4.9900   -0.6580    0.9020 ca        1 RS8     -0.043300
     25 C13         4.7250    0.0240    2.0980 ca        1 RS8     -0.126500
     26 C17         4.7390   -2.0340    0.8370 ca        1 RS8     -0.126500
     27 C14         4.2210   -0.6580    3.2030 ca        1 RS8     -0.136500
     28 C16         4.2350   -2.7150    1.9440 ca        1 RS8     -0.136500
     29 C15         3.9770   -2.0300    3.1300 ca        1 RS8     -0.154000
     30 O4          6.3120    2.7440   -1.3150 o         1 RS8     -0.824300
     31 H16        -6.1470    0.5480    4.2620 hn        1 RS8      0.422300
     32 H17        -4.6460    1.2820    4.1630 hn        1 RS8      0.422300
     33 H15        -3.1060    0.5690    2.3820 hn        1 RS8      0.470800
     34 H14        -3.5070   -1.4160   -3.0290 h4        1 RS8      0.067100
     35 H13        -0.3280    0.9470   -0.8910 hn        1 RS8      0.345500
     36 H11         1.1810    1.1200   -3.1100 h1        1 RS8      0.081700
     37 H12         1.3280   -0.6520   -2.6810 h1        1 RS8      0.081700
     38 H10         3.6630    0.3420   -2.5400 hn        1 RS8      0.320500
     39 H2          4.2160    1.7700   -0.0600 h1        1 RS8      0.074700
     40 H3          5.8860   -0.6600   -1.0520 hc        1 RS8      0.063700
     41 H4          6.4660    0.6470    0.0640 hc        1 RS8      0.063700
     42 H9          4.9080    1.1080    2.1500 ha        1 RS8      0.134500
     43 H5          4.9360   -2.5790   -0.0980 ha        1 RS8      0.134500
     44 H8          4.0110   -0.1120    4.1330 ha        1 RS8      0.115000
     45 H6          4.0390   -3.7940    1.8800 ha        1 RS8      0.115000
     46 H7          3.5790   -2.5660    4.0020 ha        1 RS8      0.112000
@<TRIPOS>BOND
     1    1    2 1   
     2    1    5 2   
     3    1    7 1   
     4    2   31 1   
     5    2   32 1   
     6    3    4 2   
     7    4    5 1   
     8    4    6 1   
     9    6    9 ar  
    10    6   12 ar  
    11    7    9 1   
    12    7   33 1   
    13    8   14 2   
    14    9   10 ar  
    15   10   11 ar  
    16   11   13 ar  
    17   11   14 1   
    18   12   13 ar  
    19   13   34 1   
    20   14   15 1   
    21   15   16 1   
    22   15   35 1   
    23   16   17 1   
    24   16   36 1   
    25   16   37 1   
    26   17   18 2   
    27   17   19 1   
    28   19   20 1   
    29   19   38 1   
    30   20   21 1   
    31   20   23 1   
    32   20   39 1   
    33   21   22 1   
    34   21   30 1   
    35   23   24 1   
    36   23   40 1   
    37   23   41 1   
    38   24   25 ar  
    39   24   26 ar  
    40   25   27 ar  
    41   25   42 1   
    42   26   28 ar  
    43   26   43 1   
    44   27   29 ar  
    45   27   44 1   
    46   28   29 ar  
    47   28   45 1   
    48   29   46 1   
@<TRIPOS>SUBSTRUCTURE
     1 RS8         1 TEMP              0 ****  ****    0 ROOT
