@<TRIPOS>MOLECULE
RS8
   46    39     1     0     0
SMALL
bcc


@<TRIPOS>ATOM
      1 C1          6.3400    3.9550   -2.5680 c1        1 RS8      0.263000
      2 N1          7.4300    4.8570   -2.2440 n3        1 RS8     -0.332000
      3 O1          4.0760    3.2580   -5.1920 o         1 RS8     -0.267000
      4 C2          4.6180    3.1850   -4.1310 c1        1 RS8      0.330000
      5 N2          5.6970    4.0410   -3.8310 n2        1 RS8     -0.322000
      6 C3          4.1460    2.1760   -3.1080 c1        1 RS8     -0.156000
      7 N3          5.8870    2.9860   -1.5850 n2        1 RS8     -0.284000
      8 O2          3.6550   -0.8720    0.7670 o         1 RS8     -0.367000
      9 C4          4.7650    2.0970   -1.8930 c2        1 RS8      0.086000
     10 N4          4.3360    1.1860   -0.9640 n1        1 RS8     -0.135000
     11 C5          3.3000    0.3660   -1.2500 c1        1 RS8     -0.040000
     12 N5          3.0950    1.3430   -3.3970 n1        1 RS8     -0.032000
     13 C6          2.6730    0.4470   -2.4830 c1        1 RS8     -0.108000
     14 C7          2.9660   -0.7340   -0.2370 c1        1 RS8      0.344000
     15 N6          1.9020   -1.6130   -0.4830 n2        1 RS8     -0.326000
     16 C8          1.1980   -2.1840    0.5960 c3        1 RS8     -0.068000
     17 C9         -0.2860   -2.0850    0.3380 c1        1 RS8      0.276000
     18 O3         -0.7050   -2.0610   -0.8100 o         1 RS8     -0.412000
     19 N7         -1.2000   -2.0880    1.4310 n2        1 RS8     -0.316000
     20 C10        -2.4800   -1.4380    1.3000 c3        1 RS8     -0.077000
     21 C18        -2.2730    0.0130    1.0080 c2        1 RS8      0.331000
     22 O5         -1.5870    0.7150    1.7830 o         1 RS8     -0.558500
     23 C11        -3.2530   -1.5870    2.5850 c3        1 RS8     -0.115000
     24 C12        -4.7710   -1.4930    2.2890 c2        1 RS8     -0.051000
     25 C13        -5.3270   -0.2910    1.8590 c2        1 RS8     -0.120000
     26 C17        -5.5860   -2.6000    2.4980 c1        1 RS8     -0.137000
     27 C14        -6.6960   -0.1990    1.6370 c1        1 RS8     -0.140000
     28 C16        -6.9520   -2.5070    2.2770 c1        1 RS8     -0.151000
     29 C15        -7.5090   -1.3060    1.8460 c1        1 RS8     -0.151000
     30 O4         -2.7770    0.5220   -0.0150 o         1 RS8     -0.558500
     31 H16         7.9090    4.7360   -1.4780 hn        1 RS8      0.217500
     32 H17         7.6560    5.5390   -2.8270 hn        1 RS8      0.217500
     33 H15         6.2570    2.9760   -0.7570 hn        1 RS8      0.266000
     34 H14         1.9290   -0.1690   -2.7010 ha        1 RS8      0.205000
     35 H13         1.7230   -1.8860   -1.3390 hn        1 RS8      0.263000
     36 H11         1.4220   -1.7000    1.4300 h1        1 RS8      0.114500
     37 H12         1.4480   -3.1220    0.6870 h1        1 RS8      0.114500
     38 H10        -0.9450   -2.4420    2.2420 hn        1 RS8      0.245000
     39 H2         -2.9860   -1.8540    0.5620 h1        1 RS8      0.115000
     40 H3         -2.9960   -0.8740    3.2050 hc        1 RS8      0.088000
     41 H4         -3.0520   -2.4620    2.9890 hc        1 RS8      0.088000
     42 H9         -4.7570    0.4840    1.7120 ha        1 RS8      0.201000
     43 H5         -5.2050   -3.4230    2.8480 ha        1 RS8      0.119000
     44 H8         -7.0910    0.6510    1.3320 ha        1 RS8      0.119000
     45 H6         -7.5270   -3.2900    2.4240 ha        1 RS8      0.109000
     46 H7         -8.4650   -1.2530    1.6500 ha        1 RS8      0.109000
@<TRIPOS>BOND
     1    1    2 1   
     2    1    5 1   
     3    2   31 1   
     4    2   32 1   
     5    3    4 1   
     6    4    5 1   
     7    6    9 1   
     8    6   12 1   
     9    7    9 1   
    10    7   33 1   
    11    8   14 1   
    12    9   10 1   
    13   11   13 1   
    14   13   34 1   
    15   15   16 1   
    16   15   35 1   
    17   16   17 1   
    18   16   36 1   
    19   16   37 1   
    20   17   18 1   
    21   19   20 1   
    22   19   38 1   
    23   20   21 1   
    24   20   23 1   
    25   20   39 1   
    26   21   22 1   
    27   21   30 1   
    28   23   24 1   
    29   23   40 1   
    30   23   41 1   
    31   24   25 1   
    32   24   26 1   
    33   25   27 1   
    34   25   42 1   
    35   26   43 1   
    36   27   44 1   
    37   28   29 1   
    38   28   45 1   
    39   29   46 1   
@<TRIPOS>SUBSTRUCTURE
     1 RS8         1 TEMP              0 ****  ****    0 ROOT
