@<TRIPOS>MOLECULE
RSA
   26    27     1     0     0
SMALL
bcc


@<TRIPOS>ATOM
      1 C13        -0.3660    0.6510   -4.9340 c1        1 RSA     -0.140500
      2 C12        -0.1090    0.0160   -3.9540 c1        1 RSA     -0.152100
      3 C11         0.2140   -0.7760   -2.7920 c3        1 RSA      0.241900
      4 N10        -0.3490   -0.2650   -1.5500 n3        1 RSA     -0.810200
      5 C9          0.3390   -0.7480   -0.3670 c3        1 RSA      0.219800
      6 C1          1.8330   -0.3280   -0.1970 c3        1 RSA     -0.116400
      7 C2          2.0100    0.1810    1.2360 c3        1 RSA     -0.034100
      8 C3          0.6400    0.2150    1.8210 ca        1 RSA     -0.084300
      9 C8         -0.3170   -0.2870    0.9130 ca        1 RSA     -0.093300
     10 C7         -1.6590   -0.3380    1.2520 ca        1 RSA     -0.096000
     11 C4          0.2510    0.6600    3.0750 ca        1 RSA     -0.123000
     12 C5         -1.1060    0.6060    3.4190 ca        1 RSA     -0.126000
     13 C6         -2.0490    0.1160    2.5190 ca        1 RSA     -0.138000
     14 H13        -0.5920    1.2110   -5.8060 ha        1 RSA      0.165500
     15 H111        1.3440   -0.8730   -2.7400 h1        1 RSA      0.051700
     16 H112       -0.2030   -1.8200   -2.9320 h1        1 RSA      0.051700
     17 H10        -0.3890    0.7370   -1.5540 hn        1 RSA      0.370800
     18 H9          0.2920   -1.8780   -0.4040 h1        1 RSA      0.068700
     19 H11         2.4950   -1.2060   -0.3900 hc        1 RSA      0.046700
     20 H12         2.1100    0.4740   -0.9250 hc        1 RSA      0.046700
     21 H21         2.6730   -0.5040    1.8240 hc        1 RSA      0.054700
     22 H22         2.4780    1.1980    1.2480 hc        1 RSA      0.054700
     23 H7         -2.4040   -0.7210    0.5390 ha        1 RSA      0.146000
     24 H4          0.9900    1.0510    3.7880 ha        1 RSA      0.133000
     25 H5         -1.4260    0.9570    4.4110 ha        1 RSA      0.130000
     26 H6         -3.1110    0.0820    2.8030 ha        1 RSA      0.131000
@<TRIPOS>BOND
     1    1    2 3   
     2    1   14 1   
     3    2    3 1   
     4    3    4 1   
     5    3   15 1   
     6    3   16 1   
     7    4    5 1   
     8    4   17 1   
     9    5    6 1   
    10    5    9 1   
    11    5   18 1   
    12    6    7 1   
    13    6   19 1   
    14    6   20 1   
    15    7    8 1   
    16    7   21 1   
    17    7   22 1   
    18    8    9 ar  
    19    8   11 ar  
    20    9   10 ar  
    21   10   13 ar  
    22   10   23 1   
    23   11   12 ar  
    24   11   24 1   
    25   12   13 ar  
    26   12   25 1   
    27   13   26 1   
@<TRIPOS>SUBSTRUCTURE
     1 RSA         1 TEMP              0 ****  ****    0 ROOT
