@<TRIPOS>MOLECULE
RSA
   27    28     1     0     0
SMALL
bcc


@<TRIPOS>ATOM
      1 C13        -1.2460    0.0120   -2.4050 c1        1 RSA      0.034500
      2 C12        -0.7080   -0.0140   -1.3350 c1        1 RSA     -0.285100
      3 C11        -0.1500   -0.0510   -0.0160 c3        1 RSA      0.223900
      4 N10         1.3490    0.0380   -0.0420 n4        1 RSA     -0.771000
      5 C9          1.9510    0.0540    1.3460 c3        1 RSA      0.188800
      6 C1          3.3400   -0.6430    1.3880 c3        1 RSA     -0.099400
      7 C2          4.3810    0.4410    1.6890 c3        1 RSA     -0.048100
      8 C3          3.5970    1.6700    1.9940 ca        1 RSA     -0.051300
      9 C8          2.2130    1.4590    1.8070 ca        1 RSA     -0.193300
     10 C7          1.2940    2.4620    2.0870 ca        1 RSA     -0.091000
     11 C4          4.0640    2.8970    2.4430 ca        1 RSA     -0.107000
     12 C5          3.1380    3.9130    2.7090 ca        1 RSA     -0.076000
     13 C6          1.7700    3.6980    2.5380 ca        1 RSA     -0.123000
     14 H13        -1.7230    0.0350   -3.3590 ha        1 RSA      0.200500
     15 H111       -0.5340    0.8180    0.6010 hx        1 RSA      0.117700
     16 H112       -0.4320   -1.0170    0.5030 hx        1 RSA      0.117700
     17 H10         1.7200   -0.7630   -0.5650 hn        1 RSA      0.452300
     18 H9          1.2250   -0.4780    2.0260 hx        1 RSA      0.112700
     19 H11         3.3200   -1.4010    2.2130 hc        1 RSA      0.078700
     20 H12         3.5910   -1.1830    0.4420 hc        1 RSA      0.078700
     21 H21         5.0190    0.1430    2.5620 hc        1 RSA      0.085700
     22 H22         5.0630    0.6050    0.8150 hc        1 RSA      0.085700
     23 H7          0.2120    2.2990    1.9760 ha        1 RSA      0.134000
     24 H4          5.1410    3.0690    2.5940 ha        1 RSA      0.162000
     25 H5          3.4960    4.8930    3.0670 ha        1 RSA      0.161000
     26 H6          1.0550    4.5040    2.7660 ha        1 RSA      0.159000
     27 H102        1.6260    0.8950   -0.5350 hn        1 RSA      0.452300
@<TRIPOS>BOND
     1    1    2 3   
     2    1   14 1   
     3    2    3 1   
     4    3    4 1   
     5    3   15 1   
     6    3   16 1   
     7    4    5 1   
     8    4   17 1   
     9    4   27 1   
    10    5    6 1   
    11    5    9 1   
    12    5   18 1   
    13    6    7 1   
    14    6   19 1   
    15    6   20 1   
    16    7    8 1   
    17    7   21 1   
    18    7   22 1   
    19    8    9 ar  
    20    8   11 ar  
    21    9   10 ar  
    22   10   13 ar  
    23   10   23 1   
    24   11   12 ar  
    25   11   24 1   
    26   12   13 ar  
    27   12   25 1   
    28   13   26 1   
@<TRIPOS>SUBSTRUCTURE
     1 RSA         1 TEMP              0 ****  ****    0 ROOT
