@<TRIPOS>MOLECULE
RSA
   27    28     1     0     0
SMALL
bcc


@<TRIPOS>ATOM
      1 C13        -1.2660   -0.1440   -2.3440 c1        1 RSA      0.034500
      2 C12        -0.7190   -0.1370   -1.2790 c1        1 RSA     -0.285100
      3 C11        -0.1470   -0.1350    0.0350 c3        1 RSA      0.223900
      4 N10         1.3500   -0.0260   -0.0070 ny        1 RSA     -0.771000
      5 C9          1.9660    0.0310    1.3740 c3        1 RSA      0.188800
      6 C1          3.3650   -0.6440    1.4170 c3        1 RSA     -0.099400
      7 C2          4.3930    0.4610    1.6820 c3        1 RSA     -0.048100
      8 C3          3.5940    1.6860    1.9670 ca        1 RSA     -0.051300
      9 C8          2.2110    1.4500    1.8000 ca        1 RSA     -0.193300
     10 C7          1.2800    2.4450    2.0660 ca        1 RSA     -0.091000
     11 C4          4.0470    2.9290    2.3820 ca        1 RSA     -0.107000
     12 C5          3.1090    3.9380    2.6350 ca        1 RSA     -0.076000
     13 C6          1.7420    3.6980    2.4830 ca        1 RSA     -0.123000
     14 H13        -1.7530   -0.1500   -3.2930 ha        1 RSA      0.200500
     15 H111       -0.5370    0.7430    0.6350 hx        1 RSA      0.117700
     16 H112       -0.4110   -1.0920    0.5800 hx        1 RSA      0.117700
     17 H10         1.6110    0.8230   -0.5240 hn        1 RSA      0.452300
     18 H9          1.2540   -0.4960    2.0730 hx        1 RSA      0.112700
     19 H11         3.3650   -1.3830    2.2600 hc        1 RSA      0.078700
     20 H12         3.6140   -1.2030    0.4820 hc        1 RSA      0.078700
     21 H21         5.0620    0.6150    0.7960 hc        1 RSA      0.085700
     22 H22         5.0440    0.1940    2.5540 hc        1 RSA      0.085700
     23 H7          0.2000    2.2640    1.9720 ha        1 RSA      0.134000
     24 H4          5.1230    3.1210    2.5170 ha        1 RSA      0.162000
     25 H5          3.4560    4.9300    2.9670 ha        1 RSA      0.161000
     26 H6          1.0180    4.4990    2.7010 ha        1 RSA      0.159000
     27 H102        1.7270   -0.8340   -0.5150 hn        1 RSA      0.452300
@<TRIPOS>BOND
     1    1    2 3   
     2    1   14 1   
     3    2    3 1   
     4    3    4 1   
     5    3   15 1   
     6    3   16 1   
     7    4    5 1   
     8    4   17 1   
     9    4   27 1   
    10    5    6 1   
    11    5    9 1   
    12    5   18 1   
    13    6    7 1   
    14    6   19 1   
    15    6   20 1   
    16    7    8 1   
    17    7   21 1   
    18    7   22 1   
    19    8    9 ar  
    20    8   11 ar  
    21    9   10 ar  
    22   10   13 ar  
    23   10   23 1   
    24   11   12 ar  
    25   11   24 1   
    26   12   13 ar  
    27   12   25 1   
    28   13   26 1   
@<TRIPOS>SUBSTRUCTURE
     1 RSA         1 TEMP              0 ****  ****    0 ROOT
