@<TRIPOS>MOLECULE
RSA
   27    28     1     0     0
SMALL
bcc


@<TRIPOS>ATOM
      1 C13        -1.2050   -0.0590   -2.4230 c1        1 RSA      0.034500
      2 C12        -0.6760   -0.0680   -1.3490 c1        1 RSA     -0.285100
      3 C11        -0.1280   -0.0840   -0.0250 c3        1 RSA      0.223900
      4 N10         1.3700    0.0070   -0.0400 n4        1 RSA     -0.771000
      5 C9          1.9620    0.0450    1.3530 c3        1 RSA      0.188800
      6 C1          3.3530   -0.6460    1.4150 c3        1 RSA     -0.099400
      7 C2          4.3880    0.4460    1.7070 c3        1 RSA     -0.048100
      8 C3          3.5970    1.6760    1.9900 ca        1 RSA     -0.051300
      9 C8          2.2150    1.4570    1.7960 ca        1 RSA     -0.193300
     10 C7          1.2900    2.4600    2.0560 ca        1 RSA     -0.091000
     11 C4          4.0570    2.9110    2.4240 ca        1 RSA     -0.107000
     12 C5          3.1250    3.9270    2.6710 ca        1 RSA     -0.076000
     13 C6          1.7590    3.7040    2.4930 ca        1 RSA     -0.123000
     14 H13        -1.6750   -0.0520   -3.3810 ha        1 RSA      0.200500
     15 H111       -0.4130   -1.0430    0.5060 hx        1 RSA      0.117700
     16 H112       -0.5190    0.7930    0.5760 hx        1 RSA      0.117700
     17 H10         1.7470   -0.8000   -0.5480 hn        1 RSA      0.452300
     18 H9          1.2320   -0.4810    2.0340 hx        1 RSA      0.112700
     19 H11         3.3300   -1.3920    2.2500 hc        1 RSA      0.078700
     20 H12         3.6120   -1.1990    0.4780 hc        1 RSA      0.078700
     21 H21         5.0740    0.6000    0.8350 hc        1 RSA      0.086200
     22 H22         5.0210    0.1630    2.5880 hc        1 RSA      0.086200
     23 H7          0.2100    2.2910    1.9410 ha        1 RSA      0.134000
     24 H4          5.1320    3.0890    2.5800 ha        1 RSA      0.162000
     25 H5          3.4760    4.9130    3.0180 ha        1 RSA      0.161000
     26 H6          1.0390    4.5110    2.7050 ha        1 RSA      0.159000
     27 H102        1.6500    0.8580   -0.5430 hn        1 RSA      0.452300
@<TRIPOS>BOND
     1    1    2 3   
     2    1   14 1   
     3    2    3 1   
     4    3    4 1   
     5    3   15 1   
     6    3   16 1   
     7    4    5 1   
     8    4   17 1   
     9    4   27 1   
    10    5    6 1   
    11    5    9 1   
    12    5   18 1   
    13    6    7 1   
    14    6   19 1   
    15    6   20 1   
    16    7    8 1   
    17    7   21 1   
    18    7   22 1   
    19    8    9 ar  
    20    8   11 ar  
    21    9   10 ar  
    22   10   13 ar  
    23   10   23 1   
    24   11   12 ar  
    25   11   24 1   
    26   12   13 ar  
    27   12   25 1   
    28   13   26 1   
@<TRIPOS>SUBSTRUCTURE
     1 RSA         1 TEMP              0 ****  ****    0 ROOT
