@<TRIPOS>MOLECULE
RSF
   19    20     1     0     0
SMALL
bcc


@<TRIPOS>ATOM
      1 C5          0.0790    0.4680    0.1090 c3        1 RSF      0.123400
      2 C6          1.4930   -0.1040    0.0270 c3        1 RSF     -0.102400
      3 O1         -0.3660    0.3720    1.4690 os        1 RSF     -0.420600
      4 C4          2.1220    1.9590    2.6530 c3        1 RSF      0.088400
      5 O2          0.9250    1.3030    3.0720 os        1 RSF     -0.415600
      6 C1          0.7290    0.1070    2.3280 c3        1 RSF      0.317900
      7 C2          1.9890   -0.1720    1.4680 c3        1 RSF     -0.103700
      8 C3          2.9760    0.9330    1.8830 c3        1 RSF      0.115100
      9 O3          3.5890    1.4970    0.7400 oh        1 RSF     -0.587800
     10 H15        -0.6590   -0.1130   -0.4980 h1        1 RSF      0.051200
     11 H25         0.0510    1.5480   -0.1860 h1        1 RSF      0.051200
     12 H16         1.4750   -1.1300   -0.4190 hc        1 RSF      0.069200
     13 H26         2.1480    0.5360   -0.6130 hc        1 RSF      0.069200
     14 H14         1.8480    2.8250    1.9980 h1        1 RSF      0.056700
     15 H24         2.6220    2.3190    3.5870 h1        1 RSF      0.056700
     16 H1          0.4140   -0.6890    3.0490 h2        1 RSF      0.100700
     17 H2          2.4250   -1.1740    1.6940 hc        1 RSF      0.076700
     18 H3          3.7700    0.5030    2.5530 h1        1 RSF      0.045700
     19 HO3         4.1370    2.2260    1.0550 ho        1 RSF      0.408000
@<TRIPOS>BOND
     1    1    2 1   
     2    1    3 1   
     3    1   10 1   
     4    1   11 1   
     5    2    7 1   
     6    2   12 1   
     7    2   13 1   
     8    3    6 1   
     9    4    5 1   
    10    4    8 1   
    11    4   14 1   
    12    4   15 1   
    13    5    6 1   
    14    6    7 1   
    15    6   16 1   
    16    7    8 1   
    17    7   17 1   
    18    8    9 1   
    19    8   18 1   
    20    9   19 1   
@<TRIPOS>SUBSTRUCTURE
     1 RSF         1 TEMP              0 ****  ****    0 ROOT
