@<TRIPOS>MOLECULE
RSF
   19    20     1     0     0
SMALL
bcc


@<TRIPOS>ATOM
      1 C5          1.9230   -0.2030    0.4630 c3        1 RSF      0.123400
      2 C6          1.1420   -1.2810   -0.2870 c3        1 RSF     -0.102400
      3 O1          1.6090    1.0670   -0.1240 os        1 RSF     -0.420600
      4 C4         -1.5310    0.7450    0.2570 c3        1 RSF      0.088400
      5 O2         -0.5660    1.6600   -0.2620 os        1 RSF     -0.415600
      6 C1          0.4630    0.9600   -0.9490 c3        1 RSF      0.317900
      7 C2          0.0690   -0.5350   -1.0720 c3        1 RSF     -0.103700
      8 C3         -1.3500   -0.5960   -0.4800 c3        1 RSF      0.115100
      9 O3         -1.4710   -1.7050    0.3890 oh        1 RSF     -0.587800
     10 H15         1.6370   -0.1610    1.5450 h1        1 RSF      0.051200
     11 H25         3.0310   -0.3230    0.3640 h1        1 RSF      0.051200
     12 H16         1.8140   -1.8340   -0.9900 hc        1 RSF      0.069200
     13 H26         0.7030   -2.0250    0.4220 hc        1 RSF      0.069200
     14 H14        -1.3590    0.6250    1.3570 h1        1 RSF      0.056700
     15 H24        -2.5310    1.2080    0.0670 h1        1 RSF      0.056700
     16 H1          0.6700    1.5150   -1.8980 h2        1 RSF      0.100700
     17 H2          0.0490   -0.8660   -2.1380 hc        1 RSF      0.076700
     18 H3         -2.1050   -0.6930   -1.3080 h1        1 RSF      0.045700
     19 HO3        -2.3510   -1.6500    0.7820 ho        1 RSF      0.408000
@<TRIPOS>BOND
     1    1    2 1   
     2    1    3 1   
     3    1   10 1   
     4    1   11 1   
     5    2    7 1   
     6    2   12 1   
     7    2   13 1   
     8    3    6 1   
     9    4    5 1   
    10    4    8 1   
    11    4   14 1   
    12    4   15 1   
    13    5    6 1   
    14    6    7 1   
    15    6   16 1   
    16    7    8 1   
    17    7   17 1   
    18    8    9 1   
    19    8   18 1   
    20    9   19 1   
@<TRIPOS>SUBSTRUCTURE
     1 RSF         1 TEMP              0 ****  ****    0 ROOT
