@<TRIPOS>MOLECULE
RSF
   19    20     1     0     0
SMALL
bcc


@<TRIPOS>ATOM
      1 C5          0.0680    0.4530    0.1260 c3        1 RSF      0.123400
      2 C6          1.4850   -0.1100    0.0320 c3        1 RSF     -0.102400
      3 O1         -0.3620    0.3570    1.4910 os        1 RSF     -0.420600
      4 C4          2.1270    1.9670    2.6440 c3        1 RSF      0.088400
      5 O2          0.9390    1.3030    3.0770 os        1 RSF     -0.415600
      6 C1          0.7440    0.1030    2.3390 c3        1 RSF      0.317900
      7 C2          1.9970   -0.1690    1.4670 c3        1 RSF     -0.103700
      8 C3          2.9790    0.9440    1.8680 c3        1 RSF      0.115100
      9 O3          3.5760    1.5090    0.7170 oh        1 RSF     -0.587800
     10 H15        -0.6720   -0.1360   -0.4720 h1        1 RSF      0.051200
     11 H25         0.0280    1.5310   -0.1720 h1        1 RSF      0.051200
     12 H16         1.4700   -1.1370   -0.4110 hc        1 RSF      0.069200
     13 H26         2.1290    0.5340   -0.6180 hc        1 RSF      0.069200
     14 H14         1.8400    2.8290    1.9890 h1        1 RSF      0.056700
     15 H24         2.6330    2.3330    3.5710 h1        1 RSF      0.056700
     16 H1          0.4430   -0.6920    3.0660 h2        1 RSF      0.100700
     17 H2          2.4420   -1.1670    1.6920 hc        1 RSF      0.076700
     18 H3          3.7840    0.5220    2.5310 h1        1 RSF      0.045700
     19 HO3         4.1230    2.2430    1.0240 ho        1 RSF      0.408000
@<TRIPOS>BOND
     1    1    2 1   
     2    1    3 1   
     3    1   10 1   
     4    1   11 1   
     5    2    7 1   
     6    2   12 1   
     7    2   13 1   
     8    3    6 1   
     9    4    5 1   
    10    4    8 1   
    11    4   14 1   
    12    4   15 1   
    13    5    6 1   
    14    6    7 1   
    15    6   16 1   
    16    7    8 1   
    17    7   17 1   
    18    8    9 1   
    19    8   18 1   
    20    9   19 1   
@<TRIPOS>SUBSTRUCTURE
     1 RSF         1 TEMP              0 ****  ****    0 ROOT
