@<TRIPOS>MOLECULE
RSF
   19    20     1     0     0
SMALL
bcc


@<TRIPOS>ATOM
      1 C5         -1.8620   -0.5560   -1.1030 c3        1 RSF      0.126400
      2 C6         -0.5960   -0.5560   -1.1030 c3        1 RSF     -0.107400
      3 O1         -2.2430    0.0870    0.1800 os        1 RSF     -0.419600
      4 C4          1.1140    1.3930    0.5520 c3        1 RSF      0.128400
      5 O2         -0.2890    1.5900    0.9950 os        1 RSF     -0.420600
      6 C1         -0.9260    0.1440    1.0180 c3        1 RSF      0.325900
      7 C2         -0.1530   -0.5560    0.4460 c3        1 RSF     -0.150700
      8 C3          1.3070    0.1290    0.6270 c3        1 RSF      0.115100
      9 O3          2.2040   -0.3080   -0.4460 oh        1 RSF     -0.582800
     10 H15        -2.2020   -0.0370   -1.8560 h1        1 RSF      0.053200
     11 H25        -2.2020   -1.4700   -1.1380 h1        1 RSF      0.053200
     12 H16        -0.2600   -1.3560   -1.5490 hc        1 RSF      0.062200
     13 H26        -0.2600    0.2450   -1.5490 hc        1 RSF      0.062200
     14 H14         1.2260    1.7000   -0.3680 h1        1 RSF      0.065200
     15 H24         1.7280    1.8660    1.1450 h1        1 RSF      0.065200
     16 H1         -1.0730   -0.1650    1.9320 h2        1 RSF      0.099700
     17 H2         -0.1640   -1.4600    0.8130 hc        1 RSF      0.073700
     18 H3          1.6830   -0.1030    1.4970 h1        1 RSF      0.045700
     19 HO3         2.9700   -0.5890   -0.0950 ho        1 RSF      0.405000
@<TRIPOS>BOND
     1    1    2 1   
     2    1    3 1   
     3    1   10 1   
     4    1   11 1   
     5    2    7 1   
     6    2   12 1   
     7    2   13 1   
     8    3    6 1   
     9    4    5 1   
    10    4    8 1   
    11    4   14 1   
    12    4   15 1   
    13    5    6 1   
    14    6    7 1   
    15    6   16 1   
    16    7    8 1   
    17    7   17 1   
    18    8    9 1   
    19    8   18 1   
    20    9   19 1   
@<TRIPOS>SUBSTRUCTURE
     1 RSF         1 TEMP              0 ****  ****    0 ROOT
