@<TRIPOS>MOLECULE
RSG
   19    20     1     0     0
SMALL
bcc


@<TRIPOS>ATOM
      1 C1         -1.3530    0.5990   -0.4770 c3        1 RSG      0.115100
      2 O1         -0.5650   -1.6570   -0.2680 os        1 RSG     -0.415600
      3 C2          0.0640    0.5410   -1.0740 c3        1 RSG     -0.103700
      4 O2          1.6100   -1.0620   -0.1360 os        1 RSG     -0.420600
      5 C3          0.4610   -0.9530   -0.9570 c3        1 RSG      0.317900
      6 O3         -1.4720    1.7050    0.3960 oh        1 RSG     -0.587800
      7 C4         -1.5300   -0.7450    0.2570 c3        1 RSG      0.088400
      8 C5          1.9240    0.2080    0.4540 c3        1 RSG      0.123400
      9 C6          1.1390    1.2870   -0.2910 c3        1 RSG     -0.102400
     10 H1         -2.1110    0.6970   -1.3020 h1        1 RSG      0.045700
     11 H2          0.0400    0.8760   -2.1390 hc        1 RSG      0.076700
     12 H3          0.6650   -1.5050   -1.9090 h2        1 RSG      0.100700
     13 HO3        -2.3510    1.6470    0.7920 ho        1 RSG      0.408000
     14 H4         -1.3540   -0.6280    1.3570 h1        1 RSG      0.056700
     15 H4A        -2.5300   -1.2090    0.0690 h1        1 RSG      0.056700
     16 H5          1.6420    0.1620    1.5360 h1        1 RSG      0.051200
     17 H5A         3.0310    0.3290    0.3510 h1        1 RSG      0.051200
     18 H6          1.8080    1.8420   -0.9940 hc        1 RSG      0.069200
     19 H6A         0.7010    2.0270    0.4230 hc        1 RSG      0.069200
@<TRIPOS>BOND
     1    1    3 1   
     2    1    6 1   
     3    1    7 1   
     4    1   10 1   
     5    2    5 1   
     6    2    7 1   
     7    3    5 1   
     8    3    9 1   
     9    3   11 1   
    10    4    5 1   
    11    4    8 1   
    12    5   12 1   
    13    6   13 1   
    14    7   14 1   
    15    7   15 1   
    16    8    9 1   
    17    8   16 1   
    18    8   17 1   
    19    9   18 1   
    20    9   19 1   
@<TRIPOS>SUBSTRUCTURE
     1 RSG         1 TEMP              0 ****  ****    0 ROOT
