@<TRIPOS>MOLECULE
RSG
   19    20     1     0     0
SMALL
bcc


@<TRIPOS>ATOM
      1 C1         -1.1780   -0.5800   -0.3400 c3        1 RSG      0.115100
      2 O1         -0.3520   -1.2450    1.5910 os        1 RSG     -0.415600
      3 C2          0.4410   -0.5800   -0.3400 c3        1 RSG     -0.103700
      4 O2          0.9530    0.9560    1.2660 os        1 RSG     -0.420600
      5 C3          0.7890   -0.5800    0.8310 c3        1 RSG      0.317900
      6 O3         -1.6910    0.8080   -0.1190 oh        1 RSG     -0.587800
      7 C4         -1.5170   -1.3110    0.5940 c3        1 RSG      0.088400
      8 C5          1.4570    1.5660    0.2400 c3        1 RSG      0.123400
      9 C6          1.0140    0.7620   -0.9420 c3        1 RSG     -0.102400
     10 H1         -1.5160   -0.9350   -1.1850 h1        1 RSG      0.045700
     11 H2          0.7950   -1.3580   -0.8120 hc        1 RSG      0.076700
     12 H3          1.6240   -1.0710    0.9500 h2        1 RSG      0.100700
     13 HO3        -2.4670    0.9070   -0.5400 ho        1 RSG      0.408000
     14 H4         -2.3360   -0.9760    1.0070 h1        1 RSG      0.056700
     15 H4A        -1.6440   -2.2260    0.2800 h1        1 RSG      0.056700
     16 H5          2.4310    1.5780    0.2970 h1        1 RSG      0.051200
     17 H5A         1.1080    2.4760    0.1820 h1        1 RSG      0.051200
     18 H6          0.3180    1.2380   -1.4330 hc        1 RSG      0.069200
     19 H6A         1.7730    0.5750   -1.5270 hc        1 RSG      0.069200
@<TRIPOS>BOND
     1    1    3 1   
     2    1    6 1   
     3    1    7 1   
     4    1   10 1   
     5    2    5 1   
     6    2    7 1   
     7    3    5 1   
     8    3    9 1   
     9    3   11 1   
    10    4    5 1   
    11    4    8 1   
    12    5   12 1   
    13    6   13 1   
    14    7   14 1   
    15    7   15 1   
    16    8    9 1   
    17    8   16 1   
    18    8   17 1   
    19    9   18 1   
    20    9   19 1   
@<TRIPOS>SUBSTRUCTURE
     1 RSG         1 TEMP              0 ****  ****    0 ROOT
