@<TRIPOS>MOLECULE
RSG
   19    20     1     0     0
SMALL
bcc


@<TRIPOS>ATOM
      1 C1          0.0480   -0.1110   -0.0410 c3        1 RSG      0.115100
      2 O1          1.0160   -0.5100    2.1170 os        1 RSG     -0.415600
      3 C2          1.5780   -0.0710   -0.2000 c3        1 RSG     -0.103700
      4 O2          2.8810    0.6910    1.6870 os        1 RSG     -0.420600
      5 C3          2.1120   -0.4030    1.2180 c3        1 RSG      0.317900
      6 O3         -0.5410    1.0010   -0.6860 oh        1 RSG     -0.587800
      7 C4         -0.1940   -0.0980    1.4810 c3        1 RSG      0.088400
      8 C5          2.7710    1.8020    0.7870 c3        1 RSG      0.123400
      9 C6          2.1700    1.2960   -0.5240 c3        1 RSG     -0.102400
     10 H1         -0.3580   -1.0580   -0.4930 h1        1 RSG      0.045700
     11 H2          1.9010   -0.8350   -0.9480 hc        1 RSG      0.076700
     12 H3          2.7290   -1.3290    1.3290 h2        1 RSG      0.100700
     13 HO3        -1.4860    0.9610   -0.4920 ho        1 RSG      0.408000
     14 H4         -0.9770   -0.8300    1.7980 h1        1 RSG      0.056700
     15 H4A        -0.4550    0.9320    1.8370 h1        1 RSG      0.056700
     16 H5          3.8080    2.2010    0.6630 h1        1 RSG      0.051200
     17 H5A         2.1190    2.5730    1.2720 h1        1 RSG      0.051200
     18 H6          2.9650    1.1930   -1.3040 hc        1 RSG      0.069200
     19 H6A         1.4000    2.0060   -0.9120 hc        1 RSG      0.069200
@<TRIPOS>BOND
     1    1    3 1   
     2    1    6 1   
     3    1    7 1   
     4    1   10 1   
     5    2    5 1   
     6    2    7 1   
     7    3    5 1   
     8    3    9 1   
     9    3   11 1   
    10    4    5 1   
    11    4    8 1   
    12    5   12 1   
    13    6   13 1   
    14    7   14 1   
    15    7   15 1   
    16    8    9 1   
    17    8   16 1   
    18    8   17 1   
    19    9   18 1   
    20    9   19 1   
@<TRIPOS>SUBSTRUCTURE
     1 RSG         1 TEMP              0 ****  ****    0 ROOT
