@<TRIPOS>MOLECULE
RSG
   19    20     1     0     0
SMALL
bcc


@<TRIPOS>ATOM
      1 C1          0.0540   -0.1200   -0.0420 c3        1 RSG      0.115100
      2 O1          1.0050   -0.4880    2.1290 os        1 RSG     -0.415600
      3 C2          1.5840   -0.0800   -0.1890 c3        1 RSG     -0.103700
      4 O2          2.8710    0.7100    1.6980 os        1 RSG     -0.420600
      5 C3          2.1080   -0.3910    1.2370 c3        1 RSG      0.317900
      6 O3         -0.5320    0.9820   -0.7080 oh        1 RSG     -0.587800
      7 C4         -0.2000   -0.0860    1.4780 c3        1 RSG      0.088400
      8 C5          2.7660    1.8080    0.7810 c3        1 RSG      0.123400
      9 C6          2.1770    1.2840   -0.5270 c3        1 RSG     -0.102400
     10 H1         -0.3480   -1.0740   -0.4840 h1        1 RSG      0.045700
     11 H2          1.9150   -0.8530   -0.9240 hc        1 RSG      0.076700
     12 H3          2.7250   -1.3150    1.3660 h2        1 RSG      0.100700
     13 HO3        -1.4780    0.9430   -0.5210 ho        1 RSG      0.408000
     14 H4         -0.9850   -0.8150    1.7990 h1        1 RSG      0.056700
     15 H4A        -0.4660    0.9490    1.8170 h1        1 RSG      0.056700
     16 H5          2.1100    2.5850    1.2500 h1        1 RSG      0.051200
     17 H5A         3.8040    2.2080    0.6600 h1        1 RSG      0.051200
     18 H6          1.4090    1.9880   -0.9310 hc        1 RSG      0.069200
     19 H6A         2.9780    1.1710   -1.2990 hc        1 RSG      0.069200
@<TRIPOS>BOND
     1    1    3 1   
     2    1    6 1   
     3    1    7 1   
     4    1   10 1   
     5    2    5 1   
     6    2    7 1   
     7    3    5 1   
     8    3    9 1   
     9    3   11 1   
    10    4    5 1   
    11    4    8 1   
    12    5   12 1   
    13    6   13 1   
    14    7   14 1   
    15    7   15 1   
    16    8    9 1   
    17    8   16 1   
    18    8   17 1   
    19    9   18 1   
    20    9   19 1   
@<TRIPOS>SUBSTRUCTURE
     1 RSG         1 TEMP              0 ****  ****    0 ROOT
