@<TRIPOS>MOLECULE
RSH
   23    22     1     0     0
SMALL
bcc


@<TRIPOS>ATOM
      1 O2          0.1720    0.3460   -0.1410 o         1 RSH     -0.833300
      2 C1          1.4270    0.3510    0.0190 c         1 RSH      0.895600
      3 O1          2.2760    0.5400   -0.8910 o         1 RSH     -0.833300
      4 C2          1.9390    0.1070    1.4640 c3        1 RSH      0.011100
      5 C3          2.7610   -1.1740    1.5190 c3        1 RSH     -0.118400
      6 C4          3.7390   -1.1860    2.6840 c3        1 RSH      0.159100
      7 O4          3.1520   -0.8510    3.9280 oh        1 RSH     -0.622800
      8 C5          4.4230   -2.5650    2.7950 c3        1 RSH      0.115100
      9 O5          3.4330   -3.5260    3.1220 oh        1 RSH     -0.590800
     10 C6          5.5040   -2.5190    3.8790 c3        1 RSH      0.088400
     11 O6          6.0460   -3.8290    3.9840 oh        1 RSH     -0.621800
     12 OT          0.8710    0.0190    2.3950 oh        1 RSH     -0.656800
     13 H2C1        2.5640    0.9820    1.7900 h1        1 RSH      0.042700
     14 H3C1        2.0720   -2.0540    1.6100 hc        1 RSH      0.066200
     15 H3C2        3.3340   -1.2660    0.5590 hc        1 RSH      0.066200
     16 H4          4.5480   -0.4160    2.5250 h1        1 RSH      0.048700
     17 HA          2.1980   -0.9900    3.8480 ho        1 RSH      0.436000
     18 H5          4.8900   -2.8330    1.8060 h1        1 RSH      0.041700
     19 HB          3.9040   -4.3560    3.2720 ho        1 RSH      0.400000
     20 H6C1        5.0430   -2.1990    4.8510 h1        1 RSH      0.040700
     21 H6C2        6.3160   -1.8020    3.5900 h1        1 RSH      0.040700
     22 H6          6.5110   -3.8670    4.8260 ho        1 RSH      0.394000
     23 HT          0.0490   -0.0390    1.8790 ho        1 RSH      0.429000
@<TRIPOS>BOND
     1    1    2 1   
     2    2    3 1   
     3    2    4 1   
     4    4    5 1   
     5    4   12 1   
     6    4   13 1   
     7    5    6 1   
     8    5   14 1   
     9    5   15 1   
    10    6    7 1   
    11    6    8 1   
    12    6   16 1   
    13    7   17 1   
    14    8    9 1   
    15    8   10 1   
    16    8   18 1   
    17    9   19 1   
    18   10   11 1   
    19   10   20 1   
    20   10   21 1   
    21   11   22 1   
    22   12   23 1   
@<TRIPOS>SUBSTRUCTURE
     1 RSH         1 TEMP              0 ****  ****    0 ROOT
