@<TRIPOS>MOLECULE
RSH
   23    22     1     0     0
SMALL
bcc


@<TRIPOS>ATOM
      1 O2         -3.7320   -0.2050    0.6840 o         1 RSH     -0.828300
      2 C1         -2.8630   -0.5570   -0.1640 c         1 RSH      0.898600
      3 O1         -2.9090   -1.5920   -0.8770 o         1 RSH     -0.828300
      4 C2         -1.6410    0.3910   -0.3250 c3        1 RSH      0.004100
      5 C3         -0.3720   -0.3290    0.1130 c3        1 RSH     -0.121400
      6 C4          0.8930    0.3780   -0.3500 c3        1 RSH      0.123100
      7 O4          1.1070    1.6200    0.3140 oh        1 RSH     -0.651800
      8 C5          2.1430   -0.4720   -0.0590 c3        1 RSH      0.099100
      9 O5          2.4960   -0.4620    1.3150 oh        1 RSH     -0.618800
     10 C6          3.3350    0.0430   -0.8740 c3        1 RSH      0.101400
     11 O6          4.5320   -0.6320   -0.5350 oh        1 RSH     -0.618800
     12 OT         -1.8030    1.5840    0.4270 oh        1 RSH     -0.664800
     13 H2C1       -1.5570    0.7090   -1.3990 h1        1 RSH      0.041700
     14 H3C1       -0.4020   -1.3620   -0.3230 hc        1 RSH      0.066700
     15 H3C2       -0.3530   -0.4150    1.2300 hc        1 RSH      0.066700
     16 H4          0.8390    0.5820   -1.4570 h1        1 RSH      0.040700
     17 HA          0.2390    1.9760    0.5500 ho        1 RSH      0.447000
     18 H5          1.9450   -1.5530   -0.2970 h1        1 RSH      0.080700
     19 HB          2.3120    0.4250    1.6540 ho        1 RSH      0.421000
     20 H6C1        3.4650    1.1440   -0.6960 h1        1 RSH      0.046700
     21 H6C2        3.1810   -0.1510   -1.9670 h1        1 RSH      0.046700
     22 H6          4.5290   -0.7470    0.4250 ho        1 RSH      0.412000
     23 HT         -2.5600    1.4450    1.0220 ho        1 RSH      0.435000
@<TRIPOS>BOND
     1    1    2 1   
     2    2    3 1   
     3    2    4 1   
     4    4    5 1   
     5    4   12 1   
     6    4   13 1   
     7    5    6 1   
     8    5   14 1   
     9    5   15 1   
    10    6    7 1   
    11    6    8 1   
    12    6   16 1   
    13    7   17 1   
    14    8    9 1   
    15    8   10 1   
    16    8   18 1   
    17    9   19 1   
    18   10   11 1   
    19   10   20 1   
    20   10   21 1   
    21   11   22 1   
    22   12   23 1   
@<TRIPOS>SUBSTRUCTURE
     1 RSH         1 TEMP              0 ****  ****    0 ROOT
