@<TRIPOS>MOLECULE
RSH
   23    21     1     0     0
SMALL
bcc


@<TRIPOS>ATOM
      1 O2         -2.5600   -1.7180   -2.6250 o         1 RSH     -0.559000
      2 C1         -1.3010   -1.7180   -2.6250 c1        1 RSH      0.315000
      3 O1         -0.6710   -1.7180   -3.7150 os        1 RSH     -0.577000
      4 C2         -0.5450   -1.7180   -1.3150 c3        1 RSH     -0.050000
      5 C3          0.0220   -0.3400   -1.0610 c3        1 RSH     -0.197000
      6 C4          0.1620   -0.1200    0.4280 c3        1 RSH      0.048000
      7 O4          1.1940   -0.9370    0.9290 oh        1 RSH     -0.350000
      8 C5          0.4940    1.3300    0.6940 c3        1 RSH      0.004000
      9 O5          1.8920    1.4880    0.7570 oh        1 RSH     -0.318000
     10 C6         -0.1210    1.7550    2.0090 c3        1 RSH     -0.062000
     11 O6          0.1920    3.1080    2.2590 oh        1 RSH     -0.349000
     12 OT          0.5060   -2.6530   -1.3800 oh        1 RSH     -0.384000
     13 H2C1       -1.1510   -1.9600   -0.5900 h1        1 RSH      0.082000
     14 H3C1       -0.5780    0.3330   -1.4340 hc        1 RSH      0.105500
     15 H3C2        0.8990   -0.2650   -1.4850 hc        1 RSH      0.105500
     16 H4         -0.6770   -0.3480    0.8710 h1        1 RSH      0.088000
     17 HA          0.9120   -1.3570    1.6580 ho        1 RSH      0.235000
     18 H5          0.1360    1.8830   -0.0260 h1        1 RSH      0.081000
     19 HB          2.1320    2.1920    0.2720 ho        1 RSH      0.199000
     20 H6C1        0.2360    1.2000    2.7290 h1        1 RSH      0.080000
     21 H6C2       -1.0900    1.6480    1.9650 h1        1 RSH      0.080000
     22 H6         -0.2630    3.3910    2.9660 ho        1 RSH      0.193000
     23 HT          0.1790   -3.4730   -1.2810 ho        1 RSH      0.228000
@<TRIPOS>BOND
     1    1    2 1   
     2    2    4 1   
     3    4    5 1   
     4    4   12 1   
     5    4   13 1   
     6    5    6 1   
     7    5   14 1   
     8    5   15 1   
     9    6    7 1   
    10    6    8 1   
    11    6   16 1   
    12    7   17 1   
    13    8    9 1   
    14    8   10 1   
    15    8   18 1   
    16    9   19 1   
    17   10   11 1   
    18   10   20 1   
    19   10   21 1   
    20   11   22 1   
    21   12   23 1   
@<TRIPOS>SUBSTRUCTURE
     1 RSH         1 TEMP              0 ****  ****    0 ROOT
