@<TRIPOS>MOLECULE
RSM
   30    29     1     0     0
SMALL
bcc


@<TRIPOS>ATOM
      1 C2         -4.0120   -0.8540   -0.7030 c3        1 RSM     -0.173100
      2 C          -2.5080   -1.0200   -0.7180 c         1 RSM      0.660100
      3 O          -1.9930   -1.8180   -1.4760 o         1 RSM     -0.621100
      4 N          -1.7010   -0.2510    0.1580 n         1 RSM     -0.562900
      5 CA         -0.2910   -0.4210    0.1580 c3        1 RSM      0.040700
      6 CB          0.3760    0.8950    0.4920 c3        1 RSM     -0.071400
      7 CG          1.0200    1.4640   -0.7540 c3        1 RSM     -0.093100
      8 SD          1.7340    3.0440   -0.3800 s4        1 RSM      0.247600
      9 OD1         1.6270    3.5850    0.9460 o         1 RSM     -0.510200
     10 CE          2.5830    3.9530   -1.6430 c3        1 RSM     -0.124800
     11 C3          0.0920   -1.4570    1.1910 c         1 RSM      0.640100
     12 O3         -0.3090   -1.3530    2.3330 o         1 RSM     -0.621100
     13 N2          0.9120   -2.5550    0.8240 n         1 RSM     -0.562900
     14 C1          1.2660   -3.5350    1.7940 c3        1 RSM      0.076300
     15 H2         -4.3660   -1.1590    0.1590 hc        1 RSM      0.068033
     16 H2A        -4.2370    0.0910   -0.8320 hc        1 RSM      0.068033
     17 H2B        -4.4070   -1.3860   -1.4250 hc        1 RSM      0.068033
     18 HN         -2.0870    0.3500    0.7250 hn        1 RSM      0.330500
     19 HA          0.0010   -0.7190   -0.7270 h1        1 RSM      0.095700
     20 HB         -0.2930    1.5230    0.8290 hc        1 RSM      0.067200
     21 HBA         1.0610    0.7490    1.1750 hc        1 RSM      0.067200
     22 HG          1.7190    0.8560   -1.0670 h1        1 RSM      0.094700
     23 HGA         0.3420    1.5700   -1.4520 h1        1 RSM      0.094700
     24 HE          3.3250    3.4150   -1.9900 h1        1 RSM      0.087033
     25 HEA         2.9340    4.7870   -1.2650 h1        1 RSM      0.087033
     26 HEB         1.9610    4.1600   -2.3710 h1        1 RSM      0.087033
     27 HN2         1.2110   -2.6350   -0.0340 hn        1 RSM      0.319500
     28 H1          1.7030   -4.2930    1.3500 h1        1 RSM      0.047033
     29 H1A         1.8810   -3.1400    2.4490 h1        1 RSM      0.047033
     30 H1B         0.4570   -3.8480    2.2540 h1        1 RSM      0.047033
@<TRIPOS>BOND
     1    1    2 1   
     2    1   15 1   
     3    1   16 1   
     4    1   17 1   
     5    2    3 2   
     6    2    4 1   
     7    4    5 1   
     8    4   18 1   
     9    5    6 1   
    10    5   11 1   
    11    5   19 1   
    12    6    7 1   
    13    6   20 1   
    14    6   21 1   
    15    7    8 1   
    16    7   22 1   
    17    7   23 1   
    18    8    9 2   
    19    8   10 1   
    20   10   24 1   
    21   10   25 1   
    22   10   26 1   
    23   11   12 2   
    24   11   13 1   
    25   13   14 1   
    26   13   27 1   
    27   14   28 1   
    28   14   29 1   
    29   14   30 1   
@<TRIPOS>SUBSTRUCTURE
     1 RSM         1 TEMP              0 ****  ****    0 ROOT
