@<TRIPOS>MOLECULE
RSM
   32    31     1     0     0
SMALL
bcc


@<TRIPOS>ATOM
      1 C2          0.6660    0.6870    0.9820 c3        1 RSM     -0.191100
      2 C           1.9560    0.1460    0.4930 c         1 RSM      0.645100
      3 O           2.8650   -0.4020    1.1020 o         1 RSM     -0.521100
      4 N           2.2160    0.3100   -1.0110 n4        1 RSM     -0.705800
      5 CA          3.6320    0.0910   -1.4480 c3        1 RSM      0.071500
      6 CB          4.6100    1.1730   -0.9670 c3        1 RSM     -0.067400
      7 CG          4.3690    2.5300   -1.5870 c3        1 RSM     -0.120100
      8 SD          3.5540    3.6690   -0.4830 s4        1 RSM      0.344600
      9 OD1         2.3740    2.8170   -0.0660 o         1 RSM     -0.611200
     10 CE          2.9390    4.8000   -1.6150 c3        1 RSM     -0.157800
     11 C3          4.0510   -1.3480   -1.0910 c         1 RSM      0.507100
     12 O3          3.4820   -2.3190   -1.5650 o         1 RSM     -0.360100
     13 N2          5.1810   -1.5780   -0.1400 n4        1 RSM     -0.649800
     14 C1          5.5360   -3.0170    0.0060 c3        1 RSM      0.080100
     15 H2          0.7510    1.8130    1.0500 hc        1 RSM      0.144367
     16 H2A         0.4700    0.2790    2.0110 hc        1 RSM      0.144367
     17 H2B        -0.1930    0.4310    0.3110 hc        1 RSM      0.144367
     18 HN          1.5950   -0.3230   -1.5290 hn        1 RSM      0.499800
     19 HA          3.6270    0.1150   -2.5920 hx        1 RSM      0.161700
     20 HB          5.6430    0.8440   -1.2720 hc        1 RSM      0.083700
     21 HBA         4.5750    1.2500    0.1540 hc        1 RSM      0.083700
     22 HG          5.3630    2.9910   -1.8410 h1        1 RSM      0.117700
     23 HGA         3.8290    2.4370   -2.5620 h1        1 RSM      0.117700
     24 HE          2.0780    4.4490   -2.2330 h1        1 RSM      0.126700
     25 HEA         2.5670    5.7020   -1.0550 h1        1 RSM      0.126700
     26 HEB         3.7280    5.1670   -2.3160 h1        1 RSM      0.126700
     27 HN2         6.0080   -1.0580   -0.4630 hn        1 RSM      0.483800
     28 H1          5.8430   -3.4360   -0.9910 hx        1 RSM      0.131033
     29 H1A         6.3870   -3.1000    0.7390 hx        1 RSM      0.131033
     30 H1B         4.6460   -3.5900    0.3880 hx        1 RSM      0.131033
     31 H21         1.9590    1.3020   -1.2310 hn        1 RSM      0.499800
     32 H22         4.8970   -1.2020    0.7830 hn        1 RSM      0.483800
@<TRIPOS>BOND
     1    1    2 1   
     2    1   15 1   
     3    1   16 1   
     4    1   17 1   
     5    2    3 2   
     6    2    4 1   
     7    4    5 1   
     8    4   18 1   
     9    4   31 1   
    10    5    6 1   
    11    5   11 1   
    12    5   19 1   
    13    6    7 1   
    14    6   20 1   
    15    6   21 1   
    16    7    8 1   
    17    7   22 1   
    18    7   23 1   
    19    8    9 2   
    20    8   10 1   
    21   10   24 1   
    22   10   25 1   
    23   10   26 1   
    24   11   12 2   
    25   11   13 1   
    26   13   14 1   
    27   13   27 1   
    28   13   32 1   
    29   14   28 1   
    30   14   29 1   
    31   14   30 1   
@<TRIPOS>SUBSTRUCTURE
     1 RSM         1 TEMP              0 ****  ****    0 ROOT
