@<TRIPOS>MOLECULE
RSM
   32    31     1     0     0
SMALL
bcc


@<TRIPOS>ATOM
      1 C2          0.6250    0.6960    0.9090 c3        1 RSM     -0.191100
      2 C           1.9200    0.1470    0.4430 c         1 RSM      0.645100
      3 O           2.8070   -0.4240    1.0660 o         1 RSM     -0.521100
      4 N           2.2220    0.3340   -1.0500 ny        1 RSM     -0.705800
      5 CA          3.6460    0.1040   -1.4550 c3        1 RSM      0.071500
      6 CB          4.6250    1.1640   -0.9290 c3        1 RSM     -0.067400
      7 CG          4.4170    2.5340   -1.5290 c3        1 RSM     -0.120100
      8 SD          3.5900    3.6650   -0.4260 s4        1 RSM      0.344600
      9 OD1         2.3880    2.8210   -0.0550 o         1 RSM     -0.611200
     10 CE          3.0180    4.8240   -1.5520 c3        1 RSM     -0.157800
     11 C3          4.0370   -1.3470   -1.1130 c         1 RSM      0.507100
     12 O3          3.4670   -2.3020   -1.6190 o         1 RSM     -0.360100
     13 N2          5.1380   -1.6090   -0.1380 ny        1 RSM     -0.649800
     14 C1          5.4710   -3.0560   -0.0090 c3        1 RSM      0.080100
     15 H2         -0.2190    0.4640    0.2120 hc        1 RSM      0.144367
     16 H2A         0.7240    1.8200    1.0000 hc        1 RSM      0.144367
     17 H2B         0.3980    0.2720    1.9250 hc        1 RSM      0.144367
     18 HN          1.6060   -0.2810   -1.5960 hn        1 RSM      0.499300
     19 HA          3.6700    0.1480   -2.5980 hx        1 RSM      0.161700
     20 HB          5.6600    0.8260   -1.2140 hc        1 RSM      0.083700
     21 HBA         4.5620    1.2210    0.1930 hc        1 RSM      0.083700
     22 HG          3.9010    2.4660   -2.5190 h1        1 RSM      0.117700
     23 HGA         5.4230    2.9870   -1.7500 h1        1 RSM      0.117700
     24 HE          2.1690    4.4970   -2.1980 h1        1 RSM      0.126700
     25 HEA         2.6450    5.7210   -0.9850 h1        1 RSM      0.126700
     26 HEB         3.8300    5.1920   -2.2260 h1        1 RSM      0.126700
     27 HN2         4.8350   -1.2460    0.7840 hn        1 RSM      0.483800
     28 H1          6.3020   -3.1630    0.7430 hx        1 RSM      0.131033
     29 H1A         4.5640   -3.6230    0.3380 hx        1 RSM      0.131033
     30 H1B         5.7990   -3.4590   -1.0060 hx        1 RSM      0.131033
     31 H21         1.9830    1.3340   -1.2590 hn        1 RSM      0.499300
     32 H22         5.9800   -1.0940   -0.4290 hn        1 RSM      0.483800
@<TRIPOS>BOND
     1    1    2 1   
     2    1   15 1   
     3    1   16 1   
     4    1   17 1   
     5    2    3 2   
     6    2    4 1   
     7    4    5 1   
     8    4   18 1   
     9    4   31 1   
    10    5    6 1   
    11    5   11 1   
    12    5   19 1   
    13    6    7 1   
    14    6   20 1   
    15    6   21 1   
    16    7    8 1   
    17    7   22 1   
    18    7   23 1   
    19    8    9 2   
    20    8   10 1   
    21   10   24 1   
    22   10   25 1   
    23   10   26 1   
    24   11   12 2   
    25   11   13 1   
    26   13   14 1   
    27   13   27 1   
    28   13   32 1   
    29   14   28 1   
    30   14   29 1   
    31   14   30 1   
@<TRIPOS>SUBSTRUCTURE
     1 RSM         1 TEMP              0 ****  ****    0 ROOT
