@<TRIPOS>MOLECULE
RSM
   32    31     1     0     0
SMALL
bcc


@<TRIPOS>ATOM
      1 C2          0.6110    0.6450    0.8820 c3        1 RSM     -0.191100
      2 C           1.9220    0.1210    0.4330 c         1 RSM      0.645100
      3 O           2.8150   -0.4260    1.0680 o         1 RSM     -0.521100
      4 N           2.2330    0.3040   -1.0580 n4        1 RSM     -0.705800
      5 CA          3.6660    0.1010   -1.4480 c3        1 RSM      0.071500
      6 CB          4.6170    1.1870   -0.9220 c3        1 RSM     -0.067400
      7 CG          4.3850    2.5470   -1.5350 c3        1 RSM     -0.120100
      8 SD          3.5230    3.6680   -0.4480 s4        1 RSM      0.344600
      9 OD1         2.3370    2.8010   -0.0820 o         1 RSM     -0.611200
     10 CE          2.9380    4.8060   -1.5880 c3        1 RSM     -0.157800
     11 C3          4.0850   -1.3380   -1.0920 c         1 RSM      0.507100
     12 O3          3.5400   -2.3090   -1.5960 o         1 RSM     -0.360100
     13 N2          5.1820   -1.5690   -0.1040 n4        1 RSM     -0.649800
     14 C1          5.5460   -3.0070    0.0370 c3        1 RSM      0.080100
     15 H2         -0.2210    0.3900    0.1800 hc        1 RSM      0.144367
     16 H2A         0.6840    1.7720    0.9660 hc        1 RSM      0.144367
     17 H2B         0.3840    0.2240    1.9000 hc        1 RSM      0.144367
     18 HN          1.6360   -0.3290   -1.6050 hn        1 RSM      0.499800
     19 HA          3.7000    0.1370   -2.5910 hx        1 RSM      0.161700
     20 HB          5.6620    0.8690   -1.1950 hc        1 RSM      0.083700
     21 HBA         4.5420    1.2500    0.1980 hc        1 RSM      0.083700
     22 HG          5.3830    3.0200   -1.7500 h1        1 RSM      0.117700
     23 HGA         3.8800    2.4610   -2.5290 h1        1 RSM      0.117700
     24 HE          2.5390    5.6980   -1.0310 h1        1 RSM      0.126700
     25 HEA         3.7480    5.1870   -2.2570 h1        1 RSM      0.126700
     26 HEB         2.1020    4.4550   -2.2400 h1        1 RSM      0.126700
     27 HN2         4.8620   -1.2070    0.8120 hn        1 RSM      0.483800
     28 H1          4.6490   -3.5920    0.3800 hx        1 RSM      0.131033
     29 H1A         5.8930   -3.4100   -0.9540 hx        1 RSM      0.131033
     30 H1B         6.3720   -3.0900    0.7980 hx        1 RSM      0.131033
     31 H21         1.9750    1.2960   -1.2770 hn        1 RSM      0.499800
     32 H22         6.0150   -1.0370   -0.3920 hn        1 RSM      0.483800
@<TRIPOS>BOND
     1    1    2 1   
     2    1   15 1   
     3    1   16 1   
     4    1   17 1   
     5    2    3 2   
     6    2    4 1   
     7    4    5 1   
     8    4   18 1   
     9    4   31 1   
    10    5    6 1   
    11    5   11 1   
    12    5   19 1   
    13    6    7 1   
    14    6   20 1   
    15    6   21 1   
    16    7    8 1   
    17    7   22 1   
    18    7   23 1   
    19    8    9 2   
    20    8   10 1   
    21   10   24 1   
    22   10   25 1   
    23   10   26 1   
    24   11   12 2   
    25   11   13 1   
    26   13   14 1   
    27   13   27 1   
    28   13   32 1   
    29   14   28 1   
    30   14   29 1   
    31   14   30 1   
@<TRIPOS>SUBSTRUCTURE
     1 RSM         1 TEMP              0 ****  ****    0 ROOT
