@<TRIPOS>MOLECULE
RSM
   30    29     1     0     0
SMALL
bcc


@<TRIPOS>ATOM
      1 C2          1.1350    3.3880   -0.0770 c3        1 RSM     -0.177100
      2 C           0.8330    1.9070   -0.0570 c         1 RSM      0.663100
      3 O           0.4250    1.3230   -1.0830 o         1 RSM     -0.626100
      4 N           1.0050    1.2510    1.1470 n         1 RSM     -0.565900
      5 CA          0.8500   -0.1640    1.3630 c3        1 RSM      0.046700
      6 CB         -0.4680   -0.7700    0.8660 c3        1 RSM     -0.076400
      7 CG         -1.6490   -0.2860    1.6620 c3        1 RSM     -0.084100
      8 SD         -3.1660   -1.1140    1.3300 s4        1 RSM      0.255600
      9 OD1        -2.8150   -2.5350    1.0480 o         1 RSM     -0.500200
     10 CE         -3.5840   -0.4140   -0.2030 c3        1 RSM     -0.130800
     11 C3          2.0270   -0.9950    0.7850 c         1 RSM      0.631100
     12 O3          2.7770   -1.6090    1.5700 o         1 RSM     -0.616100
     13 N2          2.2000   -1.0030   -0.5740 n         1 RSM     -0.562900
     14 C1          3.2080   -1.7820   -1.2200 c3        1 RSM      0.076300
     15 H2          0.8920    3.7880   -1.0910 hc        1 RSM      0.068700
     16 H2A         0.5220    3.9280    0.6830 hc        1 RSM      0.068700
     17 H2B         2.2180    3.5650    0.1330 hc        1 RSM      0.068700
     18 HN          1.4520    1.7490    1.8810 hn        1 RSM      0.315500
     19 HA          0.9020   -0.3240    2.4860 h1        1 RSM      0.085700
     20 HB         -0.6190   -0.5310   -0.2220 hc        1 RSM      0.083700
     21 HBA        -0.3890   -1.8890    0.9630 hc        1 RSM      0.083700
     22 HG         -1.4460   -0.4340    2.7550 h1        1 RSM      0.080200
     23 HGA        -1.7930    0.8110    1.5000 h1        1 RSM      0.080200
     24 HE         -2.8010   -0.5290   -0.9880 h1        1 RSM      0.086700
     25 HEA        -4.5070   -0.9090   -0.5900 h1        1 RSM      0.086700
     26 HEB        -3.7920    0.6740   -0.0890 h1        1 RSM      0.086700
     27 HN2         1.5410   -0.5250   -1.1490 hn        1 RSM      0.338500
     28 H1          3.8960   -2.2390   -0.4600 h1        1 RSM      0.044033
     29 H1A         2.7390   -2.6040   -1.8260 h1        1 RSM      0.044033
     30 H1B         3.8060   -1.1270   -1.9100 h1        1 RSM      0.044033
@<TRIPOS>BOND
     1    1    2 1   
     2    1   15 1   
     3    1   16 1   
     4    1   17 1   
     5    2    3 2   
     6    2    4 1   
     7    4    5 1   
     8    4   18 1   
     9    5    6 1   
    10    5   11 1   
    11    5   19 1   
    12    6    7 1   
    13    6   20 1   
    14    6   21 1   
    15    7    8 1   
    16    7   22 1   
    17    7   23 1   
    18    8    9 2   
    19    8   10 1   
    20   10   24 1   
    21   10   25 1   
    22   10   26 1   
    23   11   12 2   
    24   11   13 1   
    25   13   14 1   
    26   13   27 1   
    27   14   28 1   
    28   14   29 1   
    29   14   30 1   
@<TRIPOS>SUBSTRUCTURE
     1 RSM         1 TEMP              0 ****  ****    0 ROOT
