@<TRIPOS>MOLECULE
RSO
   17    18     1     0     0
SMALL
bcc


@<TRIPOS>ATOM
      1 C1          2.6000   -0.2310    0.1570 ca        1 RSO     -0.123000
      2 C2          2.1350    1.0730   -0.0150 ca        1 RSO     -0.131500
      3 C3          0.7730    1.3130   -0.1890 ca        1 RSO     -0.111000
      4 C4         -0.1330    0.2450   -0.1860 ca        1 RSO     -0.089300
      5 C5          0.3370   -1.0620   -0.0150 ca        1 RSO     -0.111000
      6 C6          1.7010   -1.2970    0.1550 ca        1 RSO     -0.131500
      7 C12        -1.5670    0.5250   -0.3730 cx        1 RSO      0.108400
      8 C13        -2.5540    0.3240    0.7260 cx        1 RSO      0.058400
      9 O14        -2.4670   -0.6000   -0.3660 os        1 RSO     -0.403600
     10 HC1         3.6760   -0.4180    0.2920 ha        1 RSO      0.132000
     11 HC2         2.8440    1.9140   -0.0160 ha        1 RSO      0.133500
     12 HC3         0.4090    2.3410   -0.3300 ha        1 RSO      0.141000
     13 HC5        -0.3800   -1.8980   -0.0210 ha        1 RSO      0.141000
     14 HC6         2.0660   -2.3260    0.2870 ha        1 RSO      0.133500
     15 H12        -1.7860    1.2590   -1.1770 h1        1 RSO      0.096700
     16 H131       -3.4870    0.9150    0.7570 h1        1 RSO      0.080200
     17 H132       -2.2340   -0.0860    1.7010 h1        1 RSO      0.080200
@<TRIPOS>BOND
     1    1    2 ar  
     2    1    6 ar  
     3    1   10 1   
     4    2    3 ar  
     5    2   11 1   
     6    3    4 ar  
     7    3   12 1   
     8    4    5 ar  
     9    4    7 1   
    10    5    6 ar  
    11    5   13 1   
    12    6   14 1   
    13    7    8 1   
    14    7    9 1   
    15    7   15 1   
    16    8    9 1   
    17    8   16 1   
    18    8   17 1   
@<TRIPOS>SUBSTRUCTURE
     1 RSO         1 TEMP              0 ****  ****    0 ROOT
