@<TRIPOS>MOLECULE
RSO
   17    18     1     0     0
SMALL
bcc


@<TRIPOS>ATOM
      1 C1         -0.0140    0.0330   -0.0170 ca        1 RSO     -0.123000
      2 C2          1.3790    0.0880   -0.0390 ca        1 RSO     -0.131500
      3 C3          2.1000    0.0510    1.1530 ca        1 RSO     -0.111000
      4 C4          1.4270   -0.0480    2.3770 ca        1 RSO     -0.089300
      5 C5          0.0290   -0.1020    2.3960 ca        1 RSO     -0.111000
      6 C6         -0.6880   -0.0600    1.2010 ca        1 RSO     -0.131500
      7 C12         2.2120   -0.0840    3.6230 cx        1 RSO      0.108400
      8 C13         2.2790   -1.3100    4.4710 cx        1 RSO      0.058400
      9 O14         1.4820   -0.1840    4.8620 os        1 RSO     -0.403600
     10 HC1        -0.5810    0.0650   -0.9590 ha        1 RSO      0.132000
     11 HC2         1.9120    0.1640   -0.9980 ha        1 RSO      0.133500
     12 HC3         3.1990    0.0990    1.1340 ha        1 RSO      0.141000
     13 HC5        -0.4950   -0.1710    3.3620 ha        1 RSO      0.141000
     14 HC6        -1.7870   -0.1000    1.2210 ha        1 RSO      0.133500
     15 H12         3.0430    0.6510    3.6600 h1        1 RSO      0.096700
     16 H131        1.6990   -2.2110    4.2020 h1        1 RSO      0.080200
     17 H132        3.1570   -1.4980    5.1140 h1        1 RSO      0.080200
@<TRIPOS>BOND
     1    1    2 ar  
     2    1    6 ar  
     3    1   10 1   
     4    2    3 ar  
     5    2   11 1   
     6    3    4 ar  
     7    3   12 1   
     8    4    5 ar  
     9    4    7 1   
    10    5    6 ar  
    11    5   13 1   
    12    6   14 1   
    13    7    8 1   
    14    7    9 1   
    15    7   15 1   
    16    8    9 1   
    17    8   16 1   
    18    8   17 1   
@<TRIPOS>SUBSTRUCTURE
     1 RSO         1 TEMP              0 ****  ****    0 ROOT
