@<TRIPOS>MOLECULE
RSO
   17    18     1     0     0
SMALL
bcc


@<TRIPOS>ATOM
      1 C1         -0.0130    0.0190   -0.0200 ca        1 RSO     -0.123000
      2 C2          1.3810    0.0830   -0.0390 ca        1 RSO     -0.131500
      3 C3          2.1000    0.0540    1.1540 ca        1 RSO     -0.111000
      4 C4          1.4250   -0.0460    2.3770 ca        1 RSO     -0.089300
      5 C5          0.0270   -0.1080    2.3930 ca        1 RSO     -0.111000
      6 C6         -0.6880   -0.0750    1.1970 ca        1 RSO     -0.131500
      7 C12         2.2070   -0.0730    3.6250 cx        1 RSO      0.108400
      8 C13         2.2830   -1.2960    4.4750 cx        1 RSO      0.058400
      9 O14         1.4760   -0.1760    4.8620 os        1 RSO     -0.403600
     10 HC1        -0.5770    0.0440   -0.9630 ha        1 RSO      0.132000
     11 HC2         1.9150    0.1590   -0.9980 ha        1 RSO      0.133500
     12 HC3         3.1980    0.1100    1.1370 ha        1 RSO      0.141000
     13 HC5        -0.4980   -0.1780    3.3590 ha        1 RSO      0.141000
     14 HC6        -1.7860   -0.1220    1.2150 ha        1 RSO      0.133500
     15 H12         3.0320    0.6690    3.6610 h1        1 RSO      0.096700
     16 H131        3.1610   -1.4760    5.1210 h1        1 RSO      0.080200
     17 H132        1.7100   -2.2030    4.2080 h1        1 RSO      0.080200
@<TRIPOS>BOND
     1    1    2 ar  
     2    1    6 ar  
     3    1   10 1   
     4    2    3 ar  
     5    2   11 1   
     6    3    4 ar  
     7    3   12 1   
     8    4    5 ar  
     9    4    7 1   
    10    5    6 ar  
    11    5   13 1   
    12    6   14 1   
    13    7    8 1   
    14    7    9 1   
    15    7   15 1   
    16    8    9 1   
    17    8   16 1   
    18    8   17 1   
@<TRIPOS>SUBSTRUCTURE
     1 RSO         1 TEMP              0 ****  ****    0 ROOT
