@<TRIPOS>MOLECULE
RSP
   33    34     1     0     0
SMALL
bcc


@<TRIPOS>ATOM
      1 P          -3.6750   -0.2680    1.0910 p5        1 RSP      1.430800
      2 N1          2.5950    0.5090   -0.0400 n         1 RSP     -0.267400
      3 C2          3.8640    0.7950   -0.6160 c         1 RSP      0.581800
      4 S2          4.1780    2.3240   -1.2270 s         1 RSP     -0.844400
      5 N3          4.8110   -0.1710   -0.7200 ne        1 RSP     -0.710100
      6 C4          4.5050   -1.4480   -0.2880 cf        1 RSP      0.626500
      7 N4          5.5310   -2.4270   -0.3120 nh        1 RSP     -0.876800
      8 C5          3.2230   -1.7710    0.1930 cf        1 RSP     -0.521700
      9 C6          2.2500   -0.7490    0.3310 c1        1 RSP     -0.056900
     10 C1'         1.6690    1.6270    0.1600 c3        1 RSP      0.273500
     11 C2'         0.6500    1.8060   -1.0100 c3        1 RSP      0.089100
     12 O2'         0.9980    2.8820   -1.8570 oh        1 RSP     -0.647800
     13 C3'        -0.6930    2.1050   -0.3090 c3        1 RSP      0.104100
     14 O3'        -0.9550    3.4980   -0.2040 oh        1 RSP     -0.611800
     15 C4'        -0.4990    1.5570    1.1180 c3        1 RSP      0.122100
     16 O4'         0.9170    1.5030    1.3740 os        1 RSP     -0.404600
     17 C5'        -1.1180    0.1650    1.3140 c3        1 RSP      0.179400
     18 O5'        -2.3650    0.2770    1.9310 os        1 RSP     -0.581200
     19 OP1        -3.4530    0.0690   -0.3350 o         1 RSP     -0.844500
     20 OP2        -3.3410   -1.8720    1.1190 oh        1 RSP     -0.786400
     21 OP3        -4.8880    0.0090    1.8830 o         1 RSP     -0.844500
     22 H5          2.9460   -2.7850    0.4910 ha        1 RSP      0.125000
     23 H6         -2.8450   -2.1400    0.3550 ho        1 RSP      0.421000
     24 H5'        -1.2140   -0.3660    0.3280 h1        1 RSP      0.044700
     25 H1'         2.2960    2.5680    0.2860 h2        1 RSP      0.107700
     26 H2'         0.5570    0.8720   -1.6260 h1        1 RSP      0.064700
     27 HO2'        1.9760    2.9090   -1.8920 ho        1 RSP      0.455000
     28 H3'        -1.5550    1.6080   -0.8340 h1        1 RSP      0.109700
     29 H4'        -0.9080    2.2720    1.8830 h1        1 RSP      0.083700
     30 HN4         5.1660   -3.3220   -0.5600 hn        1 RSP      0.364800
     31 HN4A        6.3150   -2.1810   -0.8790 hn        1 RSP      0.364800
     32 H5'A       -0.4340   -0.4230    1.9900 h1        1 RSP      0.044700
     33 HO3'       -0.7160    3.8900   -1.0530 ho        1 RSP      0.406000
@<TRIPOS>BOND
     1    1   18 1   
     2    1   19 1   
     3    1   20 1   
     4    1   21 1   
     5    2    3 1   
     6    2    9 2   
     7    2   10 1   
     8    3    4 2   
     9    3    5 1   
    10    5    6 2   
    11    6    7 1   
    12    6    8 1   
    13    7   30 1   
    14    7   31 1   
    15    8    9 2   
    16    8   22 1   
    17   10   11 1   
    18   10   16 1   
    19   10   25 1   
    20   11   12 1   
    21   11   13 1   
    22   11   26 1   
    23   12   27 1   
    24   13   14 1   
    25   13   15 1   
    26   13   28 1   
    27   14   33 1   
    28   15   16 1   
    29   15   17 1   
    30   15   29 1   
    31   17   18 1   
    32   17   24 1   
    33   17   32 1   
    34   20   23 1   
@<TRIPOS>SUBSTRUCTURE
     1 RSP         1 TEMP              0 ****  ****    0 ROOT
