@<TRIPOS>MOLECULE
RSQ
   35    36     1     0     0
SMALL
bcc


@<TRIPOS>ATOM
      1 P           2.3370    1.3170    0.6880 p5        1 RSQ      1.352900
      2 N1         -2.0740   -1.2180   -0.3250 n         1 RSQ     -0.369000
      3 C2         -3.4930   -1.4940   -0.4210 c         1 RSQ      0.833900
      4 O2         -3.8700   -2.6890   -0.3970 o         1 RSQ     -0.675500
      5 N3         -4.4080   -0.4490   -0.5540 nc        1 RSQ     -0.790100
      6 C4         -3.9540    0.8250   -0.5950 cd        1 RSQ      0.772500
      7 N4         -4.8650    1.8370   -0.8280 nh        1 RSQ     -0.924800
      8 C5         -2.5420    1.1460   -0.4430 cd        1 RSQ     -0.512800
      9 C6         -1.6540    0.0760   -0.3170 cc        1 RSQ      0.117600
     10 C1'        -1.1320   -2.3310   -0.1500 c3        1 RSQ      0.256500
     11 C10        -1.9680    2.4880   -0.3620 c         1 RSQ      0.588100
     12 C2'         0.0500   -2.3000   -1.1740 c3        1 RSQ      0.106100
     13 O2'         0.2950   -3.6190   -1.6180 oh        1 RSQ     -0.613800
     14 C3'         1.1970   -1.6660   -0.3690 c3        1 RSQ      0.075100
     15 O3'         2.4200   -2.3020   -0.6590 oh        1 RSQ     -0.657800
     16 O30        -2.6470    3.5280   -0.4500 o         1 RSQ     -0.660100
     17 C4'         0.8120   -1.8420    1.1140 c3        1 RSQ      0.060100
     18 O4'        -0.5530   -2.3200    1.1550 os        1 RSQ     -0.436600
     19 C5'         0.9080   -0.5470    1.9580 c3        1 RSQ      0.225400
     20 O5'         2.1250    0.0680    1.8670 os        1 RSQ     -0.569200
     21 OP1         0.9050    1.5200    0.2160 o         1 RSQ     -0.925167
     22 OP2         2.9880    2.4430    1.4150 o         1 RSQ     -0.925167
     23 OP3         3.1120    0.4980   -0.3160 o         1 RSQ     -0.925167
     24 H6         -0.5410    0.3080   -0.2000 h4        1 RSQ      0.296000
     25 H5'         0.0720    0.1460    1.6650 h1        1 RSQ     -0.001300
     26 H1'        -1.7180   -3.2940   -0.2200 h2        1 RSQ      0.113700
     27 H2'        -0.1930   -1.7090   -2.0940 h1        1 RSQ      0.075700
     28 HO2'        1.0520   -3.9540   -1.1210 ho        1 RSQ      0.420000
     29 H10        -0.8510    2.5160   -0.1930 h4        1 RSQ      0.139200
     30 H3'         1.2880   -0.5530   -0.6050 h1        1 RSQ      0.158700
     31 H4'         1.4280   -2.6550    1.5810 h1        1 RSQ      0.049700
     32 HN4        -4.5530    2.7690   -0.6650 hn        1 RSQ      0.429300
     33 HN4A       -5.8300    1.6450   -0.7230 hn        1 RSQ      0.429300
     34 H5'A        0.7410   -0.8630    3.0310 h1        1 RSQ     -0.001300
     35 HO3'        3.0890   -1.5830   -0.6220 ho        1 RSQ      0.489000
@<TRIPOS>BOND
     1    1   20 1   
     2    1   21 1   
     3    1   22 1   
     4    1   23 1   
     5    2    3 1   
     6    2    9 1   
     7    2   10 1   
     8    3    4 2   
     9    3    5 1   
    10    5    6 2   
    11    6    7 1   
    12    6    8 1   
    13    7   32 1   
    14    7   33 1   
    15    8    9 2   
    16    8   11 1   
    17    9   24 1   
    18   10   12 1   
    19   10   18 1   
    20   10   26 1   
    21   11   16 2   
    22   11   29 1   
    23   12   13 1   
    24   12   14 1   
    25   12   27 1   
    26   13   28 1   
    27   14   15 1   
    28   14   17 1   
    29   14   30 1   
    30   15   35 1   
    31   17   18 1   
    32   17   19 1   
    33   17   31 1   
    34   19   20 1   
    35   19   25 1   
    36   19   34 1   
@<TRIPOS>SUBSTRUCTURE
     1 RSQ         1 TEMP              0 ****  ****    0 ROOT
