@<TRIPOS>MOLECULE
RSS
   68    70     1     0     0
SMALL
bcc


@<TRIPOS>ATOM
      1 C1         -3.2950   -0.6420   -1.8170 c         1 RSS      0.633100
      2 O1         -4.4930   -1.1720   -1.4530 oh        1 RSS     -0.550100
      3 O2         -3.2890    0.5920   -1.8530 o         1 RSS     -0.530000
      4 C2         -2.1500   -1.5610   -2.1270 c3        1 RSS     -0.184400
      5 C3         -0.8670   -0.8090   -2.4570 c3        1 RSS     -0.109700
      6 C4         -0.9720   -0.2460   -3.8710 c         1 RSS      0.654100
      7 O3         -0.5650   -0.8620   -4.8820 o         1 RSS     -0.641100
      8 N2         -1.4850    1.0330   -4.0360 n         1 RSS     -0.577900
      9 C5         -1.9800    1.4770   -5.3090 c3        1 RSS      0.054700
     10 C6         -0.8960    1.7920   -6.3580 c         1 RSS      0.543100
     11 O4         -1.1230    2.1510   -7.5030 o         1 RSS     -0.433100
     12 N3          0.5460    1.5850   -5.9610 n4        1 RSS     -0.675800
     13 C7          1.5750    1.9980   -6.9620 c3        1 RSS      0.103800
     14 C8          2.1700    3.3770   -6.7000 c3        1 RSS     -0.104400
     15 C9          1.2390    4.4870   -7.1370 c3        1 RSS     -0.092400
     16 C10         1.5710    5.8100   -6.4760 c3        1 RSS     -0.078400
     17 C11         0.4680    6.8290   -6.6830 c3        1 RSS     -0.099400
     18 C12        -0.4020    7.0720   -5.4480 c3        1 RSS      0.034300
     19 N4         -1.0540    5.9140   -4.9030 na        1 RSS     -0.059400
     20 C13         0.3410   -1.7310   -2.3400 c3        1 RSS     -0.084400
     21 C14         1.6290   -0.9890   -2.0090 c3        1 RSS     -0.066700
     22 C15         2.7210   -1.9900   -1.6830 c3        1 RSS     -0.094100
     23 C16         2.0700   -0.0920   -3.1460 c3        1 RSS     -0.094100
     24 C17        -2.9020    2.7200   -5.2010 c3        1 RSS     -0.002200
     25 C18        -2.1880    3.9250   -4.7780 cc        1 RSS     -0.220400
     26 C19        -1.7330    4.9400   -5.6290 cd        1 RSS     -0.083100
     27 C20        -1.8360    4.3160   -3.4290 ca        1 RSS     -0.090800
     28 C21        -1.1040    5.5590   -3.5440 ca        1 RSS     -0.051200
     29 C22        -2.0980    3.7920   -2.1600 ca        1 RSS     -0.114000
     30 C23        -0.6050    6.2120   -2.4040 ca        1 RSS     -0.133000
     31 C24        -1.6030    4.4510   -1.0460 ca        1 RSS     -0.135000
     32 C25        -0.8580    5.6390   -1.1690 ca        1 RSS     -0.107000
     33 H21        -1.9750   -2.2100   -1.2240 hc        1 RSS      0.098700
     34 H22A       -2.4360   -2.2360   -2.9780 hc        1 RSS      0.098700
     35 H3         -0.7530    0.0400   -1.7200 hc        1 RSS      0.096700
     36 HN2        -4.4400   -2.1390   -1.4150 ho        1 RSS      0.440000
     37 H5         -2.5660    0.6340   -5.8030 h1        1 RSS      0.112700
     38 HN3         0.6550    0.5730   -5.7620 hn        1 RSS      0.474800
     39 H71         1.1040    1.9740   -7.9890 hx        1 RSS      0.109700
     40 H72         2.3950    1.2250   -6.9270 hx        1 RSS      0.109700
     41 H81         2.4430    3.4940   -5.6170 hc        1 RSS      0.077200
     42 H82         3.1290    3.4380   -7.2840 hc        1 RSS      0.077200
     43 H91         0.1790    4.2030   -6.8960 hc        1 RSS      0.051200
     44 H92         1.2930    4.6030   -8.2530 hc        1 RSS      0.051200
     45 H101        2.5280    6.2020   -6.9130 hc        1 RSS      0.054200
     46 H102        1.7540    5.6580   -5.3800 hc        1 RSS      0.054200
     47 H111        0.9240    7.8220   -6.9440 hc        1 RSS      0.063700
     48 H112       -0.1800    6.5290   -7.5490 hc        1 RSS      0.063700
     49 H121       -1.1950    7.8290   -5.7230 h1        1 RSS      0.071200
     50 H122        0.2390    7.5200   -4.6330 h1        1 RSS      0.071200
     51 H131        0.1500   -2.4760   -1.5200 hc        1 RSS      0.071700
     52 H132        0.4710   -2.3090   -3.2930 hc        1 RSS      0.071700
     53 H14         1.4530   -0.3480   -1.0980 hc        1 RSS      0.056700
     54 H151        2.4210   -2.6240   -0.8140 hc        1 RSS      0.037200
     55 H152        2.9180   -2.6550   -2.5580 hc        1 RSS      0.037200
     56 H153        3.6670   -1.4570   -1.4210 hc        1 RSS      0.037200
     57 H161        2.1510   -0.6750   -4.0960 hc        1 RSS      0.037200
     58 H162        3.0630    0.3630   -2.9150 hc        1 RSS      0.037200
     59 H163        1.3280    0.7320   -3.2980 hc        1 RSS      0.037200
     60 H171       -3.7280    2.4790   -4.4750 hc        1 RSS      0.092200
     61 H172       -3.3650    2.8720   -6.2140 hc        1 RSS      0.092200
     62 H19        -1.8720    5.0400   -6.7100 h4        1 RSS      0.177000
     63 H22        -2.7280    2.8940   -2.0390 ha        1 RSS      0.152000
     64 H23        -0.0480    7.1550   -2.4850 ha        1 RSS      0.143000
     65 H24        -1.8100    4.0540   -0.0410 ha        1 RSS      0.144000
     66 H25        -0.4850    6.1320   -0.2570 ha        1 RSS      0.145000
     67 H221       -1.8440    1.5160   -3.2310 hn        1 RSS      0.370500
     68 H32         0.7020    2.1020   -5.0850 hn        1 RSS      0.474800
@<TRIPOS>BOND
     1    1    2 1   
     2    1    3 2   
     3    1    4 1   
     4    2   36 1   
     5    4    5 1   
     6    4   33 1   
     7    4   34 1   
     8    5    6 1   
     9    5   20 1   
    10    5   35 1   
    11    6    7 2   
    12    6    8 1   
    13    8    9 1   
    14    8   67 1   
    15    9   10 1   
    16    9   24 1   
    17    9   37 1   
    18   10   11 2   
    19   10   12 1   
    20   12   13 1   
    21   12   38 1   
    22   12   68 1   
    23   13   14 1   
    24   13   39 1   
    25   13   40 1   
    26   14   15 1   
    27   14   41 1   
    28   14   42 1   
    29   15   16 1   
    30   15   43 1   
    31   15   44 1   
    32   16   17 1   
    33   16   45 1   
    34   16   46 1   
    35   17   18 1   
    36   17   47 1   
    37   17   48 1   
    38   18   19 1   
    39   18   49 1   
    40   18   50 1   
    41   19   26 1   
    42   19   28 1   
    43   20   21 1   
    44   20   51 1   
    45   20   52 1   
    46   21   22 1   
    47   21   23 1   
    48   21   53 1   
    49   22   54 1   
    50   22   55 1   
    51   22   56 1   
    52   23   57 1   
    53   23   58 1   
    54   23   59 1   
    55   24   25 1   
    56   24   60 1   
    57   24   61 1   
    58   25   26 2   
    59   25   27 1   
    60   26   62 1   
    61   27   28 ar  
    62   27   29 ar  
    63   28   30 ar  
    64   29   31 ar  
    65   29   63 1   
    66   30   32 ar  
    67   30   64 1   
    68   31   32 ar  
    69   31   65 1   
    70   32   66 1   
@<TRIPOS>SUBSTRUCTURE
     1 RSS         1 TEMP              0 ****  ****    0 ROOT
