@<TRIPOS>MOLECULE
RSS
   66    63     1     0     0
SMALL
bcc


@<TRIPOS>ATOM
      1 C1          4.6940    0.7690    2.0130 c1        1 RSS      0.329000
      2 O1          5.8960    1.0010    2.3330 o         1 RSS     -0.529000
      3 O2          4.0000   -0.0200    2.7080 os        1 RSS     -0.646000
      4 C2          4.1330    1.3350    0.7260 c3        1 RSS     -0.229000
      5 C3          2.9130    2.1600    1.0300 c3        1 RSS     -0.105000
      6 C4          1.8660    1.9900   -0.1250 c2        1 RSS      0.306000
      7 O3          1.7820    2.8370   -1.0010 o         1 RSS     -0.411000
      8 N2          0.9210    0.8600   -0.1050 n         1 RSS     -0.368000
      9 C5         -0.0660    0.7600   -1.0840 c3        1 RSS      0.009000
     10 C6         -1.4420    0.8330   -0.4310 c2        1 RSS      0.285000
     11 O4         -1.5410    0.8100    0.7960 o         1 RSS     -0.418000
     12 N3         -2.6450    1.0580   -1.2660 n         1 RSS     -0.367000
     13 C7         -3.7950    1.2170   -0.4340 c3        1 RSS     -0.009000
     14 C8         -4.9700    0.2830   -0.9700 c3        1 RSS     -0.177000
     15 C9         -4.3580   -1.0080   -1.6150 c3        1 RSS     -0.159000
     16 C10        -4.7850   -2.2930   -0.7610 c3        1 RSS     -0.146000
     17 C11        -3.9240   -2.3690    0.5460 c3        1 RSS     -0.196000
     18 C12        -2.8610   -3.5160    0.3990 c3        1 RSS     -0.016000
     19 N4         -1.8100   -3.0940   -0.5930 n3        1 RSS     -0.160000
     20 C13         3.3010    3.6010    1.1460 c3        1 RSS     -0.150000
     21 C14         3.2650    4.0280    2.6390 c3        1 RSS     -0.110000
     22 C15         2.0950    4.9560    2.8710 c3        1 RSS     -0.205000
     23 C16         4.5780    4.7570    2.9960 c3        1 RSS     -0.205000
     24 C17         0.0890   -0.6080   -1.8440 c3        1 RSS     -0.085000
     25 C18         0.0470   -1.7670   -0.8380 c2        1 RSS     -0.172000
     26 C19        -1.3150   -1.8860   -0.2490 c1        1 RSS     -0.056000
     27 C20         0.3430   -2.9920   -1.5100 c1        1 RSS     -0.064000
     28 C21        -0.7260   -3.8560   -1.3150 c1        1 RSS     -0.009000
     29 C22         1.5190   -3.4650   -2.0900 c1        1 RSS     -0.091000
     30 C23        -0.6420   -5.1900   -1.7550 c1        1 RSS     -0.140000
     31 C24         1.5730   -4.7800   -2.6030 c1        1 RSS     -0.149500
     32 C25         0.5010   -5.6310   -2.4350 c1        1 RSS     -0.149500
     33 H21         4.8410    1.9250    0.2750 hc        1 RSS      0.079500
     34 H22A        3.8850    0.5910    0.1170 hc        1 RSS      0.079500
     35 H3          2.5050    1.8500    1.9020 hc        1 RSS      0.134000
     36 HN2         0.9930    0.2260    0.5270 hn        1 RSS      0.260000
     37 H5          0.0340    1.5170   -1.7360 h1        1 RSS      0.142000
     38 HN3        -2.7190    0.6590   -2.0560 hn        1 RSS      0.278000
     39 H71        -3.5680    0.9600    0.4940 h1        1 RSS      0.084500
     40 H72        -4.0920    2.1690   -0.4530 h1        1 RSS      0.084500
     41 H81        -5.5800    0.0180   -0.1920 hc        1 RSS      0.081000
     42 H82        -5.4900    0.7670   -1.6410 hc        1 RSS      0.081000
     43 H91        -4.7010   -1.1050   -2.5650 hc        1 RSS      0.085500
     44 H92        -3.4050   -0.9360   -1.6270 hc        1 RSS      0.085500
     45 H101       -5.7220   -2.2270   -0.5260 hc        1 RSS      0.065000
     46 H102       -4.6410   -3.0950   -1.2900 hc        1 RSS      0.065000
     47 H111       -4.5210   -2.5620    1.3300 hc        1 RSS      0.117000
     48 H112       -3.4700   -1.5220    0.6840 hc        1 RSS      0.117000
     49 H121       -2.4440   -3.6880    1.2630 h1        1 RSS      0.087000
     50 H122       -3.2960   -4.3210    0.0850 h1        1 RSS      0.087000
     51 H131        4.2260    3.7270    0.7850 hc        1 RSS      0.085500
     52 H132        2.6800    4.1430    0.6390 hc        1 RSS      0.085500
     53 H14         3.1660    3.2340    3.2040 hc        1 RSS      0.100000
     54 H151        2.1930    5.7590    2.3040 hc        1 RSS      0.067500
     55 H152        1.2560    4.4920    2.6430 hc        1 RSS      0.067500
     56 H153        2.0730    5.2170    3.7950 hc        1 RSS      0.067500
     57 H161        5.3530    4.1310    2.8690 hc        1 RSS      0.067500
     58 H162        4.5430    5.0610    3.9650 hc        1 RSS      0.067500
     59 H163        4.6880    5.5390    2.4120 hc        1 RSS      0.067500
     60 H171        0.9580   -0.6220   -2.3260 hc        1 RSS      0.095000
     61 H172       -0.6200   -0.7050   -2.4690 hc        1 RSS      0.095000
     62 H19        -1.7370   -1.2450    0.3410 DU        1 RSS      0.229000
     63 H22         2.3430   -3.1030   -2.3930 ha        1 RSS      0.130000
     64 H23        -1.3250   -5.9440   -1.6380 ha        1 RSS      0.124000
     65 H24         2.2620   -5.1150   -3.2430 ha        1 RSS      0.115000
     66 H25         0.6980   -6.5770   -2.6560 ha        1 RSS      0.115000
@<TRIPOS>BOND
     1    1    2 1   
     2    1    4 1   
     3    4    5 1   
     4    4   33 1   
     5    4   34 1   
     6    5    6 1   
     7    5   20 1   
     8    5   35 1   
     9    6    7 1   
    10    6    8 1   
    11    8    9 1   
    12    8   36 1   
    13    9   10 1   
    14    9   24 1   
    15    9   37 1   
    16   10   11 1   
    17   10   12 1   
    18   12   13 1   
    19   12   38 1   
    20   13   14 1   
    21   13   39 1   
    22   13   40 1   
    23   14   15 1   
    24   14   41 1   
    25   14   42 1   
    26   15   16 1   
    27   15   43 1   
    28   15   44 1   
    29   16   17 1   
    30   16   45 1   
    31   16   46 1   
    32   17   18 1   
    33   17   47 1   
    34   17   48 1   
    35   18   19 1   
    36   18   49 1   
    37   18   50 1   
    38   19   26 1   
    39   19   28 1   
    40   20   21 1   
    41   20   51 1   
    42   20   52 1   
    43   21   22 1   
    44   21   23 1   
    45   21   53 1   
    46   22   54 1   
    47   22   55 1   
    48   22   56 1   
    49   23   57 1   
    50   23   58 1   
    51   23   59 1   
    52   24   25 1   
    53   24   60 1   
    54   24   61 1   
    55   25   26 1   
    56   25   27 1   
    57   27   29 1   
    58   28   30 1   
    59   29   63 1   
    60   30   64 1   
    61   31   32 1   
    62   31   65 1   
    63   32   66 1   
@<TRIPOS>SUBSTRUCTURE
     1 RSS         1 TEMP              0 ****  ****    0 ROOT
