@<TRIPOS>MOLECULE
RSS
   66    68     1     0     0
SMALL
bcc


@<TRIPOS>ATOM
      1 C1         -0.2330    1.5460    1.5050 c         1 RSS      0.895600
      2 O1          0.9960    1.3970    1.2070 o         1 RSS     -0.857300
      3 O2         -0.9760    2.3410    0.8630 o         1 RSS     -0.857300
      4 C2         -0.8430    0.7210    2.6400 c3        1 RSS     -0.195400
      5 C3          0.0770   -0.3580    3.1830 c3        1 RSS     -0.120700
      6 C4          0.3050   -1.5610    2.2670 c         1 RSS      0.667100
      7 O3          0.8300   -2.6090    2.7060 o         1 RSS     -0.643100
      8 N2         -0.0730   -1.4710    0.9380 n         1 RSS     -0.550900
      9 C5          0.5120   -2.2920   -0.0890 c3        1 RSS      0.041700
     10 C6          1.9570   -1.9400   -0.5390 c         1 RSS      0.633100
     11 O4          2.5390   -2.7290   -1.3190 o         1 RSS     -0.655100
     12 N3          2.5750   -0.8170   -0.0520 n         1 RSS     -0.553900
     13 C7          3.7680   -0.2800   -0.6530 c3        1 RSS      0.096000
     14 C8          3.7060    1.2340   -0.8820 c3        1 RSS     -0.103400
     15 C9          2.7910    1.6200   -2.0290 c3        1 RSS     -0.073400
     16 C10         1.9040    2.7940   -1.6610 c3        1 RSS     -0.106400
     17 C11         0.8950    3.1250   -2.7410 c3        1 RSS     -0.087400
     18 C12        -0.5080    2.5880   -2.4380 c3        1 RSS      0.022300
     19 N4         -0.6700    1.1700   -2.5990 na        1 RSS     -0.054400
     20 C13        -0.4020   -0.8420    4.5460 c3        1 RSS     -0.073400
     21 C14         0.0130    0.0890    5.6780 c3        1 RSS     -0.068700
     22 C15        -0.8860   -0.1200    6.8800 c3        1 RSS     -0.087100
     23 C16         1.4600   -0.1320    6.0660 c3        1 RSS     -0.087100
     24 C17        -0.3510   -2.3400   -1.3660 c3        1 RSS      0.001800
     25 C18        -0.5840   -1.0580   -2.0460 cc        1 RSS     -0.182400
     26 C19        -0.2440    0.2370   -1.6500 cd        1 RSS     -0.071100
     27 C20        -1.2540   -0.9340   -3.3260 ca        1 RSS     -0.080800
     28 C21        -1.2890    0.4820   -3.6450 ca        1 RSS     -0.046200
     29 C22        -1.8150   -1.8490   -4.2170 ca        1 RSS     -0.091000
     30 C23        -1.8850    0.9330   -4.8330 ca        1 RSS     -0.143000
     31 C24        -2.3970   -1.3840   -5.3870 ca        1 RSS     -0.173000
     32 C25        -2.4310   -0.0120   -5.6880 ca        1 RSS     -0.135000
     33 H21        -1.8120    0.2820    2.2900 hc        1 RSS      0.046700
     34 H22A       -1.0880    1.4380    3.4670 hc        1 RSS      0.046700
     35 H3          1.1090    0.1000    3.2790 hc        1 RSS      0.099700
     36 HN2        -0.4470   -0.5990    0.6300 hn        1 RSS      0.328500
     37 H5          0.5900   -3.3460    0.3230 h1        1 RSS      0.094700
     38 HN3         2.0670   -0.1810    0.5330 hn        1 RSS      0.357500
     39 H71         3.9700   -0.8070   -1.6290 h1        1 RSS      0.040200
     40 H72         4.6340   -0.4950    0.0380 h1        1 RSS      0.040200
     41 H81         4.7480    1.5870   -1.0930 hc        1 RSS      0.052200
     42 H82         3.3620    1.7370    0.0640 hc        1 RSS      0.052200
     43 H91         2.1450    0.7490   -2.3180 hc        1 RSS      0.034700
     44 H92         3.4050    1.8780   -2.9320 hc        1 RSS      0.034700
     45 H101        2.5540    3.6910   -1.4800 hc        1 RSS      0.071700
     46 H102        1.3740    2.5700   -0.6860 hc        1 RSS      0.071700
     47 H111        1.2510    2.7550   -3.7370 hc        1 RSS      0.033700
     48 H112        0.7920    4.2400   -2.8170 hc        1 RSS      0.033700
     49 H121       -1.2450    3.0980   -3.1220 h1        1 RSS      0.082700
     50 H122       -0.7670    2.8370   -1.3590 h1        1 RSS      0.082700
     51 H131        0.0090   -1.8680    4.7500 hc        1 RSS      0.049200
     52 H132       -1.5210   -0.9260    4.5270 hc        1 RSS      0.049200
     53 H14        -0.1010    1.1550    5.3310 hc        1 RSS      0.054700
     54 H151       -0.5660    0.5380    7.7230 hc        1 RSS      0.028533
     55 H152       -1.9450    0.1220    6.6230 hc        1 RSS      0.028533
     56 H153       -0.8390   -1.1820    7.2230 hc        1 RSS      0.028533
     57 H161        1.6110   -1.1720    6.4460 hc        1 RSS      0.028533
     58 H162        2.1280    0.0200    5.1840 hc        1 RSS      0.028533
     59 H163        1.7600    0.5850    6.8680 hc        1 RSS      0.028533
     60 H171        0.1680   -3.0420   -2.0780 hc        1 RSS      0.058200
     61 H172       -1.3450   -2.7970   -1.1040 hc        1 RSS      0.058200
     62 H19         0.2770    0.6240   -0.7580 h4        1 RSS      0.221000
     63 H22        -1.7880   -2.9230   -3.9850 ha        1 RSS      0.124000
     64 H23        -1.9160    2.0030   -5.0760 ha        1 RSS      0.123000
     65 H24        -2.8410   -2.0960   -6.0960 ha        1 RSS      0.112000
     66 H25        -2.9030    0.3180   -6.6250 ha        1 RSS      0.112000
@<TRIPOS>BOND
     1    1    2 1   
     2    1    3 1   
     3    1    4 1   
     4    4    5 1   
     5    4   33 1   
     6    4   34 1   
     7    5    6 1   
     8    5   20 1   
     9    5   35 1   
    10    6    7 2   
    11    6    8 1   
    12    8    9 1   
    13    8   36 1   
    14    9   10 1   
    15    9   24 1   
    16    9   37 1   
    17   10   11 2   
    18   10   12 1   
    19   12   13 1   
    20   12   38 1   
    21   13   14 1   
    22   13   39 1   
    23   13   40 1   
    24   14   15 1   
    25   14   41 1   
    26   14   42 1   
    27   15   16 1   
    28   15   43 1   
    29   15   44 1   
    30   16   17 1   
    31   16   45 1   
    32   16   46 1   
    33   17   18 1   
    34   17   47 1   
    35   17   48 1   
    36   18   19 1   
    37   18   49 1   
    38   18   50 1   
    39   19   26 1   
    40   19   28 1   
    41   20   21 1   
    42   20   51 1   
    43   20   52 1   
    44   21   22 1   
    45   21   23 1   
    46   21   53 1   
    47   22   54 1   
    48   22   55 1   
    49   22   56 1   
    50   23   57 1   
    51   23   58 1   
    52   23   59 1   
    53   24   25 1   
    54   24   60 1   
    55   24   61 1   
    56   25   26 2   
    57   25   27 1   
    58   26   62 1   
    59   27   28 ar  
    60   27   29 ar  
    61   28   30 ar  
    62   29   31 ar  
    63   29   63 1   
    64   30   32 ar  
    65   30   64 1   
    66   31   32 ar  
    67   31   65 1   
    68   32   66 1   
@<TRIPOS>SUBSTRUCTURE
     1 RSS         1 TEMP              0 ****  ****    0 ROOT
