@<TRIPOS>MOLECULE
RSS
   68    70     1     0     0
SMALL
bcc


@<TRIPOS>ATOM
      1 C1         -3.2990   -0.5810   -1.7460 c         1 RSS      0.633100
      2 O1         -4.4970   -1.0950   -1.3650 oh        1 RSS     -0.550100
      3 O2         -3.2840    0.6530   -1.8020 o         1 RSS     -0.530000
      4 C2         -2.1630   -1.5130   -2.0490 c3        1 RSS     -0.184400
      5 C3         -0.8760   -0.7760   -2.4010 c3        1 RSS     -0.109700
      6 C4         -0.9870   -0.2360   -3.8240 c         1 RSS      0.654100
      7 O3         -0.5920   -0.8720   -4.8270 o         1 RSS     -0.641100
      8 N2         -1.4930    1.0440   -4.0060 ns        1 RSS     -0.577900
      9 C5         -1.9940    1.4700   -5.2830 c3        1 RSS      0.054700
     10 C6         -0.9150    1.7600   -6.3450 c         1 RSS      0.543100
     11 O4         -1.1490    2.1010   -7.4950 o         1 RSS     -0.433100
     12 N3          0.5280    1.5490   -5.9550 ny        1 RSS     -0.675800
     13 C7          1.5520    1.9380   -6.9700 c3        1 RSS      0.103800
     14 C8          2.1590    3.3170   -6.7360 c3        1 RSS     -0.104400
     15 C9          1.2320    4.4260   -7.1850 c3        1 RSS     -0.092400
     16 C10         1.5790    5.7570   -6.5490 c3        1 RSS     -0.078400
     17 C11         0.4810    6.7810   -6.7650 c3        1 RSS     -0.099400
     18 C12        -0.3770    7.0510   -5.5280 c3        1 RSS      0.034300
     19 N4         -1.0340    5.9060   -4.9590 na        1 RSS     -0.059400
     20 C13         0.3260   -1.7050   -2.2770 c3        1 RSS     -0.084400
     21 C14         1.6220   -0.9670   -1.9680 c3        1 RSS     -0.066700
     22 C15         2.7080   -1.9710   -1.6330 c3        1 RSS     -0.094100
     23 C16         2.0610   -0.0930   -3.1230 c3        1 RSS     -0.094100
     24 C17        -2.9070    2.7210   -5.1890 c3        1 RSS     -0.002200
     25 C18        -2.1810    3.9280   -4.7920 cc        1 RSS     -0.220400
     26 C19        -1.7250    4.9250   -5.6640 cd        1 RSS     -0.083100
     27 C20        -1.8160    4.3400   -3.4530 ca        1 RSS     -0.090800
     28 C21        -1.0760    5.5750   -3.5940 ca        1 RSS     -0.051200
     29 C22        -2.0720    3.8380   -2.1730 ca        1 RSS     -0.114000
     30 C23        -0.5640    6.2430   -2.4690 ca        1 RSS     -0.133000
     31 C24        -1.5640    4.5130   -1.0740 ca        1 RSS     -0.135000
     32 C25        -0.8120    5.6930   -1.2220 ca        1 RSS     -0.107000
     33 H21        -1.9850   -2.1480   -1.1370 hc        1 RSS      0.098700
     34 H22A       -2.4600   -2.2000   -2.8870 hc        1 RSS      0.098700
     35 H3         -0.7510    0.0840   -1.6790 hc        1 RSS      0.096700
     36 HN2        -4.4510   -2.0620   -1.3110 ho        1 RSS      0.440000
     37 H5         -2.5900    0.6240   -5.7590 h1        1 RSS      0.112700
     38 HN3         0.6940    2.0790   -5.0890 hn        1 RSS      0.474800
     39 H71         1.0740    1.9000   -7.9930 hx        1 RSS      0.109700
     40 H72         2.3680    1.1590   -6.9280 hx        1 RSS      0.109700
     41 H81         3.1140    3.3610   -7.3270 hc        1 RSS      0.077200
     42 H82         2.4410    3.4500   -5.6570 hc        1 RSS      0.077200
     43 H91         1.2790    4.5230   -8.3030 hc        1 RSS      0.051200
     44 H92         0.1730    4.1530   -6.9310 hc        1 RSS      0.051200
     45 H101        1.7680    5.6230   -5.4520 hc        1 RSS      0.054200
     46 H102        2.5350    6.1350   -6.9990 hc        1 RSS      0.054200
     47 H111        0.9420    7.7660   -7.0460 hc        1 RSS      0.063700
     48 H112       -0.1750    6.4710   -7.6210 hc        1 RSS      0.063700
     49 H121        0.2720    7.5080   -4.7260 h1        1 RSS      0.071200
     50 H122       -1.1680    7.8090   -5.8110 h1        1 RSS      0.071200
     51 H131        0.4450   -2.3000   -3.2220 hc        1 RSS      0.071700
     52 H132        0.1350   -2.4350   -1.4440 hc        1 RSS      0.071700
     53 H14         1.4570   -0.3100   -1.0670 hc        1 RSS      0.056700
     54 H151        3.6590   -1.4410   -1.3870 hc        1 RSS      0.037200
     55 H152        2.4100   -2.5880   -0.7510 hc        1 RSS      0.037200
     56 H153        2.8940   -2.6530   -2.4970 hc        1 RSS      0.037200
     57 H161        1.3240    0.7330   -3.2850 hc        1 RSS      0.037200
     58 H162        2.1310   -0.6940   -4.0640 hc        1 RSS      0.037200
     59 H163        3.0590    0.3580   -2.9080 hc        1 RSS      0.037200
     60 H171       -3.3760    2.8590   -6.2020 hc        1 RSS      0.092200
     61 H172       -3.7290    2.4990   -4.4530 hc        1 RSS      0.092200
     62 H19        -1.8710    5.0080   -6.7450 h4        1 RSS      0.177000
     63 H22        -2.7070    2.9470   -2.0320 ha        1 RSS      0.152000
     64 H23        -0.0010    7.1810   -2.5700 ha        1 RSS      0.143000
     65 H24        -1.7660    4.1340   -0.0600 ha        1 RSS      0.144000
     66 H25        -0.4280    6.1980   -0.3220 ha        1 RSS      0.145000
     67 H221       -1.8420    1.5430   -3.2070 hn        1 RSS      0.370500
     68 H32         0.6320    0.5400   -5.7390 hn        1 RSS      0.474800
@<TRIPOS>BOND
     1    1    2 1   
     2    1    3 2   
     3    1    4 1   
     4    2   36 1   
     5    4    5 1   
     6    4   33 1   
     7    4   34 1   
     8    5    6 1   
     9    5   20 1   
    10    5   35 1   
    11    6    7 2   
    12    6    8 1   
    13    8    9 1   
    14    8   67 1   
    15    9   10 1   
    16    9   24 1   
    17    9   37 1   
    18   10   11 2   
    19   10   12 1   
    20   12   13 1   
    21   12   38 1   
    22   12   68 1   
    23   13   14 1   
    24   13   39 1   
    25   13   40 1   
    26   14   15 1   
    27   14   41 1   
    28   14   42 1   
    29   15   16 1   
    30   15   43 1   
    31   15   44 1   
    32   16   17 1   
    33   16   45 1   
    34   16   46 1   
    35   17   18 1   
    36   17   47 1   
    37   17   48 1   
    38   18   19 1   
    39   18   49 1   
    40   18   50 1   
    41   19   26 1   
    42   19   28 1   
    43   20   21 1   
    44   20   51 1   
    45   20   52 1   
    46   21   22 1   
    47   21   23 1   
    48   21   53 1   
    49   22   54 1   
    50   22   55 1   
    51   22   56 1   
    52   23   57 1   
    53   23   58 1   
    54   23   59 1   
    55   24   25 1   
    56   24   60 1   
    57   24   61 1   
    58   25   26 2   
    59   25   27 1   
    60   26   62 1   
    61   27   28 ar  
    62   27   29 ar  
    63   28   30 ar  
    64   29   31 ar  
    65   29   63 1   
    66   30   32 ar  
    67   30   64 1   
    68   31   32 ar  
    69   31   65 1   
    70   32   66 1   
@<TRIPOS>SUBSTRUCTURE
     1 RSS         1 TEMP              0 ****  ****    0 ROOT
