@<TRIPOS>MOLECULE
RST
   23    23     1     0     0
SMALL
bcc


@<TRIPOS>ATOM
      1 C1         -1.4510    0.5380   -0.3910 c3        1 RST      0.344900
      2 O1         -2.6090    1.1050    0.1610 oh        1 RST     -0.589800
      3 C2         -0.2170    1.4150   -0.1970 c3        1 RST     -0.175400
      4 C3          1.0340    0.6520   -0.6500 c3        1 RST      0.180500
      5 N3          2.2750    1.3990   -0.5920 n3        1 RST     -0.899800
      6 C4          1.1100   -0.6670    0.1580 c3        1 RST      0.110100
      7 O4          1.3700   -0.3100    1.5090 oh        1 RST     -0.599800
      8 C5         -0.1980   -1.4680    0.0360 c3        1 RST      0.122100
      9 O5         -1.3490   -0.6860    0.3320 os        1 RST     -0.448600
     10 C6         -0.3180   -2.1430   -1.3160 c3        1 RST     -0.125100
     11 H1         -1.6750    0.3490   -1.4770 h2        1 RST      0.072700
     12 HO1        -2.5420    1.0400    1.1240 ho        1 RST      0.420000
     13 H21        -0.3470    2.3560   -0.7890 hc        1 RST      0.066200
     14 H22        -0.1210    1.6890    0.8860 hc        1 RST      0.066200
     15 H3          0.8930    0.3620   -1.7360 h1        1 RST      0.060700
     16 HN31        2.1270    2.3340   -0.9200 hn        1 RST      0.356800
     17 HN32        2.6200    1.4330    0.3490 hn        1 RST      0.356800
     18 H4          1.9580   -1.3020   -0.2260 h1        1 RST      0.057700
     19 HO4         1.3180   -1.1190    2.0310 ho        1 RST      0.407000
     20 H5         -0.2220   -2.2540    0.8500 h1        1 RST      0.070700
     21 H61         0.5120   -2.8770   -1.4490 hc        1 RST      0.048700
     22 H62        -1.2940   -2.6820   -1.3800 hc        1 RST      0.048700
     23 H63        -0.2740   -1.3980   -2.1460 hc        1 RST      0.048700
@<TRIPOS>BOND
     1    1    2 1   
     2    1    3 1   
     3    1    9 1   
     4    1   11 1   
     5    2   12 1   
     6    3    4 1   
     7    3   13 1   
     8    3   14 1   
     9    4    5 1   
    10    4    6 1   
    11    4   15 1   
    12    5   16 1   
    13    5   17 1   
    14    6    7 1   
    15    6    8 1   
    16    6   18 1   
    17    7   19 1   
    18    8    9 1   
    19    8   10 1   
    20    8   20 1   
    21   10   21 1   
    22   10   22 1   
    23   10   23 1   
@<TRIPOS>SUBSTRUCTURE
     1 RST         1 TEMP              0 ****  ****    0 ROOT
