@<TRIPOS>MOLECULE
RSV
   26    28     1     0     0
SMALL
bcc


@<TRIPOS>ATOM
      1 C4         -0.0040    0.1610   -0.0380 ca        1 RSV      0.441600
      2 C5          1.4010   -0.0890    0.0010 ca        1 RSV     -0.183300
      3 C6          2.0850   -0.1180    1.2390 ca        1 RSV     -0.088000
      4 C7          2.1060    0.0620    3.6970 cc        1 RSV     -0.062000
      5 C8          1.4920   -0.3380    4.9350 cc        1 RSV     -0.141000
      6 C10         3.4340    0.4050    3.8930 cd        1 RSV     -0.170100
      7 N12        -0.7220    0.1940   -1.2100 nb        1 RSV     -0.733000
      8 C13        -0.0580    0.0060   -2.3680 ca        1 RSV      0.640200
      9 C15         2.0700   -0.3060   -1.2380 ca        1 RSV     -0.055000
     10 C14         1.3690   -0.2660   -2.4100 ca        1 RSV     -0.276300
     11 N16        -0.7370    0.1450   -3.5880 nv        1 RSV     -0.927500
     12 C3         -0.6800    0.3770    1.2080 ca        1 RSV     -0.183300
     13 C2          0.0100    0.3400    2.3910 ca        1 RSV     -0.102000
     14 C1          1.4100    0.0900    2.4270 ca        1 RSV     -0.025000
     15 C11         2.3800   -0.2760    5.9840 cd        1 RSV     -0.173100
     16 S9          3.8870    0.2480    5.4880 ss        1 RSV      0.031200
     17 H6          3.1680   -0.3170    1.2390 ha        1 RSV      0.133000
     18 H8          0.4510   -0.6590    5.0060 ha        1 RSV      0.156000
     19 H10         4.1140    0.7500    3.1150 h4        1 RSV      0.172000
     20 H15         3.1520   -0.5060   -1.2300 ha        1 RSV      0.137000
     21 H14         1.8650   -0.4220   -3.3780 ha        1 RSV      0.142000
     22 HN16       -1.7310    0.1680   -3.5360 hn        1 RSV      0.403800
     23 HN1A       -0.3810   -0.4350   -4.3140 hn        1 RSV      0.403800
     24 H3         -1.7640    0.5760    1.1980 ha        1 RSV      0.149000
     25 H2         -0.5180    0.5150    3.3420 ha        1 RSV      0.137000
     26 H11         2.1550   -0.5310    7.0190 h4        1 RSV      0.171000
@<TRIPOS>BOND
     1    1    2 ar  
     2    1    7 ar  
     3    1   12 ar  
     4    2    3 ar  
     5    2    9 ar  
     6    3   14 ar  
     7    3   17 1   
     8    4    5 1   
     9    4    6 2   
    10    4   14 1   
    11    5   15 2   
    12    5   18 1   
    13    6   16 1   
    14    6   19 1   
    15    7    8 ar  
    16    8   10 ar  
    17    8   11 1   
    18    9   10 ar  
    19    9   20 1   
    20   10   21 1   
    21   11   22 1   
    22   11   23 1   
    23   12   13 ar  
    24   12   24 1   
    25   13   14 ar  
    26   13   25 1   
    27   15   16 1   
    28   15   26 1   
@<TRIPOS>SUBSTRUCTURE
     1 RSV         1 TEMP              0 ****  ****    0 ROOT
