@<TRIPOS>MOLECULE
RSV
   26    28     1     0     0
SMALL
bcc


@<TRIPOS>ATOM
      1 C4         -2.0310   -0.7210   -0.0930 ca        1 RSV      0.441600
      2 C5         -1.4580    0.5770    0.0700 ca        1 RSV     -0.183300
      3 C6         -0.0530    0.7410    0.0720 ca        1 RSV     -0.088000
      4 C7          2.2260   -0.1840   -0.0820 cc        1 RSV     -0.062000
      5 C8          3.1440   -1.1960    0.3680 cc        1 RSV     -0.141000
      6 C10         2.9080    0.9470   -0.5020 cd        1 RSV     -0.171100
      7 N12        -3.3880   -0.9390   -0.1090 nb        1 RSV     -0.733000
      8 C13        -4.2040    0.1200    0.0640 ca        1 RSV      0.640200
      9 C15        -2.3480    1.6780    0.2290 ca        1 RSV     -0.055000
     10 C14        -3.6990    1.4730    0.2250 ca        1 RSV     -0.276300
     11 N16        -5.5890   -0.0810    0.1650 nh        1 RSV     -0.927500
     12 C3         -1.1370   -1.8310   -0.2540 ca        1 RSV     -0.183300
     13 C2          0.2200   -1.6410   -0.2470 ca        1 RSV     -0.102000
     14 C1          0.7870   -0.3460   -0.0830 ca        1 RSV     -0.025000
     15 C11         4.4510   -0.7790    0.2640 cd        1 RSV     -0.173100
     16 S9          4.5570    0.7700   -0.3540 ss        1 RSV      0.030200
     17 H6          0.3610    1.7520    0.2050 ha        1 RSV      0.133000
     18 H8          2.8190   -2.1650    0.7520 ha        1 RSV      0.156000
     19 H10         2.4420    1.8500   -0.8940 h4        1 RSV      0.172000
     20 H15        -1.9280    2.6880    0.3530 ha        1 RSV      0.137000
     21 H14        -4.4040    2.3050    0.3550 ha        1 RSV      0.142000
     22 HN16       -5.9240   -0.9790   -0.1080 hn        1 RSV      0.404800
     23 HN1A       -6.1310    0.6780   -0.1810 hn        1 RSV      0.404800
     24 H3         -1.5600   -2.8400   -0.3840 ha        1 RSV      0.149000
     25 H2          0.8970   -2.4990   -0.3780 ha        1 RSV      0.137000
     26 H11         5.3250   -1.3640    0.5450 h4        1 RSV      0.172000
@<TRIPOS>BOND
     1    1    2 ar  
     2    1    7 ar  
     3    1   12 ar  
     4    2    3 ar  
     5    2    9 ar  
     6    3   14 ar  
     7    3   17 1   
     8    4    5 1   
     9    4    6 2   
    10    4   14 1   
    11    5   15 2   
    12    5   18 1   
    13    6   16 1   
    14    6   19 1   
    15    7    8 ar  
    16    8   10 ar  
    17    8   11 1   
    18    9   10 ar  
    19    9   20 1   
    20   10   21 1   
    21   11   22 1   
    22   11   23 1   
    23   12   13 ar  
    24   12   24 1   
    25   13   14 ar  
    26   13   25 1   
    27   15   16 1   
    28   15   26 1   
@<TRIPOS>SUBSTRUCTURE
     1 RSV         1 TEMP              0 ****  ****    0 ROOT
