@<TRIPOS>MOLECULE
RSV
   26    28     1     0     0
SMALL
bcc


@<TRIPOS>ATOM
      1 C4         -0.0050    0.1520   -0.0380 ca        1 RSV      0.441600
      2 C5          1.4030   -0.0810    0.0010 ca        1 RSV     -0.183300
      3 C6          2.0860   -0.1080    1.2390 ca        1 RSV     -0.088000
      4 C7          2.1030    0.0620    3.6980 cc        1 RSV     -0.062000
      5 C8          1.4930   -0.3510    4.9340 cc        1 RSV     -0.141000
      6 C10         3.4260    0.4200    3.8970 cd        1 RSV     -0.170100
      7 N12        -0.7220    0.1810   -1.2110 nb        1 RSV     -0.733000
      8 C13        -0.0550    0.0070   -2.3690 ca        1 RSV      0.640200
      9 C15         2.0750   -0.2850   -1.2380 ca        1 RSV     -0.055000
     10 C14         1.3760   -0.2480   -2.4110 ca        1 RSV     -0.276300
     11 N16        -0.7340    0.1430   -3.5890 nh        1 RSV     -0.927500
     12 C3         -0.6850    0.3540    1.2080 ca        1 RSV     -0.183300
     13 C2          0.0040    0.3200    2.3920 ca        1 RSV     -0.102000
     14 C1          1.4080    0.0880    2.4280 ca        1 RSV     -0.025000
     15 C11         2.3790   -0.2820    5.9840 cd        1 RSV     -0.173100
     16 S9          3.8800    0.2620    5.4910 ss        1 RSV      0.031200
     17 H6          3.1710   -0.2930    1.2400 ha        1 RSV      0.133000
     18 H8          0.4560   -0.6850    5.0030 ha        1 RSV      0.156000
     19 H10         4.1030    0.7770    3.1210 h4        1 RSV      0.172000
     20 H15         3.1600   -0.4720   -1.2300 ha        1 RSV      0.137000
     21 H14         1.8740   -0.3940   -3.3790 ha        1 RSV      0.142000
     22 HN16       -0.3710   -0.4290   -4.3170 hn        1 RSV      0.403800
     23 HN1A       -1.7290    0.1540   -3.5380 hn        1 RSV      0.403800
     24 H3         -1.7710    0.5410    1.1980 ha        1 RSV      0.149000
     25 H2         -0.5260    0.4850    3.3430 ha        1 RSV      0.137000
     26 H11         2.1570   -0.5450    7.0170 h4        1 RSV      0.171000
@<TRIPOS>BOND
     1    1    2 ar  
     2    1    7 ar  
     3    1   12 ar  
     4    2    3 ar  
     5    2    9 ar  
     6    3   14 ar  
     7    3   17 1   
     8    4    5 1   
     9    4    6 2   
    10    4   14 1   
    11    5   15 2   
    12    5   18 1   
    13    6   16 1   
    14    6   19 1   
    15    7    8 ar  
    16    8   10 ar  
    17    8   11 1   
    18    9   10 ar  
    19    9   20 1   
    20   10   21 1   
    21   11   22 1   
    22   11   23 1   
    23   12   13 ar  
    24   12   24 1   
    25   13   14 ar  
    26   13   25 1   
    27   15   16 1   
    28   15   26 1   
@<TRIPOS>SUBSTRUCTURE
     1 RSV         1 TEMP              0 ****  ****    0 ROOT
