@<TRIPOS>MOLECULE
RSV
   26    21     1     0     0
SMALL
bcc


@<TRIPOS>ATOM
      1 C4         -1.0510    0.1920   -1.1480 c1        1 RSV      0.048000
      2 C5          0.3240    0.1920   -1.1480 c2        1 RSV     -0.118000
      3 C6          1.0270    0.1920    0.0720 c2        1 RSV     -0.088000
      4 C7          0.7330   -0.1930    2.5440 c2        1 RSV     -0.063000
      5 C8          1.2370    0.7810    3.6990 c1        1 RSV     -0.142000
      6 C10         0.7660   -1.5530    3.0480 c1        1 RSV     -0.439000
      7 N12        -1.7430    0.1920   -2.3470 n1        1 RSV     -0.207000
      8 C13        -1.0620    0.1920   -3.5300 c1        1 RSV      0.119000
      9 C15         1.0160    0.1920   -2.3500 c1        1 RSV     -0.055000
     10 C14         0.3300    0.1920   -3.5330 c1        1 RSV     -0.211000
     11 N16        -1.8800    0.0000   -4.6730 n3        1 RSV     -0.325000
     12 C3         -1.7540    0.1920    0.0720 c1        1 RSV     -0.110000
     13 C2         -1.0590    0.1920    1.2750 c1        1 RSV     -0.110000
     14 C1          0.3320    0.1920    1.2750 c1        1 RSV     -0.025000
     15 C11         1.5580   -0.0220    4.8640 c1        1 RSV     -0.444000
     16 S9          1.2790   -1.5070    4.5120 ss        1 RSV      0.572000
     17 H6          2.0030    0.2160    0.0720 ha        1 RSV      0.134000
     18 H8          1.3160    1.7510    3.6340 DU        1 RSV      0.166000
     19 H10         0.5100   -2.3560    2.5540 DU        1 RSV      0.166000
     20 H15         1.9920    0.1920   -2.3520 ha        1 RSV      0.138000
     21 H14         0.8160    0.1920   -4.3800 ha        1 RSV      0.142000
     22 HN16       -2.1790   -0.8350   -4.8840 hn        1 RSV      0.199500
     23 HN1A       -2.1220    0.7140   -5.1860 hn        1 RSV      0.199500
     24 H3         -2.7310    0.1920    0.0720 ha        1 RSV      0.142500
     25 H2         -1.5470    0.1920    2.1200 ha        1 RSV      0.142500
     26 H11         1.8900    0.3140    5.7190 DU        1 RSV      0.166000
@<TRIPOS>BOND
     1    1    2 1   
     2    1    7 1   
     3    2    3 1   
     4    2    9 1   
     5    3   14 1   
     6    3   17 1   
     7    4    5 1   
     8    4    6 1   
     9    4   14 1   
    10    5   15 1   
    11    6   16 1   
    12    8   10 1   
    13    8   11 1   
    14    9   20 1   
    15   10   21 1   
    16   11   22 1   
    17   11   23 1   
    18   12   13 1   
    19   12   24 1   
    20   13   25 1   
    21   15   16 1   
@<TRIPOS>SUBSTRUCTURE
     1 RSV         1 TEMP              0 ****  ****    0 ROOT
