@<TRIPOS>MOLECULE
RSV
   27    29     1     0     0
SMALL
bcc


@<TRIPOS>ATOM
      1 C4         -0.0270    0.0920   -0.0080 ca        1 RSV      0.393600
      2 C5          1.4020   -0.0640    0.0110 ca        1 RSV     -0.101300
      3 C6          2.0890   -0.0740    1.2440 ca        1 RSV     -0.135000
      4 C7          2.1050    0.0540    3.7060 cc        1 RSV     -0.122000
      5 C8          1.5030   -0.3240    4.9540 cc        1 RSV     -0.128000
      6 C10         3.4410    0.4020    3.8890 cd        1 RSV     -0.173100
      7 N12        -0.7360    0.1060   -1.1810 nb        1 RSV     -0.621000
      8 C13        -0.0480   -0.0340   -2.3180 ca        1 RSV      0.437200
      9 C15         2.0790   -0.2080   -1.2320 ca        1 RSV     -0.038000
     10 C14         1.3720   -0.1960   -2.4120 ca        1 RSV     -0.243300
     11 N16        -0.8270   -0.0180   -3.5790 n4        1 RSV     -0.819300
     12 C3         -0.7140    0.2370    1.2420 ca        1 RSV     -0.153300
     13 C2         -0.0120    0.2210    2.4180 ca        1 RSV     -0.094000
     14 C1          1.4060    0.0640    2.4430 ca        1 RSV      0.077000
     15 C11         2.4050   -0.2420    5.9920 cd        1 RSV     -0.183100
     16 S9          3.9000    0.2760    5.4700 ss        1 RSV      0.147200
     17 H6          3.1840   -0.2020    1.2400 ha        1 RSV      0.158000
     18 H8          0.4650   -0.6500    5.0510 ha        1 RSV      0.160000
     19 H10         4.1120    0.7360    3.0980 h4        1 RSV      0.175000
     20 H15         3.1750   -0.3310   -1.2370 ha        1 RSV      0.174000
     21 H14         1.8760   -0.3070   -3.3820 ha        1 RSV      0.162000
     22 HN16       -0.6770   -0.9070   -4.0670 hn        1 RSV      0.468800
     23 HN1A       -0.4920    0.7560   -4.1610 hn        1 RSV      0.468800
     24 H3         -1.8100    0.3630    1.2430 ha        1 RSV      0.167000
     25 H2         -0.5460    0.3420    3.3770 ha        1 RSV      0.165000
     26 H11         2.1880   -0.4820    7.0330 h4        1 RSV      0.188000
     27 H163       -1.8310    0.1040   -3.3940 hn        1 RSV      0.468800
@<TRIPOS>BOND
     1    1    2 ar  
     2    1    7 ar  
     3    1   12 ar  
     4    2    3 ar  
     5    2    9 ar  
     6    3   14 ar  
     7    3   17 1   
     8    4    5 1   
     9    4    6 2   
    10    4   14 1   
    11    5   15 2   
    12    5   18 1   
    13    6   16 1   
    14    6   19 1   
    15    7    8 ar  
    16    8   10 ar  
    17    8   11 1   
    18    9   10 ar  
    19    9   20 1   
    20   10   21 1   
    21   11   22 1   
    22   11   23 1   
    23   11   27 1   
    24   12   13 ar  
    25   12   24 1   
    26   13   14 ar  
    27   13   25 1   
    28   15   16 1   
    29   15   26 1   
@<TRIPOS>SUBSTRUCTURE
     1 RSV         1 TEMP              0 ****  ****    0 ROOT
