@<TRIPOS>MOLECULE
RSX
   30    30     1     0     0
SMALL
bcc


@<TRIPOS>ATOM
      1 O1         -2.2770   -2.9050    0.1680 o         1 RSX     -1.254667
      2 P1         -0.7670   -2.9050    0.1680 p3        1 RSX      2.593000
      3 O3         -0.2640   -2.9050    1.5920 o         1 RSX     -1.254667
      4 O2         -0.2640   -4.1380   -0.5440 o         1 RSX     -1.254667
      5 C3         -0.1620   -1.4230   -0.6880 c2        1 RSX     -1.325000
      6 P2         -0.3520   -2.0190   -2.3920 p5        1 RSX      1.764500
      7 O5          0.0160   -0.9160   -3.3550 o         1 RSX     -0.809167
      8 O4          0.5560   -3.2050   -2.6150 o         1 RSX     -0.809167
      9 O6         -1.7850   -2.4330   -2.6240 o         1 RSX     -0.809167
     10 C4          1.3880   -0.9170   -0.2610 c3        1 RSX     -0.053000
     11 C5          1.1120    0.3560    0.6410 c3        1 RSX     -0.041000
     12 C2         -0.8370   -0.2250   -0.3830 c3        1 RSX     -0.083000
     13 C1         -0.1570    0.2030    0.9910 c3        1 RSX     -0.105000
     14 C9         -0.7810    1.4890    1.5970 c3        1 RSX      0.050000
     15 C8         -0.5850    2.6490    0.7520 c3        1 RSX     -0.855000
     16 C7          0.7880    2.8100    0.3680 c3        1 RSX      0.104000
     17 N1          1.3430    1.5910   -0.2210 n3        1 RSX     -0.289000
     18 H4          1.9020   -0.6720   -1.0540 hc        1 RSX      0.050500
     19 H4A         1.8490   -1.6090    0.2500 hc        1 RSX      0.050500
     20 H5          1.6940    0.3600    1.4250 h1        1 RSX      0.082000
     21 H2         -1.7920   -0.3860   -0.2620 hc        1 RSX      0.055500
     22 H2A        -0.6800    0.4470   -1.0720 hc        1 RSX      0.055500
     23 H1         -0.2310   -0.5290    1.6330 hc        1 RSX      0.020000
     24 H9         -0.3720    1.6590    2.4670 hc        1 RSX     -0.045500
     25 H9A        -1.7390    1.3470    1.7210 hc        1 RSX     -0.045500
     26 H8         -0.8740    3.4460    1.2350 hc        1 RSX      0.112000
     27 H8A        -1.1290    2.5510   -0.0520 hc        1 RSX      0.112000
     28 H7          1.3120    3.0460    1.1570 h1        1 RSX     -0.042000
     29 H7A         0.8520    3.5330   -0.2840 h1        1 RSX     -0.042000
     30 HN1         2.2370    1.7010   -0.3610 hn        1 RSX      0.070000
@<TRIPOS>BOND
     1    1    2 1   
     2    2    3 1   
     3    2    4 1   
     4    5    6 1   
     5    5   10 1   
     6    5   12 1   
     7    6    7 1   
     8    6    8 1   
     9    6    9 1   
    10   10   11 1   
    11   10   18 1   
    12   10   19 1   
    13   11   13 1   
    14   11   17 1   
    15   11   20 1   
    16   12   13 1   
    17   12   21 1   
    18   12   22 1   
    19   13   14 1   
    20   13   23 1   
    21   14   15 1   
    22   14   24 1   
    23   14   25 1   
    24   15   16 1   
    25   15   26 1   
    26   15   27 1   
    27   16   17 1   
    28   16   28 1   
    29   16   29 1   
    30   17   30 1   
@<TRIPOS>SUBSTRUCTURE
     1 RSX         1 TEMP              0 ****  ****    0 ROOT
