@<TRIPOS>MOLECULE
RSX
   30    31     1     0     0
SMALL
bcc


@<TRIPOS>ATOM
      1 O1          0.3990    0.0700    0.9650 o         1 RSX     -0.982000
      2 P1          1.7730    0.0040    0.3220 p5        1 RSX      1.258200
      3 O3          2.8330    0.3500    1.3700 o         1 RSX     -0.982000
      4 O2          2.0740   -1.3510   -0.2900 o         1 RSX     -0.982000
      5 C3          1.9520    1.4000   -0.9900 c3        1 RSX     -0.394400
      6 P2          1.2200    1.7900   -2.6230 p5        1 RSX      1.258200
      7 O5          1.8780    0.9430   -3.7040 o         1 RSX     -0.982000
      8 O4         -0.2940    1.6840   -2.6370 o         1 RSX     -0.982000
      9 O6          1.6100    3.2640   -2.8840 o         1 RSX     -0.982000
     10 C4          3.4310    1.3800   -1.2430 c3        1 RSX     -0.008400
     11 C5          4.0260    2.7760   -0.8420 c3        1 RSX      0.177500
     12 C2          1.6630    2.6030   -0.1410 c3        1 RSX      0.011600
     13 C1          3.0020    3.2970    0.2000 c3        1 RSX     -0.091700
     14 C9          2.8730    4.8050    0.2980 c3        1 RSX     -0.028400
     15 C8          2.9050    5.4540   -1.0650 c3        1 RSX     -0.148400
     16 C7          4.1910    5.0270   -1.7680 c3        1 RSX      0.216800
     17 N1          4.2790    3.6080   -2.0220 n7        1 RSX     -0.862200
     18 H4          3.6500    1.1400   -2.3200 hc        1 RSX      0.034700
     19 H4A         3.9540    0.6150   -0.6080 hc        1 RSX      0.034700
     20 H5          5.0250    2.6500   -0.3310 h1        1 RSX     -0.039300
     21 H2          0.9940    3.3290   -0.6790 hc        1 RSX      0.017700
     22 H2A         1.1510    2.3250    0.8210 hc        1 RSX      0.017700
     23 H1          3.3410    2.9090    1.2020 hc        1 RSX      0.044700
     24 H9          3.7050    5.2280    0.9310 hc        1 RSX     -0.037300
     25 H9A         1.9150    5.0640    0.8220 hc        1 RSX     -0.037300
     26 H8          2.0370    5.0480   -1.6810 hc        1 RSX      0.051200
     27 H8A         2.8480    6.5710   -0.9840 hc        1 RSX      0.051200
     28 H7          5.0800    5.3530   -1.1470 h1        1 RSX     -0.045800
     29 H7A         4.2720    5.5700   -2.7540 h1        1 RSX     -0.045800
     30 HN1         3.5180    3.3670   -2.6910 hn        1 RSX      0.456800
@<TRIPOS>BOND
     1    1    2 1   
     2    2    3 1   
     3    2    4 1   
     4    2    5 1   
     5    5    6 1   
     6    5   10 1   
     7    5   12 1   
     8    6    7 1   
     9    6    8 1   
    10    6    9 1   
    11   10   11 1   
    12   10   18 1   
    13   10   19 1   
    14   11   13 1   
    15   11   17 1   
    16   11   20 1   
    17   12   13 1   
    18   12   21 1   
    19   12   22 1   
    20   13   14 1   
    21   13   23 1   
    22   14   15 1   
    23   14   24 1   
    24   14   25 1   
    25   15   16 1   
    26   15   26 1   
    27   15   27 1   
    28   16   17 1   
    29   16   28 1   
    30   16   29 1   
    31   17   30 1   
@<TRIPOS>SUBSTRUCTURE
     1 RSX         1 TEMP              0 ****  ****    0 ROOT
