@<TRIPOS>MOLECULE
RSX
   30    31     1     0     0
SMALL
bcc


@<TRIPOS>ATOM
      1 O1          2.6170    1.4280    1.2790 o         1 RSX     -0.982000
      2 P1          2.0460    1.2250   -0.1150 p5        1 RSX      1.258200
      3 O3          1.4570    2.5470   -0.6110 o         1 RSX     -0.982000
      4 O2          3.0760    0.7150   -1.1050 o         1 RSX     -0.982000
      5 C3          0.5290    0.0450   -0.0370 c3        1 RSX     -0.394400
      6 P2          0.2420   -1.7280    0.3250 p5        1 RSX      1.258200
      7 O5          0.6040   -2.5720   -0.8890 o         1 RSX     -0.982000
      8 O4          0.9340   -2.1960    1.5920 o         1 RSX     -0.982000
      9 O6         -1.2880   -1.8410    0.5310 o         1 RSX     -0.982000
     10 C4         -0.0710    0.2460   -1.3980 c3        1 RSX     -0.008400
     11 C5         -1.5200    0.8250   -1.2250 c3        1 RSX      0.177500
     12 C2         -0.3340    0.7830    0.9430 c3        1 RSX      0.011600
     13 C1         -1.4470    1.5190    0.1600 c3        1 RSX     -0.091700
     14 C9         -2.7540    1.5930    0.9280 c3        1 RSX     -0.028400
     15 C8         -3.5410    0.3100    0.8070 c3        1 RSX     -0.148400
     16 C7         -3.7570    0.0190   -0.6760 c3        1 RSX      0.216800
     17 N1         -2.5360   -0.2150   -1.4130 n3        1 RSX     -0.862200
     18 H4          0.5040    0.9990   -2.0020 hc        1 RSX      0.034700
     19 H4A        -0.0860   -0.7180   -1.9760 hc        1 RSX      0.034700
     20 H5         -1.7310    1.6100   -2.0090 h1        1 RSX     -0.039300
     21 H2         -0.8030    0.0790    1.6830 hc        1 RSX      0.017700
     22 H2A         0.2520    1.5440    1.5280 hc        1 RSX      0.017700
     23 H1         -1.0920    2.5710   -0.0280 hc        1 RSX      0.044700
     24 H9         -2.5380    1.8080    2.0090 hc        1 RSX     -0.037300
     25 H9A        -3.3800    2.4520    0.5510 hc        1 RSX     -0.037300
     26 H8         -2.9130   -0.5430    1.2270 hc        1 RSX      0.051200
     27 H8A        -4.5220    0.3850    1.3450 hc        1 RSX      0.051200
     28 H7         -4.4160   -0.8900   -0.7830 h1        1 RSX     -0.045800
     29 H7A        -4.3190    0.8820   -1.1450 h1        1 RSX     -0.045800
     30 HN1        -2.1080   -1.0840   -1.0300 hn        1 RSX      0.456800
@<TRIPOS>BOND
     1    1    2 1   
     2    2    3 1   
     3    2    4 1   
     4    2    5 1   
     5    5    6 1   
     6    5   10 1   
     7    5   12 1   
     8    6    7 1   
     9    6    8 1   
    10    6    9 1   
    11   10   11 1   
    12   10   18 1   
    13   10   19 1   
    14   11   13 1   
    15   11   17 1   
    16   11   20 1   
    17   12   13 1   
    18   12   21 1   
    19   12   22 1   
    20   13   14 1   
    21   13   23 1   
    22   14   15 1   
    23   14   24 1   
    24   14   25 1   
    25   15   16 1   
    26   15   26 1   
    27   15   27 1   
    28   16   17 1   
    29   16   28 1   
    30   16   29 1   
    31   17   30 1   
@<TRIPOS>SUBSTRUCTURE
     1 RSX         1 TEMP              0 ****  ****    0 ROOT
