@<TRIPOS>MOLECULE
RSX
   30    31     1     0     0
SMALL
bcc


@<TRIPOS>ATOM
      1 O1          0.4100    0.0630    0.9700 o         1 RSX     -0.982000
      2 P1          1.7850    0.0030    0.3270 p5        1 RSX      1.258200
      3 O3          2.8430    0.3550    1.3750 o         1 RSX     -0.982000
      4 O2          2.0910   -1.3530   -0.2820 o         1 RSX     -0.982000
      5 C3          1.9580    1.3970   -0.9870 c3        1 RSX     -0.394400
      6 P2          1.2240    1.7800   -2.6210 p5        1 RSX      1.258200
      7 O5          1.8850    0.9350   -3.7010 o         1 RSX     -0.982000
      8 O4         -0.2900    1.6690   -2.6350 o         1 RSX     -0.982000
      9 O6          1.6090    3.2560   -2.8850 o         1 RSX     -0.982000
     10 C4          3.4370    1.3820   -1.2400 c3        1 RSX     -0.008400
     11 C5          4.0260    2.7810   -0.8420 c3        1 RSX      0.177500
     12 C2          1.6640    2.6000   -0.1400 c3        1 RSX      0.011600
     13 C1          3.0010    3.3000    0.2000 c3        1 RSX     -0.091700
     14 C9          2.8660    4.8080    0.2950 c3        1 RSX     -0.028400
     15 C8          2.8950    5.4550   -1.0700 c3        1 RSX     -0.148400
     16 C7          4.1820    5.0310   -1.7720 c3        1 RSX      0.216800
     17 N1          4.2760    3.6120   -2.0230 n3        1 RSX     -0.862200
     18 H4          3.6570    1.1410   -2.3170 hc        1 RSX      0.034700
     19 H4A         3.9630    0.6200   -0.6040 hc        1 RSX      0.034700
     20 H5          5.0260    2.6600   -0.3310 h1        1 RSX     -0.039300
     21 H2          0.9920    3.3230   -0.6790 hc        1 RSX      0.017700
     22 H2A         1.1530    2.3210    0.8220 hc        1 RSX      0.017700
     23 H1          3.3410    2.9150    1.2010 hc        1 RSX      0.044700
     24 H9          1.9060    5.0630    0.8180 hc        1 RSX     -0.037300
     25 H9A         3.6960    5.2350    0.9270 hc        1 RSX     -0.037300
     26 H8          2.0280    5.0440   -1.6850 hc        1 RSX      0.051200
     27 H8A         2.8330    6.5720   -0.9900 hc        1 RSX      0.051200
     28 H7          5.0700    5.3620   -1.1520 h1        1 RSX     -0.045800
     29 H7A         4.2610    5.5730   -2.7590 h1        1 RSX     -0.045800
     30 HN1         3.5160    3.3670   -2.6920 hn        1 RSX      0.456800
@<TRIPOS>BOND
     1    1    2 1   
     2    2    3 1   
     3    2    4 1   
     4    2    5 1   
     5    5    6 1   
     6    5   10 1   
     7    5   12 1   
     8    6    7 1   
     9    6    8 1   
    10    6    9 1   
    11   10   11 1   
    12   10   18 1   
    13   10   19 1   
    14   11   13 1   
    15   11   17 1   
    16   11   20 1   
    17   12   13 1   
    18   12   21 1   
    19   12   22 1   
    20   13   14 1   
    21   13   23 1   
    22   14   15 1   
    23   14   24 1   
    24   14   25 1   
    25   15   16 1   
    26   15   26 1   
    27   15   27 1   
    28   16   17 1   
    29   16   28 1   
    30   16   29 1   
    31   17   30 1   
@<TRIPOS>SUBSTRUCTURE
     1 RSX         1 TEMP              0 ****  ****    0 ROOT
