@<TRIPOS>MOLECULE
RSX
   30    31     1     0     0
SMALL
bcc


@<TRIPOS>ATOM
      1 O1          0.4020    0.0780    0.9810 o         1 RSX     -0.982000
      2 P1          1.7720    0.0080    0.3290 p5        1 RSX      1.258200
      3 O3          2.8390    0.3510    1.3710 o         1 RSX     -0.982000
      4 O2          2.0650   -1.3490   -0.2830 o         1 RSX     -0.982000
      5 C3          1.9470    1.4020   -0.9840 c3        1 RSX     -0.394400
      6 P2          1.2060    1.7930   -2.6140 p5        1 RSX      1.258200
      7 O5          1.8560    0.9440   -3.6980 o         1 RSX     -0.982000
      8 O4         -0.3080    1.6910   -2.6190 o         1 RSX     -0.982000
      9 O6          1.5990    3.2660   -2.8780 o         1 RSX     -0.982000
     10 C4          3.4250    1.3780   -1.2460 c3        1 RSX     -0.008400
     11 C5          4.0260    2.7720   -0.8500 c3        1 RSX      0.177500
     12 C2          1.6660    2.6070   -0.1350 c3        1 RSX      0.011600
     13 C1          3.0100    3.2970    0.1980 c3        1 RSX     -0.091700
     14 C9          2.8860    4.8060    0.2960 c3        1 RSX     -0.028400
     15 C8          2.9120    5.4540   -1.0680 c3        1 RSX     -0.148400
     16 C7          4.1920    5.0230   -1.7780 c3        1 RSX      0.216800
     17 N1          4.2740    3.6030   -2.0320 n3        1 RSX     -0.862200
     18 H4          3.6370    1.1370   -2.3240 hc        1 RSX      0.034700
     19 H4A         3.9490    0.6120   -0.6140 hc        1 RSX      0.034700
     20 H5          5.0280    2.6440   -0.3440 h1        1 RSX     -0.039300
     21 H2          1.1590    2.3300    0.8300 hc        1 RSX      0.017700
     22 H2A         0.9960    3.3350   -0.6690 hc        1 RSX      0.017700
     23 H1          3.3530    2.9090    1.1980 hc        1 RSX      0.044700
     24 H9          1.9310    5.0670    0.8250 hc        1 RSX     -0.037300
     25 H9A         3.7230    5.2270    0.9240 hc        1 RSX     -0.037300
     26 H8          2.0380    5.0500   -1.6780 hc        1 RSX      0.051200
     27 H8A         2.8570    6.5710   -0.9870 hc        1 RSX      0.051200
     28 H7          5.0850    5.3460   -1.1620 h1        1 RSX     -0.045800
     29 H7A         4.2690    5.5650   -2.7650 h1        1 RSX     -0.045800
     30 HN1         3.5080    3.3640   -2.6960 hn        1 RSX      0.456800
@<TRIPOS>BOND
     1    1    2 1   
     2    2    3 1   
     3    2    4 1   
     4    2    5 1   
     5    5    6 1   
     6    5   10 1   
     7    5   12 1   
     8    6    7 1   
     9    6    8 1   
    10    6    9 1   
    11   10   11 1   
    12   10   18 1   
    13   10   19 1   
    14   11   13 1   
    15   11   17 1   
    16   11   20 1   
    17   12   13 1   
    18   12   21 1   
    19   12   22 1   
    20   13   14 1   
    21   13   23 1   
    22   14   15 1   
    23   14   24 1   
    24   14   25 1   
    25   15   16 1   
    26   15   26 1   
    27   15   27 1   
    28   16   17 1   
    29   16   28 1   
    30   16   29 1   
    31   17   30 1   
@<TRIPOS>SUBSTRUCTURE
     1 RSX         1 TEMP              0 ****  ****    0 ROOT
