@<TRIPOS>MOLECULE
RSY
   87    88     1     0     0
SMALL
bcc


@<TRIPOS>ATOM
      1 C39        -3.3550   -3.8760    0.6250 ca        1 RSY      0.351800
      2 C43        -2.4500   -5.6760   -0.4960 ca        1 RSY      0.392200
      3 C42        -2.9440   -6.5880    0.4580 ca        1 RSY     -0.222300
      4 C37        -3.5960   -2.3940    0.7760 c         1 RSY      0.570600
      5 C41        -3.6710   -6.0890    1.5360 ca        1 RSY     -0.103000
      6 C40        -3.8840   -4.7110    1.6300 ca        1 RSY     -0.187300
      7 O38        -3.8980   -1.9270    1.8940 o         1 RSY     -0.616100
      8 N44        -2.6440   -4.3500   -0.4290 nb        1 RSY     -0.652000
      9 N36        -3.5400   -1.5990   -0.3500 n         1 RSY     -0.528900
     10 C32        -3.6770   -0.1690   -0.2630 c3        1 RSY      0.037700
     11 C33        -4.5120    0.4450   -1.4120 c3        1 RSY     -0.065700
     12 C34        -4.0560   -0.0150   -2.7790 c3        1 RSY     -0.098600
     13 C35        -5.9810    0.1460   -1.2090 c3        1 RSY     -0.098600
     14 C30        -2.2910    0.5300   -0.2760 c         1 RSY      0.630100
     15 O31        -1.3870    0.1670   -1.0570 o         1 RSY     -0.618100
     16 N29        -2.0880    1.5400    0.6420 n         1 RSY     -0.556900
     17 C21        -0.9190    2.3910    0.6020 c3        1 RSY      0.068700
     18 C22        -1.2440    3.8610    0.9290 c3        1 RSY     -0.055100
     19 C23        -2.3510    4.4060    0.1020 ca        1 RSY     -0.088300
     20 C28        -2.1210    4.7860   -1.2260 ca        1 RSY     -0.129000
     21 C24        -3.6310    4.5600    0.6470 ca        1 RSY     -0.129000
     22 C27        -3.1560    5.3120   -1.9960 ca        1 RSY     -0.126500
     23 C25        -4.6650    5.0880   -0.1260 ca        1 RSY     -0.126500
     24 C26        -4.4300    5.4640   -1.4480 ca        1 RSY     -0.129000
     25 C19         0.1980    1.9350    1.5840 c3        1 RSY      0.136100
     26 O20        -0.2370    1.9760    2.9290 oh        1 RSY     -0.590800
     27 C18         0.7290    0.5540    1.2040 c3        1 RSY     -0.187400
     28 C16         2.2070    0.4370    1.5100 c         1 RSY      0.676100
     29 O17         3.0020    1.3830    1.3170 o         1 RSY     -0.630100
     30 C10         4.9730   -1.3490    1.2060 c         1 RSY      0.645100
     31 N15         2.6760   -0.7840    1.9560 n         1 RSY     -0.565900
     32 C12         4.0370   -0.9650    2.3870 c3        1 RSY      0.035700
     33 C13         4.1930   -2.0550    3.4540 c3        1 RSY      0.023000
     34 N09         5.1470   -0.4100    0.2250 n         1 RSY     -0.547900
     35 C05         5.9530   -0.6560   -0.9460 c3        1 RSY      0.038700
     36 C06         7.4560   -0.3820   -0.6710 c         1 RSY      0.636100
     37 O07         8.0740    0.5310   -1.2530 o         1 RSY     -0.619100
     38 C04         5.5290    0.1860   -2.1560 c3        1 RSY     -0.081400
     39 C02         4.1740   -0.2110   -2.7210 c3        1 RSY     -0.068700
     40 C01         3.6700    0.8820   -3.6430 c3        1 RSY     -0.092100
     41 C03         4.2450   -1.5260   -3.4680 c3        1 RSY     -0.092100
     42 N08         8.0850   -1.1960    0.2300 n         1 RSY     -0.670000
     43 H43        -1.8640   -6.0280   -1.3650 h4        1 RSY      0.029100
     44 H42        -2.7520   -7.6640    0.3470 ha        1 RSY      0.149000
     45 H41        -4.0730   -6.7650    2.3050 ha        1 RSY      0.147000
     46 H40        -4.4420   -4.2680    2.4700 ha        1 RSY      0.171000
     47 HN36       -3.1240   -1.9480   -1.1860 hn        1 RSY      0.342500
     48 H32        -4.2100    0.0620    0.7110 h1        1 RSY      0.096700
     49 H33        -4.3620    1.5610   -1.3440 hc        1 RSY      0.058700
     50 H34        -4.3860   -1.0630   -2.9820 hc        1 RSY      0.044200
     51 H34A       -4.4970    0.6430   -3.5660 hc        1 RSY      0.044200
     52 H34B       -2.9410    0.0300   -2.8570 hc        1 RSY      0.044200
     53 H35        -6.3310    0.5370   -0.2240 hc        1 RSY      0.044200
     54 H35A       -6.5810    0.6300   -2.0170 hc        1 RSY      0.044200
     55 H35B       -6.1710   -0.9540   -1.2400 hc        1 RSY      0.044200
     56 HN29       -2.8690    1.8890    1.1480 hn        1 RSY      0.315500
     57 H21        -0.4810    2.3410   -0.4430 h1        1 RSY      0.083700
     58 H22        -1.4890    3.9450    2.0230 hc        1 RSY      0.070700
     59 H22A       -0.3090    4.4580    0.7500 hc        1 RSY      0.070700
     60 H28        -1.1160    4.6700   -1.6590 ha        1 RSY      0.133500
     61 H24        -3.8190    4.2760    1.6930 ha        1 RSY      0.133500
     62 H27        -2.9670    5.6110   -3.0380 ha        1 RSY      0.134000
     63 H25        -5.6670    5.2120    0.3120 ha        1 RSY      0.134000
     64 H26        -5.2450    5.8830   -2.0550 ha        1 RSY      0.134000
     65 H19         1.0320    2.6970    1.5420 h1        1 RSY      0.110700
     66 HO20       -0.9240    1.3080    3.0420 ho        1 RSY      0.404000
     67 H18         0.6050    0.3890    0.0960 hc        1 RSY      0.091700
     68 H18A        0.1310   -0.2340    1.7300 hc        1 RSY      0.091700
     69 HN15        2.0380   -1.5230    2.1350 hn        1 RSY      0.325500
     70 H12         4.4140    0.0200    2.8070 h1        1 RSY      0.103700
     71 H13         3.9000   -3.0570    3.0560 h1        1 RSY      0.090200
     72 H13A        5.2590   -2.0880    3.7860 h1        1 RSY      0.090200
     73 HN09        4.7020    0.4800    0.3040 hn        1 RSY      0.351500
     74 H05         5.8590   -1.7550   -1.2140 h1        1 RSY      0.084700
     75 H04         6.3170    0.0620   -2.9460 hc        1 RSY      0.070200
     76 H04A        5.5220    1.2720   -1.8730 hc        1 RSY      0.070200
     77 H02         3.4370   -0.3220   -1.8760 hc        1 RSY      0.049700
     78 H01         2.6790    0.5980   -4.0720 hc        1 RSY      0.035700
     79 H01A        3.5520    1.8420   -3.0850 hc        1 RSY      0.035700
     80 H01B        4.3860    1.0460   -4.4840 hc        1 RSY      0.035700
     81 H03         4.9810   -1.4630   -4.3060 hc        1 RSY      0.035700
     82 H03A        4.5560   -2.3540   -2.7860 hc        1 RSY      0.035700
     83 H03B        3.2450   -1.7800   -3.8940 hc        1 RSY      0.035700
     84 HN08        7.6020   -1.9430    0.6680 hn        1 RSY      0.321500
     85 HN0A        9.0470   -1.0670    0.4180 hn        1 RSY      0.321500
     86 O11         5.5460   -2.4600    1.1830 o         1 RSY     -0.643100
     87 CL14        3.2080   -1.7350    4.8620 cl        1 RSY     -0.177400
@<TRIPOS>BOND
     1    1    4 1   
     2    1    6 ar  
     3    1    8 ar  
     4    2    3 ar  
     5    2    8 ar  
     6    2   43 1   
     7    3    5 ar  
     8    3   44 1   
     9    4    7 2   
    10    4    9 1   
    11    5    6 ar  
    12    5   45 1   
    13    6   46 1   
    14    9   10 1   
    15    9   47 1   
    16   10   11 1   
    17   10   14 1   
    18   10   48 1   
    19   11   12 1   
    20   11   13 1   
    21   11   49 1   
    22   12   50 1   
    23   12   51 1   
    24   12   52 1   
    25   13   53 1   
    26   13   54 1   
    27   13   55 1   
    28   14   15 2   
    29   14   16 1   
    30   16   17 1   
    31   16   56 1   
    32   17   18 1   
    33   17   25 1   
    34   17   57 1   
    35   18   19 1   
    36   18   58 1   
    37   18   59 1   
    38   19   20 ar  
    39   19   21 ar  
    40   20   22 ar  
    41   20   60 1   
    42   21   23 ar  
    43   21   61 1   
    44   22   24 ar  
    45   22   62 1   
    46   23   24 ar  
    47   23   63 1   
    48   24   64 1   
    49   25   26 1   
    50   25   27 1   
    51   25   65 1   
    52   26   66 1   
    53   27   28 1   
    54   27   67 1   
    55   27   68 1   
    56   28   29 2   
    57   28   31 1   
    58   30   32 1   
    59   30   34 1   
    60   30   86 2   
    61   31   32 1   
    62   31   69 1   
    63   32   33 1   
    64   32   70 1   
    65   33   71 1   
    66   33   72 1   
    67   33   87 1   
    68   34   35 1   
    69   34   73 1   
    70   35   36 1   
    71   35   38 1   
    72   35   74 1   
    73   36   37 2   
    74   36   42 1   
    75   38   39 1   
    76   38   75 1   
    77   38   76 1   
    78   39   40 1   
    79   39   41 1   
    80   39   77 1   
    81   40   78 1   
    82   40   79 1   
    83   40   80 1   
    84   41   81 1   
    85   41   82 1   
    86   41   83 1   
    87   42   84 1   
    88   42   85 1   
@<TRIPOS>SUBSTRUCTURE
     1 RSY         1 TEMP              0 ****  ****    0 ROOT
