@<TRIPOS>MOLECULE
RSZ
   83    85     1     0     0
SMALL
bcc


@<TRIPOS>ATOM
      1 C10        -5.9280   -1.4430   -1.8990 ca        1 RSZ      0.355800
      2 C06        -6.2880   -1.3990   -4.1760 ca        1 RSZ      0.391200
      3 C07        -7.6510   -1.0810   -4.0100 ca        1 RSZ     -0.225300
      4 C12        -5.0340   -1.6480   -0.7000 c         1 RSZ      0.577600
      5 C08        -8.1460   -0.9470   -2.7140 ca        1 RSZ     -0.103000
      6 C09        -7.2790   -1.1320   -1.6350 ca        1 RSZ     -0.188300
      7 O40        -5.5380   -1.9410    0.4050 o         1 RSZ     -0.616100
      8 N05        -5.4350   -1.5770   -3.1550 nb        1 RSZ     -0.652000
      9 N01        -3.6780   -1.4910   -0.8600 n         1 RSZ     -0.541900
     10 C15        -2.7570   -1.6250    0.2400 c3        1 RSZ      0.044700
     11 C16        -1.8020   -0.4030    0.2840 c         1 RSZ      0.647100
     12 O41        -1.3890    0.1450   -0.7600 o         1 RSZ     -0.633100
     13 C17        -1.9230   -2.9280    0.1820 c3        1 RSZ     -0.079700
     14 C18        -1.0570   -3.0080   -1.0540 c3        1 RSZ     -0.101600
     15 C19        -1.0920   -3.0830    1.4380 c3        1 RSZ     -0.101600
     16 N02        -1.4600    0.0680    1.5320 n         1 RSZ     -0.536900
     17 C22        -0.5070    1.1350    1.7180 c3        1 RSZ      0.109700
     18 C24        -0.7580    1.9130    3.0250 c3        1 RSZ     -0.044100
     19 C25        -2.1140    2.5170    3.0840 ca        1 RSZ     -0.078300
     20 C11        -3.0610    2.0450    4.0000 ca        1 RSZ     -0.123500
     21 C21        -2.4520    3.5800    2.2370 ca        1 RSZ     -0.123500
     22 C13        -4.3270    2.6260    4.0650 ca        1 RSZ     -0.126000
     23 C20        -3.7170    4.1580    2.3030 ca        1 RSZ     -0.126000
     24 C14        -4.6570    3.6830    3.2180 ca        1 RSZ     -0.129000
     25 C23         0.9760    0.6610    1.7330 c3        1 RSZ      0.132100
     26 O42         1.0950   -0.3470    2.7220 oh        1 RSZ     -0.615800
     27 C26         1.3920    0.1400    0.3600 c3        1 RSZ     -0.194400
     28 C28         2.8950   -0.0250    0.2810 c         1 RSZ      0.667100
     29 O43         3.5900   -0.1840    1.3130 o         1 RSZ     -0.656100
     30 N04         3.4740   -0.0330   -0.9670 n         1 RSZ     -0.552900
     31 C31         4.9020   -0.0770   -1.1580 c3        1 RSZ      0.041700
     32 C32         5.4440   -1.5320   -1.1830 c         1 RSZ      0.638100
     33 O44         5.9980   -1.9910   -2.2000 o         1 RSZ     -0.609100
     34 C33         5.3510    0.6160   -2.4560 c3        1 RSZ     -0.044100
     35 C34         4.9100    2.0340   -2.5130 ca        1 RSZ     -0.089300
     36 C27         5.6160    3.0220   -1.8150 ca        1 RSZ     -0.127500
     37 C36         3.7930    2.3970   -3.2740 ca        1 RSZ     -0.127500
     38 C29         5.2070    4.3530   -1.8770 ca        1 RSZ     -0.126000
     39 C35         3.3870    3.7300   -3.3340 ca        1 RSZ     -0.126000
     40 C30         4.0920    4.7090   -2.6350 ca        1 RSZ     -0.128000
     41 N03         5.2500   -2.2810   -0.0430 n         1 RSZ     -0.553900
     42 C37         5.8460   -3.5820    0.1230 c3        1 RSZ      0.163100
     43 C38         6.9550   -3.6300    1.0520 c1        1 RSZ     -0.174100
     44 C39         7.8740   -3.6980    1.8140 c1        1 RSZ     -0.133500
     45 H06        -5.8540   -1.5190   -5.1850 h4        1 RSZ      0.027100
     46 H07        -8.2990   -0.9450   -4.8860 ha        1 RSZ      0.147000
     47 H08        -9.2040   -0.7020   -2.5390 ha        1 RSZ      0.145000
     48 H09        -7.6250   -1.0510   -0.5930 ha        1 RSZ      0.171000
     49 HN01       -3.2880   -1.2480   -1.7430 hn        1 RSZ      0.347500
     50 H15        -3.3690   -1.6610    1.1960 h1        1 RSZ      0.100700
     51 H17        -2.6620   -3.7820    0.1510 hc        1 RSZ      0.067700
     52 H18        -0.4280   -2.0890   -1.1590 hc        1 RSZ      0.042700
     53 H18A       -0.3830   -3.8960   -0.9920 hc        1 RSZ      0.042700
     54 H18B       -1.6850   -3.1080   -1.9720 hc        1 RSZ      0.042700
     55 H19        -0.2350   -2.3650    1.4540 hc        1 RSZ      0.042700
     56 H19A       -1.7160   -2.9180    2.3490 hc        1 RSZ      0.042700
     57 H19B       -0.6730   -4.1190    1.4840 hc        1 RSZ      0.042700
     58 HN02       -1.6400   -0.5030    2.3260 hn        1 RSZ      0.321500
     59 H22        -0.6170    1.8470    0.8440 h1        1 RSZ      0.083700
     60 H24        -0.5880    1.2270    3.8980 hc        1 RSZ      0.063700
     61 H24A        0.0120    2.7290    3.0840 hc        1 RSZ      0.063700
     62 H11        -2.8060    1.2110    4.6710 ha        1 RSZ      0.129500
     63 H21        -1.7130    3.9550    1.5140 ha        1 RSZ      0.129500
     64 H13        -5.0660    2.2470    4.7860 ha        1 RSZ      0.131500
     65 H20        -3.9750    4.9910    1.6330 ha        1 RSZ      0.131500
     66 H14        -5.6560    4.1390    3.2690 ha        1 RSZ      0.131000
     67 H23         1.6270    1.5400    2.0080 h1        1 RSZ      0.051700
     68 HO42        2.0380   -0.5600    2.7890 ho        1 RSZ      0.433000
     69 H26         0.9220   -0.8660    0.1800 hc        1 RSZ      0.093700
     70 H26A        1.0080    0.8350   -0.4330 hc        1 RSZ      0.093700
     71 HN04        2.9140    0.1360   -1.7700 hn        1 RSZ      0.326500
     72 H31         5.3940    0.4470   -0.2800 h1        1 RSZ      0.087700
     73 H33         6.4720    0.5540   -2.4950 hc        1 RSZ      0.078700
     74 H33A        4.9630    0.0420   -3.3410 hc        1 RSZ      0.078700
     75 H27         6.4970    2.7430   -1.2180 ha        1 RSZ      0.132000
     76 H36         3.2390    1.6300   -3.8340 ha        1 RSZ      0.132000
     77 H29         5.7680    5.1240   -1.3270 ha        1 RSZ      0.134000
     78 H35         2.5090    4.0080   -3.9370 ha        1 RSZ      0.134000
     79 H30         3.7720    5.7600   -2.6850 ha        1 RSZ      0.133000
     80 HN03        4.9260   -1.8210    0.7810 hn        1 RSZ      0.336500
     81 H37         5.0400   -4.2840    0.4970 h1        1 RSZ      0.080700
     82 H37A        6.1990   -3.9550   -0.8870 h1        1 RSZ      0.080700
     83 H39         8.6900   -3.7650    2.4880 ha        1 RSZ      0.165500
@<TRIPOS>BOND
     1    1    4 1   
     2    1    6 ar  
     3    1    8 ar  
     4    2    3 ar  
     5    2    8 ar  
     6    2   45 1   
     7    3    5 ar  
     8    3   46 1   
     9    4    7 2   
    10    4    9 1   
    11    5    6 ar  
    12    5   47 1   
    13    6   48 1   
    14    9   10 1   
    15    9   49 1   
    16   10   11 1   
    17   10   13 1   
    18   10   50 1   
    19   11   12 2   
    20   11   16 1   
    21   13   14 1   
    22   13   15 1   
    23   13   51 1   
    24   14   52 1   
    25   14   53 1   
    26   14   54 1   
    27   15   55 1   
    28   15   56 1   
    29   15   57 1   
    30   16   17 1   
    31   16   58 1   
    32   17   18 1   
    33   17   25 1   
    34   17   59 1   
    35   18   19 1   
    36   18   60 1   
    37   18   61 1   
    38   19   20 ar  
    39   19   21 ar  
    40   20   22 ar  
    41   20   62 1   
    42   21   23 ar  
    43   21   63 1   
    44   22   24 ar  
    45   22   64 1   
    46   23   24 ar  
    47   23   65 1   
    48   24   66 1   
    49   25   26 1   
    50   25   27 1   
    51   25   67 1   
    52   26   68 1   
    53   27   28 1   
    54   27   69 1   
    55   27   70 1   
    56   28   29 2   
    57   28   30 1   
    58   30   31 1   
    59   30   71 1   
    60   31   32 1   
    61   31   34 1   
    62   31   72 1   
    63   32   33 2   
    64   32   41 1   
    65   34   35 1   
    66   34   73 1   
    67   34   74 1   
    68   35   36 ar  
    69   35   37 ar  
    70   36   38 ar  
    71   36   75 1   
    72   37   39 ar  
    73   37   76 1   
    74   38   40 ar  
    75   38   77 1   
    76   39   40 ar  
    77   39   78 1   
    78   40   79 1   
    79   41   42 1   
    80   41   80 1   
    81   42   43 1   
    82   42   81 1   
    83   42   82 1   
    84   43   44 3   
    85   44   83 1   
@<TRIPOS>SUBSTRUCTURE
     1 RSZ         1 TEMP              0 ****  ****    0 ROOT
