@<TRIPOS>MOLECULE
RT
   35    36     1     0     0
SMALL
bcc


@<TRIPOS>ATOM
      1 OP3         2.7930   -0.6910   -5.2740 oh        1 RT      -0.780400
      2 P           3.4730   -1.2620   -3.8990 p5        1 RT       1.427800
      3 OP1         4.8140   -1.6930   -4.3530 o         1 RT      -0.843500
      4 OP2         2.4850   -2.0670   -3.1530 o         1 RT      -0.843500
      5 O5'         3.6570    0.1770   -3.1180 os        1 RT      -0.586200
      6 C5'         2.5480    0.6890   -2.4400 c3        1 RT       0.179400
      7 C4'         2.8370    0.7390   -0.9320 c3        1 RT       0.085100
      8 O4'         2.3690    1.9880   -0.3890 os        1 RT      -0.401600
      9 C3'         2.1730   -0.4110   -0.1460 c3        1 RT       0.111100
     10 O3'         3.0590   -0.9590    0.8110 oh        1 RT      -0.590800
     11 C2'         0.9430    0.2490    0.5070 c3        1 RT       0.069100
     12 O2'         0.8110   -0.2220    1.8360 oh        1 RT      -0.621800
     13 C1'         1.2700    1.7790    0.5060 c3        1 RT       0.301500
     14 N1          0.1230    2.6310    0.2310 n         1 RT      -0.325400
     15 C2         -0.6490    2.9780    1.3750 c         1 RT       0.701100
     16 O2         -0.4440    2.4860    2.5260 o         1 RT      -0.745100
     17 N3         -1.6980    3.8840    1.2080 n         1 RT      -0.587500
     18 C4         -2.0410    4.4300   -0.0600 c         1 RT       0.673300
     19 O4         -3.0050    5.2390   -0.0580 o         1 RT      -0.721100
     20 C5         -1.2460    3.9840   -1.1760 ce        1 RT      -0.509500
     21 C5M        -1.5920    4.4950   -2.5140 c3        1 RT       0.043100
     22 C6         -0.1830    3.1000   -1.0200 c1        1 RT      -0.032900
     23 H5'         2.3700    1.7440   -2.7940 h1        1 RT       0.053200
     24 H5''        1.6380    0.0630   -2.6500 h1        1 RT       0.053200
     25 H4'         3.9490    0.7450   -0.7620 h1        1 RT       0.073700
     26 H3'         1.9050   -1.2730   -0.8200 h1        1 RT       0.142700
     27 HO3'        3.0940   -0.3410    1.5520 ho        1 RT       0.391000
     28 H2'         0.0140    0.0150   -0.0750 h1        1 RT       0.072700
     29 HO2'        0.2280    0.4060    2.2910 ho        1 RT       0.430000
     30 H1'         1.6660    2.0650    1.5330 h2        1 RT       0.054700
     31 H3         -2.2310    4.1240    2.0100 hn        1 RT       0.300500
     32 H71        -0.9130    4.0560   -3.2850 hc        1 RT       0.002700
     33 H72        -1.5020    5.6100   -2.5510 hc        1 RT       0.002700
     34 H73        -2.6500    4.2370   -2.7790 hc        1 RT       0.002700
     35 H6          3.4530   -0.4410   -5.9090 ho        1 RT       0.417000
@<TRIPOS>BOND
     1    1    2 1   
     2    1   35 1   
     3    2    3 1   
     4    2    4 1   
     5    2    5 1   
     6    5    6 1   
     7    6    7 1   
     8    6   23 1   
     9    6   24 1   
    10    7    8 1   
    11    7    9 1   
    12    7   25 1   
    13    8   13 1   
    14    9   10 1   
    15    9   11 1   
    16    9   26 1   
    17   10   27 1   
    18   11   12 1   
    19   11   13 1   
    20   11   28 1   
    21   12   29 1   
    22   13   14 1   
    23   13   30 1   
    24   14   15 1   
    25   14   22 2   
    26   15   16 2   
    27   15   17 1   
    28   17   18 1   
    29   17   31 1   
    30   18   19 2   
    31   18   20 1   
    32   20   21 1   
    33   20   22 2   
    34   21   32 1   
    35   21   33 1   
    36   21   34 1   
@<TRIPOS>SUBSTRUCTURE
     1 RT          1 TEMP              0 ****  ****    0 ROOT
