@<TRIPOS>MOLECULE
RT0
   32    30     1     0     0
SMALL
bcc


@<TRIPOS>ATOM
      1 F35        -7.0280   -0.1130   -0.0030 f         1 RT0     -0.126000
      2 C32        -5.6830   -0.1950   -0.0180 c2        1 RT0      0.057000
      3 C31        -4.9580    0.0610    1.1440 c2        1 RT0     -0.162000
      4 C30        -3.5680    0.0320    1.1160 c1        1 RT0     -0.104000
      5 C33        -5.0170   -0.4800   -1.2060 c1        1 RT0     -0.175000
      6 C34        -3.6300   -0.5080   -1.2340 c1        1 RT0     -0.104000
      7 C29        -2.9030   -0.2520   -0.0710 c1        1 RT0      0.030000
      8 C27        -1.3630   -0.3630   -0.0840 c2        1 RT0     -0.201000
      9 N26        -0.6500   -1.4700    0.1670 n2        1 RT0     -0.103000
     10 N25         0.6730   -1.1520    0.0610 n2        1 RT0     -0.040000
     11 C28        -0.4790    0.6630   -0.3500 c1        1 RT0     -0.057000
     12 N24         0.7650    0.1710   -0.2590 n2        1 RT0     -0.156000
     13 C22         2.0840    0.9720   -0.4840 c2        1 RT0      0.039000
     14 C21         2.7880    0.4100   -1.3840 c3        1 RT0     -0.094000
     15 C23         2.9190    0.9500    0.7640 c3        1 RT0     -0.177000
     16 C8          4.1900   -0.0540    0.4720 c3        1 RT0     -0.118000
     17 C6          4.3900   -0.9760    1.6010 c2        1 RT0      0.359000
     18 O7          4.3450   -2.2330    1.4130 o         1 RT0     -0.567000
     19 N9          3.7580   -0.6260   -0.6520 n3        1 RT0     -0.267000
     20 H31        -5.4280    0.2410    1.9840 ha        1 RT0      0.143000
     21 H33        -5.5270   -0.5740   -2.0430 ha        1 RT0      0.132000
     22 H30        -3.0600    0.2120    1.9300 ha        1 RT0      0.172000
     23 H34        -3.1570   -0.7100   -2.0760 ha        1 RT0      0.148000
     24 H28        -0.7180    1.5880   -0.5680 DU        1 RT0      0.280000
     25 H22         1.8800    1.8980   -0.7400 ha        1 RT0      0.104000
     26 H211        3.3210    1.0880   -1.8660 h1        1 RT0      0.069000
     27 H212        2.2110   -0.0610   -2.0070 h1        1 RT0      0.069000
     28 H231        3.2470    1.8570    0.9650 hc        1 RT0      0.103000
     29 H232        2.3950    0.6140    1.5070 hc        1 RT0      0.103000
     30 H8          5.0840    0.3410    0.3700 h1        1 RT0      0.063000
     31 H1          4.4730   -0.8110   -1.1960 hn        1 RT0      0.147000
     32 OXT         4.6450   -0.5200    2.7480 o         1 RT0     -0.567000
@<TRIPOS>BOND
     1    1    2 1   
     2    2    3 1   
     3    2    5 1   
     4    3    4 1   
     5    3   20 1   
     6    4   22 1   
     7    5   21 1   
     8    6    7 1   
     9    6   23 1   
    10    7    8 1   
    11    8    9 1   
    12    8   11 1   
    13    9   10 1   
    14   10   12 1   
    15   11   12 1   
    16   13   14 1   
    17   13   15 1   
    18   13   25 1   
    19   14   19 1   
    20   14   26 1   
    21   14   27 1   
    22   15   16 1   
    23   15   28 1   
    24   15   29 1   
    25   16   17 1   
    26   16   19 1   
    27   16   30 1   
    28   17   18 1   
    29   17   32 1   
    30   19   31 1   
@<TRIPOS>SUBSTRUCTURE
     1 RT0         1 TEMP              0 ****  ****    0 ROOT
