@<TRIPOS>MOLECULE
RT0
   32    34     1     0     0
SMALL
bcc


@<TRIPOS>ATOM
      1 F35        -5.7800   -2.2230    0.4960 f         1 RT0     -0.159900
      2 C32        -4.6710   -1.4510    0.3630 ca        1 RT0      0.094900
      3 C31        -4.7970   -0.0540    0.2700 ca        1 RT0     -0.168500
      4 C30        -3.6580    0.7320    0.1330 ca        1 RT0     -0.102500
      5 C33        -3.3990   -2.0500    0.3170 ca        1 RT0     -0.168500
      6 C34        -2.2690   -1.2540    0.1790 ca        1 RT0     -0.102500
      7 C29        -2.3840    0.1450    0.0850 ca        1 RT0     -0.082500
      8 C27        -1.1930    0.9460   -0.0590 cc        1 RT0      0.246800
      9 N26        -1.1500    2.3630   -0.1510 nc        1 RT0     -0.367000
     10 N25         0.0520    2.7490   -0.2700 nd        1 RT0     -0.203800
     11 C28         0.1500    0.5010   -0.1360 cd        1 RT0     -0.169600
     12 N24         0.8890    1.6780   -0.2640 na        1 RT0      0.058400
     13 C22         2.3380    1.7390   -0.4140 c3        1 RT0      0.029000
     14 C21         2.8230    1.2260   -1.8100 c3        1 RT0      0.139800
     15 C23         3.0940    0.8290    0.5800 c3        1 RT0     -0.093400
     16 C8          3.6190   -0.3640   -0.2460 c3        1 RT0      0.017500
     17 C6          2.9740   -1.6790    0.2950 c         1 RT0      0.908600
     18 O7          1.8720   -2.0530   -0.2120 o         1 RT0     -0.831800
     19 N9          3.3650   -0.1150   -1.6710 n3        1 RT0     -0.791200
     20 H31        -5.7930    0.4060    0.3080 ha        1 RT0      0.138500
     21 H33        -3.3060   -3.1430    0.3910 ha        1 RT0      0.138500
     22 H30        -3.7630    1.8250    0.0620 ha        1 RT0      0.160000
     23 H34        -1.2700   -1.7250    0.1440 ha        1 RT0      0.160000
     24 H28         0.6180   -0.5020   -0.1140 h4        1 RT0      0.271000
     25 H22         2.6480    2.8130   -0.2780 h1        1 RT0      0.071700
     26 H211        2.0160    1.2760   -2.5870 h1        1 RT0      0.042700
     27 H212        3.6600    1.9030   -2.1380 h1        1 RT0      0.042700
     28 H231        3.9450    1.4050    1.0180 hc        1 RT0      0.057700
     29 H232        2.4530    0.4690    1.4210 hc        1 RT0      0.057700
     30 H8          4.7330   -0.4500   -0.1190 h1        1 RT0      0.063700
     31 H1          2.6990   -0.7960   -2.0010 hn        1 RT0      0.373800
     32 OXT         3.5770   -2.2780    1.2190 o         1 RT0     -0.831800
@<TRIPOS>BOND
     1    1    2 1   
     2    2    3 ar  
     3    2    5 ar  
     4    3    4 ar  
     5    3   20 1   
     6    4    7 ar  
     7    4   22 1   
     8    5    6 ar  
     9    5   21 1   
    10    6    7 ar  
    11    6   23 1   
    12    7    8 1   
    13    8    9 1   
    14    8   11 2   
    15    9   10 2   
    16   10   12 1   
    17   11   12 1   
    18   11   24 1   
    19   12   13 1   
    20   13   14 1   
    21   13   15 1   
    22   13   25 1   
    23   14   19 1   
    24   14   26 1   
    25   14   27 1   
    26   15   16 1   
    27   15   28 1   
    28   15   29 1   
    29   16   17 1   
    30   16   19 1   
    31   16   30 1   
    32   17   18 1   
    33   17   32 1   
    34   19   31 1   
@<TRIPOS>SUBSTRUCTURE
     1 RT0         1 TEMP              0 ****  ****    0 ROOT
