@<TRIPOS>MOLECULE
RT1
   35    35     1     0     0
SMALL
bcc


@<TRIPOS>ATOM
      1 C1         -3.5690    0.3040    0.8860 ca        1 RT1     -0.123500
      2 C2         -4.5030   -0.5130    1.5220 ca        1 RT1     -0.134500
      3 C3         -4.6060   -1.8590    1.1760 ca        1 RT1     -0.143000
      4 C4         -3.7700   -2.3900    0.1940 ca        1 RT1     -0.134500
      5 C5         -2.8360   -1.5760   -0.4450 ca        1 RT1     -0.123500
      6 C6         -2.7300   -0.2210   -0.1060 ca        1 RT1     -0.056300
      7 C7         -1.7410    0.6470   -0.7920 c3        1 RT1     -0.046100
      8 C8         -0.3660    0.6440   -0.1230 c3        1 RT1     -0.124700
      9 P1          0.6070    1.6060   -1.0830 p5        1 RT1      1.519100
     10 O1          0.1170    3.1510   -0.9630 oh        1 RT1     -0.794400
     11 O2          0.4030    1.3770   -2.5210 o         1 RT1     -0.914300
     12 N          -0.3760    1.1520    1.2340 n3        1 RT1     -0.905800
     13 C9          2.1270    1.5800   -0.5040 c3        1 RT1     -0.432600
     14 CA          2.7450    0.2020   -0.6530 c3        1 RT1     -0.177700
     15 C11         4.2040    0.2930   -1.0380 c3        1 RT1     -0.063100
     16 C           2.6450   -0.6630    0.6400 c         1 RT1      0.907600
     17 O           2.2910   -0.1070    1.7220 o         1 RT1     -0.834800
     18 H1         -3.4800    1.3650    1.1650 ha        1 RT1      0.139000
     19 H9         -5.1540   -0.0930    2.3010 ha        1 RT1      0.121500
     20 H3         -5.3410   -2.5030    1.6810 ha        1 RT1      0.118000
     21 H4         -3.8420   -3.4540   -0.0740 ha        1 RT1      0.121500
     22 H5         -2.1690   -1.9980   -1.2120 ha        1 RT1      0.139000
     23 H6         -1.5900    0.3070   -1.8550 hc        1 RT1      0.070700
     24 H7         -2.1110    1.7090   -0.8280 hc        1 RT1      0.070700
     25 H8          0.0090   -0.4280   -0.1480 h1        1 RT1      0.093700
     26 HN2        -1.1200    0.7280    1.7570 hn        1 RT1      0.374300
     27 H10        -0.2370    3.4910   -1.7800 ho        1 RT1      0.452000
     28 H11         2.7680    2.3320   -1.0350 hc        1 RT1      0.115200
     29 H12         2.2120    1.8520    0.5880 hc        1 RT1      0.115200
     30 H13         2.1990   -0.3530   -1.4670 hc        1 RT1      0.039700
     31 H14         4.6390   -0.7350   -1.0820 hc        1 RT1      0.024367
     32 H15         4.3250    0.7830   -2.0350 hc        1 RT1      0.024367
     33 H16         4.7690    0.8870   -0.2800 hc        1 RT1      0.024367
     34 H2          0.5020    0.9070    1.6720 hn        1 RT1      0.374300
     35 OXT         2.9130   -1.8880    0.5290 o         1 RT1     -0.834800
@<TRIPOS>BOND
     1    1    2 ar  
     2    1    6 ar  
     3    1   18 1   
     4    2    3 ar  
     5    2   19 1   
     6    3    4 ar  
     7    3   20 1   
     8    4    5 ar  
     9    4   21 1   
    10    5    6 ar  
    11    5   22 1   
    12    6    7 1   
    13    7    8 1   
    14    7   23 1   
    15    7   24 1   
    16    8    9 1   
    17    8   12 1   
    18    8   25 1   
    19    9   10 1   
    20    9   11 2   
    21    9   13 1   
    22   10   27 1   
    23   12   26 1   
    24   12   34 1   
    25   13   14 1   
    26   13   28 1   
    27   13   29 1   
    28   14   15 1   
    29   14   16 1   
    30   14   30 1   
    31   15   31 1   
    32   15   32 1   
    33   15   33 1   
    34   16   17 1   
    35   16   35 1   
@<TRIPOS>SUBSTRUCTURE
     1 RT1         1 TEMP              0 ****  ****    0 ROOT
