@<TRIPOS>MOLECULE
RT1
   35    32     1     0     0
SMALL
bcc


@<TRIPOS>ATOM
      1 C1          2.1710   -1.9630   -1.1320 c1        1 RT1     -0.064500
      2 C2          3.2680   -2.3420   -1.8890 c1        1 RT1     -0.082250
      3 C3          4.5460   -2.2260   -1.3640 c1        1 RT1     -0.082250
      4 C4          4.7260   -1.7300   -0.0820 c1        1 RT1     -0.082250
      5 C5          3.6280   -1.3510    0.6750 c1        1 RT1     -0.082250
      6 C6          2.3510   -1.4670    0.1500 c1        1 RT1     -0.024100
      7 C7          1.1500   -1.0990    0.9930 c3        1 RT1     -0.075300
      8 C8          0.6140    0.2420    0.5480 c3        1 RT1     -0.159700
      9 P1         -1.1540    0.3470    0.9410 p5        1 RT1      1.522100
     10 O1         -1.3380    0.9850    2.3760 oh        1 RT1     -0.796400
     11 O2         -1.7450   -1.0100    0.9250 o         1 RT1     -0.916300
     12 N           1.3120    1.2800    1.2240 n3        1 RT1     -0.891800
     13 C9         -1.9880    1.3850   -0.2930 c3        1 RT1     -0.413600
     14 CA         -3.4870    1.2340   -0.1500 c3        1 RT1     -0.171700
     15 C11        -4.1320    2.6020   -0.1360 c3        1 RT1     -0.064100
     16 C          -4.0270    0.4330   -1.3140 c         1 RT1      0.908600
     17 O          -4.5550   -0.6920   -1.1130 o         1 RT1     -0.838300
     18 H1          1.2700   -2.0570   -1.4970 ha        1 RT1      0.117500
     19 H9          3.1420   -2.6830   -2.7950 ha        1 RT1      0.063500
     20 H3          5.3170   -2.5090   -1.8900 ha        1 RT1      0.063500
     21 H4          5.6250   -1.6480    0.2880 ha        1 RT1      0.063500
     22 H5          3.7540   -1.0170    1.5830 ha        1 RT1      0.063500
     23 H6          0.4550   -1.7790    0.8870 hc        1 RT1      0.069700
     24 H7          1.4150   -1.0480    1.9330 hc        1 RT1      0.069700
     25 H8          0.7390    0.3390   -0.4160 h1        1 RT1      0.136700
     26 HN2         1.9000    1.6800    0.6460 hn        1 RT1      0.365300
     27 H10        -1.7390    0.4000    2.9100 ho        1 RT1      0.451000
     28 H11        -1.7400    2.3210   -0.1540 hc        1 RT1      0.106700
     29 H12        -1.7170    1.1060   -1.1910 hc        1 RT1      0.106700
     30 H13        -3.6890    0.7710    0.6850 hc        1 RT1      0.031700
     31 H14        -3.9250    3.0530    0.7090 hc        1 RT1      0.024700
     32 H15        -5.1040    2.5060   -0.2250 hc        1 RT1      0.024700
     33 H16        -3.7870    3.1340   -0.8830 hc        1 RT1      0.024700
     34 H2          0.7140    1.9020    1.5300 hn        1 RT1      0.365300
     35 OXT        -3.9690    0.9020   -2.4810 o         1 RT1     -0.838300
@<TRIPOS>BOND
     1    1    6 3   
     2    1   18 1   
     3    2    3 3   
     4    2   19 1   
     5    3   20 1   
     6    4    5 3   
     7    4   21 1   
     8    5   22 1   
     9    6    7 1   
    10    7    8 1   
    11    7   23 1   
    12    7   24 1   
    13    8    9 1   
    14    8   12 1   
    15    8   25 1   
    16    9   10 1   
    17    9   11 2   
    18    9   13 1   
    19   10   27 1   
    20   12   26 1   
    21   12   34 1   
    22   13   14 1   
    23   13   28 1   
    24   13   29 1   
    25   14   15 1   
    26   14   16 1   
    27   14   30 1   
    28   15   31 1   
    29   15   32 1   
    30   15   33 1   
    31   16   17 1   
    32   16   35 1   
@<TRIPOS>SUBSTRUCTURE
     1 RT1         1 TEMP              0 ****  ****    0 ROOT
