@<TRIPOS>MOLECULE
RT3
   51    53     1     0     0
SMALL
bcc


@<TRIPOS>ATOM
      1 O30        -0.2240    2.5380   -0.4210 o         1 RT3     -0.532300
      2 S23         1.0630    2.7610    0.0040 sy        1 RT3      1.464200
      3 O26         1.4070    3.3540    1.1940 o         1 RT3     -0.532300
      4 N29         1.6390    0.9910    0.3150 n4        1 RT3     -0.801500
      5 C19         2.0830    3.1560   -1.2240 ca        1 RT3     -0.459500
      6 C20         1.7010    2.9680   -2.5620 ca        1 RT3      0.023000
      7 C21         2.5080    3.4050   -3.6170 ca        1 RT3      0.001400
      8 CL22        1.9970    3.1550   -5.2040 cl        1 RT3      0.025600
      9 C18         3.3020    3.8060   -0.9630 ca        1 RT3      0.018000
     10 C17         4.1190    4.2550   -1.9960 ca        1 RT3     -0.102000
     11 C16         3.7290    4.0600   -3.3330 ca        1 RT3      0.087600
     12 N15         4.5790    4.5470   -4.4130 n4        1 RT3     -0.584200
     13 C14         5.6130    3.5340   -4.9360 c         1 RT3      0.568100
     14 O29         5.7190    2.4980   -4.3080 o         1 RT3     -0.395100
     15 C13         6.3560    3.9810   -6.1570 c3        1 RT3     -0.131300
     16 S12         7.8430    4.8460   -5.8150 ss        1 RT3     -0.119700
     17 C11         7.2210    6.5080   -5.5860 c         1 RT3      0.668700
     18 O28         5.9810    6.6440   -5.3930 o         1 RT3     -0.723100
     19 N2          8.1240    7.5160   -5.6580 n         1 RT3     -0.274000
     20 C1          9.5480    7.2370   -5.8240 c3        1 RT3      0.073000
     21 C3          7.7930    8.8810   -5.3860 ca        1 RT3     -0.014400
     22 C7          6.5200    9.3990   -5.6950 ca        1 RT3     -0.112000
     23 C4          8.7760    9.7360   -4.8300 ca        1 RT3     -0.066300
     24 C5         10.1710    9.2950   -4.5530 c3        1 RT3     -0.048100
     25 C6         10.3810    7.8030   -4.6790 c3        1 RT3     -0.094400
     26 C10         8.4490   11.0700   -4.5750 ca        1 RT3     -0.121000
     27 C9          7.1810   11.5810   -4.8690 ca        1 RT3     -0.039300
     28 C27         6.8680   13.0040   -4.6070 c3        1 RT3     -0.068800
     29 C8          6.2240   10.7320   -5.4350 ca        1 RT3     -0.126000
     30 H129        1.9640    0.8850    1.2800 hn        1 RT3      0.471467
     31 H229        0.8630    0.3350    0.1880 hn        1 RT3      0.471467
     32 H20         0.7280    2.4870   -2.7980 ha        1 RT3      0.206000
     33 H18         3.6170    3.9950    0.0860 ha        1 RT3      0.199000
     34 H17         5.0660    4.7710   -1.7440 ha        1 RT3      0.195000
     35 HN15        5.1040    5.3960   -4.1010 hn        1 RT3      0.498800
     36 H113        5.6930    4.5740   -6.8430 h1        1 RT3      0.157200
     37 H213        6.6760    3.0460   -6.7080 h1        1 RT3      0.157200
     38 H11         9.8700    7.7160   -6.7960 h1        1 RT3      0.080700
     39 H21         9.7290    6.1250   -5.9070 h1        1 RT3      0.080700
     40 H7          5.7490    8.7580   -6.1500 ha        1 RT3      0.149000
     41 H15        10.8520    9.8290   -5.2750 hc        1 RT3      0.077200
     42 H25        10.4700    9.6250   -3.5210 hc        1 RT3      0.077200
     43 H16        11.4610    7.5850   -4.8910 hc        1 RT3      0.068200
     44 H26        10.1180    7.2910   -3.7170 hc        1 RT3      0.068200
     45 H10         9.2150   11.7340   -4.1410 ha        1 RT3      0.155000
     46 H127        7.4200   13.3790   -3.7090 hc        1 RT3      0.061033
     47 H227        7.1730   13.6260   -5.4880 hc        1 RT3      0.061033
     48 H327        5.7730   13.1510   -4.4390 hc        1 RT3      0.061033
     49 H8          5.2270   11.1240   -5.6880 ha        1 RT3      0.150000
     50 H293        2.3950    0.6860   -0.2930 hn        1 RT3      0.471467
     51 H152        3.9980    4.8500   -5.2120 hn        1 RT3      0.498800
@<TRIPOS>BOND
     1    1    2 2   
     2    2    3 2   
     3    2    4 1   
     4    2    5 1   
     5    4   30 1   
     6    4   31 1   
     7    4   50 1   
     8    5    6 ar  
     9    5    9 ar  
    10    6    7 ar  
    11    6   32 1   
    12    7    8 1   
    13    7   11 ar  
    14    9   10 ar  
    15    9   33 1   
    16   10   11 ar  
    17   10   34 1   
    18   11   12 1   
    19   12   13 1   
    20   12   35 1   
    21   12   51 1   
    22   13   14 2   
    23   13   15 1   
    24   15   16 1   
    25   15   36 1   
    26   15   37 1   
    27   16   17 1   
    28   17   18 2   
    29   17   19 1   
    30   19   20 1   
    31   19   21 1   
    32   20   25 1   
    33   20   38 1   
    34   20   39 1   
    35   21   22 ar  
    36   21   23 ar  
    37   22   29 ar  
    38   22   40 1   
    39   23   24 1   
    40   23   26 ar  
    41   24   25 1   
    42   24   41 1   
    43   24   42 1   
    44   25   43 1   
    45   25   44 1   
    46   26   27 ar  
    47   26   45 1   
    48   27   28 1   
    49   27   29 ar  
    50   28   46 1   
    51   28   47 1   
    52   28   48 1   
    53   29   49 1   
@<TRIPOS>SUBSTRUCTURE
     1 RT3         1 TEMP              0 ****  ****    0 ROOT
