@<TRIPOS>MOLECULE
RT3
   49    51     1     0     0
SMALL
bcc


@<TRIPOS>ATOM
      1 O30         4.4880    0.6030   -3.3380 o         1 RT3     -0.659800
      2 S23         4.9930    0.0650   -2.1340 sy        1 RT3      1.533200
      3 O26         5.6230   -1.1970   -2.1920 o         1 RT3     -0.659800
      4 N29         6.0000    1.1210   -1.4720 n3        1 RT3     -1.026700
      5 C19         3.7310   -0.0210   -1.0200 ca        1 RT3     -0.417500
      6 C20         2.6160    0.8150   -1.1300 ca        1 RT3      0.016000
      7 C21         1.5670    0.7410   -0.2210 ca        1 RT3     -0.074600
      8 CL22        0.2460    1.7970   -0.4230 cl        1 RT3     -0.077400
      9 C18         3.7550   -0.9530    0.0240 ca        1 RT3      0.010000
     10 C17         2.7210   -1.0490    0.9430 ca        1 RT3     -0.188000
     11 C16         1.5950   -0.1980    0.8520 ca        1 RT3      0.148600
     12 N15         0.5230   -0.2500    1.7430 n         1 RT3     -0.467100
     13 C14         0.4400   -1.0100    2.9060 c         1 RT3      0.678100
     14 O29         1.3610   -1.7280    3.3300 o         1 RT3     -0.570100
     15 C13        -0.8630   -0.9060    3.6760 c3        1 RT3     -0.115300
     16 S12        -2.1850   -1.8120    2.9450 ss        1 RT3     -0.196700
     17 C11        -2.9130   -0.5880    1.8910 c         1 RT3      0.678700
     18 O28        -2.4090    0.5510    1.8090 o         1 RT3     -0.615100
     19 N2         -4.0730   -0.9630    1.2380 n         1 RT3     -0.340000
     20 C1         -4.4950   -2.3530    1.2190 c3        1 RT3      0.084000
     21 C3         -4.7120   -0.1140    0.2900 ca        1 RT3      0.040600
     22 C7         -4.7390    1.2860    0.4700 ca        1 RT3     -0.120000
     23 C4         -5.3680   -0.6710   -0.8350 ca        1 RT3     -0.095300
     24 C5         -5.4390   -2.1380   -1.0800 c3        1 RT3     -0.036100
     25 C6         -4.5220   -2.9440   -0.1880 c3        1 RT3     -0.099400
     26 C10        -6.0110    0.1740   -1.7440 ca        1 RT3     -0.119000
     27 C9         -6.0250    1.5590   -1.5690 ca        1 RT3     -0.079300
     28 C27        -6.7170    2.4380   -2.5380 c3        1 RT3     -0.052800
     29 C8         -5.3840    2.1030   -0.4500 ca        1 RT3     -0.120000
     30 H129        5.9610    2.0950   -1.6410 hn        1 RT3      0.446800
     31 H229        6.7370    0.8680   -0.8640 hn        1 RT3      0.446800
     32 H20         2.5630    1.5350   -1.9680 ha        1 RT3      0.167000
     33 H18         4.6130   -1.6450    0.1080 ha        1 RT3      0.158000
     34 H17         2.7880   -1.8020    1.7470 ha        1 RT3      0.183000
     35 HN15       -0.2620    0.3410    1.5300 hn        1 RT3      0.356500
     36 H113       -0.7030   -1.3780    4.6820 h1        1 RT3      0.122200
     37 H213       -1.1450    0.1680    3.8260 h1        1 RT3      0.122200
     38 H11        -3.8220   -2.9850    1.8680 h1        1 RT3      0.067700
     39 H21        -5.5350   -2.3940    1.6570 h1        1 RT3      0.067700
     40 H7         -4.2380    1.7460    1.3370 ha        1 RT3      0.160000
     41 H15        -6.5020   -2.4690   -0.9170 hc        1 RT3      0.057200
     42 H25        -5.1900   -2.3500   -2.1550 hc        1 RT3      0.057200
     43 H16        -3.4860   -2.9650   -0.6170 hc        1 RT3      0.059700
     44 H26        -4.8820   -4.0030   -0.1230 hc        1 RT3      0.059700
     45 H10        -6.5130   -0.2690   -2.6190 ha        1 RT3      0.134000
     46 H127       -7.7450    2.6810   -2.1670 hc        1 RT3      0.046033
     47 H227       -6.1580    3.3970   -2.6730 hc        1 RT3      0.046033
     48 H327       -6.8130    1.9420   -3.5350 hc        1 RT3      0.046033
     49 H8         -5.3880    3.1920   -0.2950 ha        1 RT3      0.137000
@<TRIPOS>BOND
     1    1    2 2   
     2    2    3 2   
     3    2    4 1   
     4    2    5 1   
     5    4   30 1   
     6    4   31 1   
     7    5    6 ar  
     8    5    9 ar  
     9    6    7 ar  
    10    6   32 1   
    11    7    8 1   
    12    7   11 ar  
    13    9   10 ar  
    14    9   33 1   
    15   10   11 ar  
    16   10   34 1   
    17   11   12 1   
    18   12   13 1   
    19   12   35 1   
    20   13   14 2   
    21   13   15 1   
    22   15   16 1   
    23   15   36 1   
    24   15   37 1   
    25   16   17 1   
    26   17   18 2   
    27   17   19 1   
    28   19   20 1   
    29   19   21 1   
    30   20   25 1   
    31   20   38 1   
    32   20   39 1   
    33   21   22 ar  
    34   21   23 ar  
    35   22   29 ar  
    36   22   40 1   
    37   23   24 1   
    38   23   26 ar  
    39   24   25 1   
    40   24   41 1   
    41   24   42 1   
    42   25   43 1   
    43   25   44 1   
    44   26   27 ar  
    45   26   45 1   
    46   27   28 1   
    47   27   29 ar  
    48   28   46 1   
    49   28   47 1   
    50   28   48 1   
    51   29   49 1   
@<TRIPOS>SUBSTRUCTURE
     1 RT3         1 TEMP              0 ****  ****    0 ROOT
