@<TRIPOS>MOLECULE
RT3
   50    52     1     0     0
SMALL
bcc


@<TRIPOS>ATOM
      1 O30         1.7410    4.0040    1.1510 o         1 RT3     -0.578300
      2 S23         2.2530    2.9020    0.4990 sy        1 RT3      1.515200
      3 O26         2.6600    1.7830    1.1940 o         1 RT3     -0.578300
      4 N29         0.5850    2.1960   -0.2410 n4        1 RT3     -0.780500
      5 C19         2.9870    3.1790   -0.8620 ca        1 RT3     -0.641500
      6 C20         2.9130    4.4410   -1.5060 ca        1 RT3      0.047000
      7 C21         3.5990    4.7140   -2.6670 ca        1 RT3     -0.096600
      8 CL22        3.4450    6.2530   -3.3610 cl        1 RT3     -0.017400
      9 C18         3.8290    2.2080   -1.4670 ca        1 RT3      0.045000
     10 C17         4.5240    2.4520   -2.6230 ca        1 RT3     -0.206000
     11 C16         4.4430    3.7170   -3.2840 ca        1 RT3      0.238600
     12 N15         5.1100    4.0160   -4.4390 n         1 RT3     -0.445100
     13 C14         5.9430    3.1570   -5.1980 c         1 RT3      0.681100
     14 O29         6.1090    1.9700   -4.8950 o         1 RT3     -0.526100
     15 C13         6.5900    3.7740   -6.4150 c3        1 RT3     -0.120300
     16 S12         7.9760    4.7900   -6.0450 ss        1 RT3     -0.174700
     17 C11         7.2080    6.3830   -5.8710 c         1 RT3      0.678700
     18 O28         5.9580    6.4670   -5.8630 o         1 RT3     -0.646100
     19 N2          8.0550    7.4610   -5.7920 n         1 RT3     -0.324000
     20 C1          9.4950    7.2730   -5.6860 c3        1 RT3      0.082000
     21 C3          7.5880    8.7840   -5.5430 ca        1 RT3      0.024600
     22 C7          6.3510    9.2300   -6.0520 ca        1 RT3     -0.120000
     23 C4          8.3930    9.6870   -4.8050 ca        1 RT3     -0.086300
     24 C5          9.7450    9.3300   -4.2940 c3        1 RT3     -0.040100
     25 C6         10.0650    7.8560   -4.3960 c3        1 RT3     -0.096400
     26 C10         7.9310   10.9870   -4.5790 ca        1 RT3     -0.120000
     27 C9          6.6980   11.4200   -5.0700 ca        1 RT3     -0.067300
     28 C27         6.2250   12.7970   -4.8040 c3        1 RT3     -0.058800
     29 C8          5.9180   10.5280   -5.8130 ca        1 RT3     -0.123000
     30 H129        0.4280    1.2480    0.0900 hn        1 RT3      0.447800
     31 H229       -0.2000    2.7670    0.0590 hn        1 RT3      0.447800
     32 H20         2.2920    5.2340   -1.0430 ha        1 RT3      0.176000
     33 H18         3.9390    1.2220   -0.9730 ha        1 RT3      0.168000
     34 H17         5.1680    1.6530   -3.0390 ha        1 RT3      0.208000
     35 HN15        5.0120    4.9590   -4.7950 hn        1 RT3      0.380500
     36 H113        6.9950    2.9340   -7.0450 h1        1 RT3      0.135700
     37 H213        5.8290    4.3340   -7.0220 h1        1 RT3      0.135700
     38 H11         9.7620    6.1780   -5.7480 h1        1 RT3      0.072200
     39 H21         9.9670    7.7940   -6.5700 h1        1 RT3      0.072200
     40 H7          5.7130    8.5520   -6.6430 ha        1 RT3      0.157000
     41 H15         9.8390    9.6560   -3.2230 hc        1 RT3      0.064200
     42 H25        10.5050    9.9170   -4.8820 hc        1 RT3      0.064200
     43 H16         9.6530    7.3080   -3.5100 hc        1 RT3      0.060700
     44 H26        11.1760    7.7040   -4.4010 hc        1 RT3      0.060700
     45 H10         8.5620   11.6840   -4.0040 ha        1 RT3      0.142000
     46 H127        7.0840   13.5090   -4.7300 hc        1 RT3      0.051033
     47 H227        5.6620   12.8270   -3.8370 hc        1 RT3      0.051033
     48 H327        5.5430   13.1510   -5.6170 hc        1 RT3      0.051033
     49 H8          4.9500   10.8580   -6.2210 ha        1 RT3      0.141000
     50 H293        0.5960    2.1800   -1.2550 hn        1 RT3      0.447800
@<TRIPOS>BOND
     1    1    2 2   
     2    2    3 2   
     3    2    4 1   
     4    2    5 1   
     5    4   30 1   
     6    4   31 1   
     7    4   50 1   
     8    5    6 ar  
     9    5    9 ar  
    10    6    7 ar  
    11    6   32 1   
    12    7    8 1   
    13    7   11 ar  
    14    9   10 ar  
    15    9   33 1   
    16   10   11 ar  
    17   10   34 1   
    18   11   12 1   
    19   12   13 1   
    20   12   35 1   
    21   13   14 2   
    22   13   15 1   
    23   15   16 1   
    24   15   36 1   
    25   15   37 1   
    26   16   17 1   
    27   17   18 2   
    28   17   19 1   
    29   19   20 1   
    30   19   21 1   
    31   20   25 1   
    32   20   38 1   
    33   20   39 1   
    34   21   22 ar  
    35   21   23 ar  
    36   22   29 ar  
    37   22   40 1   
    38   23   24 1   
    39   23   26 ar  
    40   24   25 1   
    41   24   41 1   
    42   24   42 1   
    43   25   43 1   
    44   25   44 1   
    45   26   27 ar  
    46   26   45 1   
    47   27   28 1   
    48   27   29 ar  
    49   28   46 1   
    50   28   47 1   
    51   28   48 1   
    52   29   49 1   
@<TRIPOS>SUBSTRUCTURE
     1 RT3         1 TEMP              0 ****  ****    0 ROOT
