@<TRIPOS>MOLECULE
RT3
   49    43     1     0     0
SMALL
bcc


@<TRIPOS>ATOM
      1 O30        -3.3910   -5.6300   -4.0780 o         1 RT3     -0.939000
      2 S23        -2.0760   -6.0080   -4.0760 ss        1 RT3      2.872000
      3 O26        -2.1460   -7.2400   -3.3650 o         1 RT3     -0.939000
      4 N29        -1.5090   -6.2370   -5.6290 n2        1 RT3     -0.953000
      5 C19        -1.0770   -4.8350   -3.2300 c1        1 RT3     -0.863000
      6 C20        -1.1200   -3.4920   -3.6000 c1        1 RT3      0.016000
      7 C21        -0.3630   -2.5520   -2.9070 c1        1 RT3     -0.154000
      8 CL22       -0.4720   -0.8770   -3.3260 cl        1 RT3     -0.004000
      9 C18        -0.2720   -5.2420   -2.1600 c1        1 RT3     -0.089000
     10 C17         0.4850   -4.3050   -1.4660 c1        1 RT3     -0.089000
     11 C16         0.4410   -2.9540   -1.8400 c1        1 RT3      0.158000
     12 N15         1.2620   -1.9540   -1.1210 n3        1 RT3     -0.323000
     13 C14         1.9110   -2.3020    0.0690 c1        1 RT3      0.323000
     14 O29         1.8010   -3.4310    0.5170 o         1 RT3     -0.331000
     15 C13         2.7880   -1.2680    0.7950 c2        1 RT3     -0.346000
     16 S12         1.7640    0.0390    1.4320 ss        1 RT3      0.217000
     17 C11         2.0900    1.5740    0.5230 c2        1 RT3      0.174000
     18 O28         3.0410    1.6120   -0.3640 o         1 RT3     -0.384000
     19 N2          1.1750    2.6490    0.6240 n         1 RT3     -0.238000
     20 C1          1.2870    3.7220   -0.2080 c3        1 RT3     -0.039000
     21 C3          0.3370    2.8350    1.9170 c2        1 RT3      0.037000
     22 C7          0.3340    1.8920    2.9550 c2        1 RT3     -0.141000
     23 C4         -0.4260    4.0960    2.0640 c1        1 RT3     -0.076000
     24 C5         -0.4510    5.0630    0.8570 c2        1 RT3     -0.124000
     25 C6          0.1020    4.5860   -0.3340 c3        1 RT3     -0.181000
     26 C10        -1.1360    4.3370    3.2210 c2        1 RT3     -0.116000
     27 C9         -1.1340    3.3580    4.2890 c1        1 RT3     -0.069000
     28 C27        -1.8840    3.6280    5.5580 c3        1 RT3     -0.180000
     29 C8         -0.4010    2.1470    4.1470 c1        1 RT3     -0.112000
     30 H129       -1.0590   -6.9740   -5.8320 hn        1 RT3      0.242000
     31 H229       -1.7360   -5.5980   -6.3270 hn        1 RT3      0.242000
     32 H20        -1.6500   -3.2160   -4.3820 ha        1 RT3      0.167000
     33 H18        -0.2400   -6.2230   -1.8900 ha        1 RT3      0.170500
     34 H17         1.0280   -4.5780   -0.7450 ha        1 RT3      0.170500
     35 HN15        1.4110   -1.0930   -1.5090 hn        1 RT3      0.269000
     36 H113        3.4650   -0.8810    0.1460 h4        1 RT3      0.160500
     37 H213        3.2690   -1.7140    1.5560 h4        1 RT3      0.160500
     38 H11         1.9840    4.2500    0.1120 h1        1 RT3      0.114500
     39 H21         1.4940    3.3880   -1.0820 h1        1 RT3      0.114500
     40 H7          0.8200    1.0870    2.8640 ha        1 RT3      0.154000
     41 H15        -1.3830    5.3040    0.6830 ha        1 RT3      0.097000
     42 H25         0.0490    5.9090    1.1220 ha        1 RT3      0.097000
     43 H16        -0.5980    4.0600   -0.7920 hc        1 RT3      0.098500
     44 H26         0.3810    5.4350   -0.9230 hc        1 RT3      0.098500
     45 H10        -1.6420    5.1280    3.3080 ha        1 RT3      0.137000
     46 H127       -1.2730    3.9350    6.2300 hc        1 RT3      0.086667
     47 H227       -2.3030    2.8280    5.8540 hc        1 RT3      0.086667
     48 H327       -2.5730    4.3240    5.3960 hc        1 RT3      0.086667
     49 H8         -0.4020    1.4200    4.9460 ha        1 RT3      0.139000
@<TRIPOS>BOND
     1    1    2 1   
     2    2    3 1   
     3    4   30 1   
     4    4   31 1   
     5    5    6 1   
     6    6   32 1   
     7    7    8 1   
     8    7   11 1   
     9    9   10 1   
    10    9   33 1   
    11   10   34 1   
    12   11   12 1   
    13   12   13 1   
    14   12   35 1   
    15   13   14 1   
    16   15   16 1   
    17   15   36 1   
    18   15   37 1   
    19   16   17 1   
    20   17   18 1   
    21   17   19 1   
    22   19   20 1   
    23   19   21 1   
    24   20   25 1   
    25   20   38 1   
    26   20   39 1   
    27   21   22 1   
    28   21   23 1   
    29   22   29 1   
    30   22   40 1   
    31   23   26 1   
    32   24   25 1   
    33   24   41 1   
    34   24   42 1   
    35   25   43 1   
    36   25   44 1   
    37   26   27 1   
    38   26   45 1   
    39   27   28 1   
    40   28   46 1   
    41   28   47 1   
    42   28   48 1   
    43   29   49 1   
@<TRIPOS>SUBSTRUCTURE
     1 RT3         1 TEMP              0 ****  ****    0 ROOT
