@<TRIPOS>MOLECULE
RT3
   50    52     1     0     0
SMALL
bcc


@<TRIPOS>ATOM
      1 O30         1.8560    4.0890    1.2820 o         1 RT3     -0.578300
      2 S23         2.3620    2.9760    0.6440 sy        1 RT3      1.515200
      3 O26         2.7900    1.8740    1.3550 o         1 RT3     -0.578300
      4 N29         0.6840    2.2450   -0.0480 nz        1 RT3     -0.780500
      5 C19         3.0670    3.2280   -0.7370 ca        1 RT3     -0.641500
      6 C20         2.9730    4.4750   -1.4060 ca        1 RT3      0.047000
      7 C21         3.6340    4.7270   -2.5860 ca        1 RT3     -0.096600
      8 Cl22        3.4570    6.2490   -3.3100 cl        1 RT3     -0.017400
      9 C18         3.9030    2.2490   -1.3380 ca        1 RT3      0.045000
     10 C17         4.5740    2.4720   -2.5120 ca        1 RT3     -0.206000
     11 C16         4.4710    3.7220   -3.1980 ca        1 RT3      0.238600
     12 N15         5.1140    4.0000   -4.3720 ns        1 RT3     -0.445100
     13 C14         5.9370    3.1290   -5.1290 c         1 RT3      0.681100
     14 O29         6.1170    1.9500   -4.8030 o         1 RT3     -0.526100
     15 C13         6.5560    3.7240   -6.3720 c3        1 RT3     -0.120300
     16 S12         7.9430    4.7560   -6.0510 ss        1 RT3     -0.174700
     17 C11         7.1680    6.3480   -5.8960 c         1 RT3      0.678700
     18 O28         5.9180    6.4240   -5.8650 o         1 RT3     -0.646100
     19 N2          8.0100    7.4320   -5.8570 n         1 RT3     -0.324000
     20 C1          9.4520    7.2550   -5.7760 c3        1 RT3      0.082000
     21 C3          7.5390    8.7580   -5.6280 ca        1 RT3      0.024600
     22 C7          6.2900    9.1840   -6.1220 ca        1 RT3     -0.120000
     23 C4          8.3520    9.6810   -4.9260 ca        1 RT3     -0.086300
     24 C5          9.7170    9.3440   -4.4340 c3        1 RT3     -0.040100
     25 C6         10.0440    7.8690   -4.5100 c3        1 RT3     -0.096400
     26 C10         7.8880   10.9830   -4.7190 ca        1 RT3     -0.120000
     27 C9          6.6420   11.3980   -5.1960 ca        1 RT3     -0.067300
     28 C27         6.1650   12.7780   -4.9510 c3        1 RT3     -0.058800
     29 C8          5.8530   10.4850   -5.9030 ca        1 RT3     -0.123000
     30 H129        0.6750    2.2070   -1.0610 hn        1 RT3      0.447800
     31 H229       -0.0990    2.8170    0.2560 hn        1 RT3      0.447800
     32 H20         2.3560    5.2750   -0.9480 ha        1 RT3      0.176000
     33 H18         4.0290    1.2740   -0.8250 ha        1 RT3      0.168000
     34 H17         5.2140    1.6680   -2.9230 ha        1 RT3      0.208000
     35 HN15        5.0030    4.9340   -4.7470 hn        1 RT3      0.380500
     36 H113        5.7800    4.2660   -6.9750 h1        1 RT3      0.135700
     37 H213        6.9540    2.8730   -6.9910 h1        1 RT3      0.135700
     38 H11         9.7250    6.1610   -5.8180 h1        1 RT3      0.072200
     39 H21         9.9040    7.7590   -6.6800 h1        1 RT3      0.072200
     40 H7          5.6450    8.4900   -6.6860 ha        1 RT3      0.157000
     41 H15        10.4610    9.9220   -5.0490 hc        1 RT3      0.064200
     42 H25         9.8290    9.6930   -3.3720 hc        1 RT3      0.064200
     43 H16        11.1560    7.7230   -4.5330 hc        1 RT3      0.060700
     44 H26         9.6530    7.3380   -3.6040 hc        1 RT3      0.060700
     45 H10         8.5250   11.6960   -4.1720 ha        1 RT3      0.142000
     46 H127        7.0210   13.4940   -4.8930 hc        1 RT3      0.050700
     47 H227        5.6060   12.8220   -3.9820 hc        1 RT3      0.050700
     48 H327        5.4780   13.1140   -5.7670 hc        1 RT3      0.050700
     49 H8          4.8750   10.8000   -6.3000 ha        1 RT3      0.141000
     50 H293        0.5400    1.3030    0.3060 hn        1 RT3      0.447800
@<TRIPOS>BOND
     1    1    2 2   
     2    2    3 2   
     3    2    4 1   
     4    2    5 1   
     5    4   30 1   
     6    4   31 1   
     7    4   50 1   
     8    5    6 ar  
     9    5    9 ar  
    10    6    7 ar  
    11    6   32 1   
    12    7    8 1   
    13    7   11 ar  
    14    9   10 ar  
    15    9   33 1   
    16   10   11 ar  
    17   10   34 1   
    18   11   12 1   
    19   12   13 1   
    20   12   35 1   
    21   13   14 2   
    22   13   15 1   
    23   15   16 1   
    24   15   36 1   
    25   15   37 1   
    26   16   17 1   
    27   17   18 2   
    28   17   19 1   
    29   19   20 1   
    30   19   21 1   
    31   20   25 1   
    32   20   38 1   
    33   20   39 1   
    34   21   22 ar  
    35   21   23 ar  
    36   22   29 ar  
    37   22   40 1   
    38   23   24 1   
    39   23   26 ar  
    40   24   25 1   
    41   24   41 1   
    42   24   42 1   
    43   25   43 1   
    44   25   44 1   
    45   26   27 ar  
    46   26   45 1   
    47   27   28 1   
    48   27   29 ar  
    49   28   46 1   
    50   28   47 1   
    51   28   48 1   
    52   29   49 1   
@<TRIPOS>SUBSTRUCTURE
     1 RT3         1 TEMP              0 ****  ****    0 ROOT
