@<TRIPOS>MOLECULE
RT7
   47    49     1     0     0
SMALL
bcc


@<TRIPOS>ATOM
      1 Cl30        1.6540   -0.7850    3.0830 cl        1 RT7     -0.058400
      2 C4          3.1370   -0.7200    2.2650 ca        1 RT7      0.033400
      3 C3          4.2740   -1.2730    2.8570 ca        1 RT7     -0.121000
      4 C2          5.4980   -1.2220    2.1840 ca        1 RT7      0.050400
      5 Cl29        6.8500   -1.9540    2.9100 cl        1 RT7     -0.088400
      6 C5          3.2070   -0.1210    1.0030 ca        1 RT7     -0.111000
      7 C6          4.4270   -0.0540    0.3330 ca        1 RT7     -0.061300
      8 C10         4.5310    0.6010   -0.9990 c3        1 RT7     -0.041100
      9 C9          5.5270   -0.0670   -1.9300 c3        1 RT7     -0.101400
     10 C8          6.6250   -0.8700   -1.2260 c3        1 RT7      0.078000
     11 N7          6.8110   -0.5550    0.1830 n         1 RT7     -0.327000
     12 C1          5.5940   -0.5940    0.9270 ca        1 RT7      0.019600
     13 C11         7.8620    0.2440    0.6010 c         1 RT7      0.672700
     14 O22         7.8840    0.8430    1.6960 o         1 RT7     -0.617100
     15 S12         9.2670    0.2840   -0.4770 ss        1 RT7     -0.158700
     16 C13        10.3080    1.4350    0.3510 c3        1 RT7     -0.122300
     17 C14        11.2430    0.8010    1.3550 c         1 RT7      0.681100
     18 O23        12.4270    0.5620    1.0900 o         1 RT7     -0.524100
     19 N15        10.6840    0.5130    2.6240 ns        1 RT7     -0.444100
     20 C16        11.3250   -0.0050    3.7150 ca        1 RT7      0.238600
     21 C17        10.5870   -0.2350    4.9350 ca        1 RT7     -0.096600
     22 Cl24        8.9330    0.1260    5.0140 cl        1 RT7     -0.013400
     23 C18        11.2080   -0.7430    6.0530 ca        1 RT7      0.046000
     24 C19        12.5870   -1.0760    6.0670 ca        1 RT7     -0.639500
     25 S25        13.2990   -1.5870    7.3720 sy        1 RT7      1.514200
     26 N28        13.0440   -3.5050    7.0740 nz        1 RT7     -0.780500
     27 O27        14.6780   -1.5580    7.3640 o         1 RT7     -0.577300
     28 O26        12.5860   -1.4630    8.5450 o         1 RT7     -0.577300
     29 C20        13.3070   -0.8430    4.8660 ca        1 RT7      0.045000
     30 C21        12.7160   -0.3360    3.7380 ca        1 RT7     -0.206000
     31 H3          4.2080   -1.7560    3.8450 ha        1 RT7      0.167000
     32 H5          2.3020    0.3010    0.5370 ha        1 RT7      0.163000
     33 H110        4.8360    1.6720   -0.8320 hc        1 RT7      0.068700
     34 H210        3.5240    0.6240   -1.4950 hc        1 RT7      0.068700
     35 H19         4.9850   -0.7700   -2.6170 hc        1 RT7      0.063200
     36 H29         5.9990    0.7210   -2.5730 hc        1 RT7      0.063200
     37 H18         7.5990   -0.7330   -1.7800 h1        1 RT7      0.074700
     38 H28         6.3630   -1.9680   -1.2680 h1        1 RT7      0.074700
     39 H113        9.7070    2.2510    0.8320 h1        1 RT7      0.135700
     40 H213       10.9440    1.8930   -0.4570 h1        1 RT7      0.135700
     41 HN15        9.6970    0.7190    2.7270 hn        1 RT7      0.379500
     42 H18A       10.6200   -0.8840    6.9830 ha        1 RT7      0.176000
     43 H128       13.9450   -3.9750    7.0340 hn        1 RT7      0.447800
     44 H228       12.5130   -3.9100    7.8400 hn        1 RT7      0.447800
     45 H20        14.3930   -1.0620    4.8490 ha        1 RT7      0.168000
     46 H21        13.3370   -0.1740    2.8360 ha        1 RT7      0.208000
     47 H283       12.5490   -3.6930    6.2110 hn        1 RT7      0.447800
@<TRIPOS>BOND
     1    1    2 1   
     2    2    3 ar  
     3    2    6 ar  
     4    3    4 ar  
     5    3   31 1   
     6    4    5 1   
     7    4   12 ar  
     8    6    7 ar  
     9    6   32 1   
    10    7    8 1   
    11    7   12 ar  
    12    8    9 1   
    13    8   33 1   
    14    8   34 1   
    15    9   10 1   
    16    9   35 1   
    17    9   36 1   
    18   10   11 1   
    19   10   37 1   
    20   10   38 1   
    21   11   12 1   
    22   11   13 1   
    23   13   14 2   
    24   13   15 1   
    25   15   16 1   
    26   16   17 1   
    27   16   39 1   
    28   16   40 1   
    29   17   18 2   
    30   17   19 1   
    31   19   20 1   
    32   19   41 1   
    33   20   21 ar  
    34   20   30 ar  
    35   21   22 1   
    36   21   23 ar  
    37   23   24 ar  
    38   23   42 1   
    39   24   25 1   
    40   24   29 ar  
    41   25   26 1   
    42   25   27 2   
    43   25   28 2   
    44   26   43 1   
    45   26   44 1   
    46   26   47 1   
    47   29   30 ar  
    48   29   45 1   
    49   30   46 1   
@<TRIPOS>SUBSTRUCTURE
     1 RT7         1 TEMP              0 ****  ****    0 ROOT
