@<TRIPOS>MOLECULE
RT7
   46    48     1     0     0
SMALL
bcc


@<TRIPOS>ATOM
      1 CL30       -5.7460    3.1880    1.8760 cl        1 RT7     -0.077400
      2 C4         -4.9140    1.7800    1.4220 ca        1 RT7      0.026400
      3 C3         -3.5380    1.6920    1.6340 ca        1 RT7     -0.118000
      4 C2         -2.8530    0.5360    1.2520 ca        1 RT7      0.045400
      5 CL29       -1.1950    0.4440    1.6010 cl        1 RT7     -0.060400
      6 C5         -5.6140    0.7140    0.8550 ca        1 RT7     -0.121000
      7 C6         -4.9380   -0.4430    0.4590 ca        1 RT7     -0.072300
      8 C10        -5.7520   -1.5720   -0.0750 c3        1 RT7     -0.039100
      9 C9         -4.9650   -2.8080   -0.4590 c3        1 RT7     -0.106400
     10 C8         -3.6540   -2.9100    0.3170 c3        1 RT7      0.072000
     11 N7         -2.8420   -1.7060    0.2070 n         1 RT7     -0.329000
     12 C1         -3.5330   -0.5280    0.6160 ca        1 RT7      0.031600
     13 C11        -1.8890   -1.6280   -0.8150 c         1 RT7      0.664700
     14 O22        -1.5140   -0.5570   -1.3270 o         1 RT7     -0.585100
     15 S12        -1.1660   -3.1700   -1.2780 ss        1 RT7     -0.178700
     16 C13        -0.0360   -2.6700   -2.5340 c3        1 RT7     -0.118300
     17 C14         1.3490   -2.3380   -2.0120 c         1 RT7      0.678100
     18 O23         2.2720   -3.1610   -2.1330 o         1 RT7     -0.568100
     19 N15         1.4990   -1.0840   -1.4300 n         1 RT7     -0.465100
     20 C16         2.6710   -0.5370   -0.9070 ca        1 RT7      0.147600
     21 C17         2.6740    0.8190   -0.4670 ca        1 RT7     -0.075600
     22 CL24        1.2740    1.7800   -0.5920 cl        1 RT7     -0.076400
     23 C18         3.8220    1.3910    0.0710 ca        1 RT7      0.015000
     24 C19         5.0040    0.6570    0.2040 ca        1 RT7     -0.415500
     25 S25         6.3950    1.3630    0.8440 sy        1 RT7      1.532200
     26 N28         6.2790    1.0480    2.4110 n3        1 RT7     -1.026700
     27 O27         7.5190    0.6870    0.3220 o         1 RT7     -0.659300
     28 O26         6.3170    2.7590    0.6480 o         1 RT7     -0.659300
     29 C20         5.0080   -0.6700   -0.2400 ca        1 RT7      0.010000
     30 C21         3.8780   -1.2650   -0.7800 ca        1 RT7     -0.188000
     31 H3         -2.9920    2.5250    2.1070 ha        1 RT7      0.167000
     32 H5         -6.7050    0.7770    0.7160 ha        1 RT7      0.153000
     33 H110       -6.5090   -1.8470    0.7110 hc        1 RT7      0.062700
     34 H210       -6.3290   -1.2110   -0.9700 hc        1 RT7      0.062700
     35 H19        -5.5740   -3.7250   -0.2500 hc        1 RT7      0.059200
     36 H29        -4.7500   -2.7960   -1.5600 hc        1 RT7      0.059200
     37 H18        -3.8760   -3.0560    1.4130 h1        1 RT7      0.075700
     38 H28        -3.0680   -3.8040   -0.0390 h1        1 RT7      0.075700
     39 H113        0.0620   -3.5600   -3.2110 h1        1 RT7      0.122200
     40 H213       -0.4480   -1.8140   -3.1280 h1        1 RT7      0.122200
     41 HN15        0.6860   -0.4920   -1.4110 hn        1 RT7      0.356500
     42 H18A        3.8080    2.4530    0.3840 ha        1 RT7      0.167000
     43 H128        5.8380    1.6510    3.0590 hn        1 RT7      0.446800
     44 H228        6.6600    0.2420    2.8370 hn        1 RT7      0.446800
     45 H20         5.9430   -1.2560   -0.1730 ha        1 RT7      0.158000
     46 H21         3.9370   -2.3140   -1.1170 ha        1 RT7      0.184000
@<TRIPOS>BOND
     1    1    2 1   
     2    2    3 ar  
     3    2    6 ar  
     4    3    4 ar  
     5    3   31 1   
     6    4    5 1   
     7    4   12 ar  
     8    6    7 ar  
     9    6   32 1   
    10    7    8 1   
    11    7   12 ar  
    12    8    9 1   
    13    8   33 1   
    14    8   34 1   
    15    9   10 1   
    16    9   35 1   
    17    9   36 1   
    18   10   11 1   
    19   10   37 1   
    20   10   38 1   
    21   11   12 1   
    22   11   13 1   
    23   13   14 2   
    24   13   15 1   
    25   15   16 1   
    26   16   17 1   
    27   16   39 1   
    28   16   40 1   
    29   17   18 2   
    30   17   19 1   
    31   19   20 1   
    32   19   41 1   
    33   20   21 ar  
    34   20   30 ar  
    35   21   22 1   
    36   21   23 ar  
    37   23   24 ar  
    38   23   42 1   
    39   24   25 1   
    40   24   29 ar  
    41   25   26 1   
    42   25   27 2   
    43   25   28 2   
    44   26   43 1   
    45   26   44 1   
    46   29   30 ar  
    47   29   45 1   
    48   30   46 1   
@<TRIPOS>SUBSTRUCTURE
     1 RT7         1 TEMP              0 ****  ****    0 ROOT
