@<TRIPOS>MOLECULE
RT7
   46    39     1     0     0
SMALL
bcc


@<TRIPOS>ATOM
      1 CL30       -0.3680   -4.2710   -4.9290 cl        1 RT7      0.012500
      2 C4          0.5630   -3.7900   -3.5350 c1        1 RT7     -0.042000
      3 C3          0.9890   -2.4280   -3.3940 c1        1 RT7     -0.118500
      4 C2          1.7380   -2.0350   -2.2660 c1        1 RT7     -0.042000
      5 CL29        2.3460   -0.4040   -2.1500 cl        1 RT7      0.012500
      6 C5          0.8920   -4.7410   -2.5460 c1        1 RT7     -0.118500
      7 C6          1.6260   -4.3600   -1.4390 c1        1 RT7     -0.053000
      8 C10         2.0450   -5.3580   -0.3340 c2        1 RT7     -0.126000
      9 C9          2.6780   -4.8180    0.7720 c3        1 RT7     -0.180000
     10 C8          3.5630   -3.6890    0.5360 c3        1 RT7     -0.042000
     11 N7          3.0430   -2.6400   -0.1590 n3        1 RT7     -0.233000
     12 C1          2.0640   -2.9630   -1.2940 c1        1 RT7      0.015000
     13 C11         3.0810   -1.3320    0.3970 c1        1 RT7      0.175000
     14 O22         3.5780   -1.1510    1.4920 o         1 RT7     -0.376000
     15 S12         2.2930    0.0110   -0.4490 s         1 RT7      0.217000
     16 C13         2.2190    1.4230    0.6220 c3        1 RT7     -0.333000
     17 C14         0.8790    2.1070    0.4630 c2        1 RT7      0.321000
     18 O23         0.4750    2.3990   -0.6420 o         1 RT7     -0.328000
     19 N15         0.0890    2.3900    1.6040 n         1 RT7     -0.324000
     20 C16        -1.1740    3.0150    1.4540 c2        1 RT7      0.156000
     21 C17        -1.3210    4.0800    0.5790 c2        1 RT7     -0.154000
     22 CL24        0.0500    4.6520   -0.3350 cl        1 RT7     -0.004000
     23 C18        -2.5470    4.7150    0.4610 c1        1 RT7      0.016000
     24 C19        -3.6250    4.2860    1.2160 c1        1 RT7     -0.861000
     25 S25        -5.1710    5.1470    1.1210 ss        1 RT7      2.872000
     26 N28        -6.0510    4.5970   -0.1520 n2        1 RT7     -0.953000
     27 O27        -4.9730    6.5700    1.0420 o         1 RT7     -0.939000
     28 O26        -5.9060    5.0360    2.3490 o         1 RT7     -0.939000
     29 C20        -3.4780    3.2210    2.0910 c1        1 RT7      0.010000
     30 C21        -2.2530    2.5860    2.2100 c1        1 RT7     -0.187000
     31 H3          0.7680   -1.7740   -4.0850 ha        1 RT7      0.162500
     32 H5          0.5950   -5.6650   -2.6400 ha        1 RT7      0.162500
     33 H110        2.6460   -6.0190   -0.7340 ha        1 RT7      0.104000
     34 H210        1.2400   -5.8240   -0.0250 ha        1 RT7      0.104000
     35 H19         1.9860   -4.5320    1.4060 hc        1 RT7      0.096500
     36 H29         3.2040   -5.5310    1.1970 hc        1 RT7      0.096500
     37 H18         3.8450   -3.3500    1.4110 h1        1 RT7      0.117000
     38 H28         4.3340   -4.0230    0.0300 h1        1 RT7      0.117000
     39 H113        2.9350    2.0490    0.3880 h1        1 RT7      0.162500
     40 H213        2.3300    1.1350    1.5500 h1        1 RT7      0.162500
     41 HN15        0.3970    2.1780    2.4370 hn        1 RT7      0.269000
     42 H18A       -2.6500    5.4660   -0.1560 ha        1 RT7      0.167000
     43 H128       -6.1710    5.1260   -0.8860 hn        1 RT7      0.243000
     44 H228       -6.4170    3.7580   -0.1270 hn        1 RT7      0.243000
     45 H20        -4.2370    2.9190    2.6230 ha        1 RT7      0.158000
     46 H21        -2.1500    1.8350    2.8260 ha        1 RT7      0.183000
@<TRIPOS>BOND
     1    1    2 1   
     2    2    6 1   
     3    3    4 1   
     4    3   31 1   
     5    4    5 1   
     6    6   32 1   
     7    7   12 1   
     8    8    9 1   
     9    8   33 1   
    10    8   34 1   
    11    9   10 1   
    12    9   35 1   
    13    9   36 1   
    14   10   11 1   
    15   10   37 1   
    16   10   38 1   
    17   11   12 1   
    18   11   13 1   
    19   13   14 1   
    20   15   16 1   
    21   16   17 1   
    22   16   39 1   
    23   16   40 1   
    24   17   18 1   
    25   17   19 1   
    26   19   20 1   
    27   19   41 1   
    28   20   21 1   
    29   20   30 1   
    30   21   22 1   
    31   21   23 1   
    32   23   42 1   
    33   24   29 1   
    34   25   27 1   
    35   25   28 1   
    36   26   43 1   
    37   26   44 1   
    38   29   45 1   
    39   30   46 1   
@<TRIPOS>SUBSTRUCTURE
     1 RT7         1 TEMP              0 ****  ****    0 ROOT
