@<TRIPOS>MOLECULE
RT7
   48    50     1     0     0
SMALL
bcc


@<TRIPOS>ATOM
      1 CL30        1.9180    0.9110    3.3900 cl        1 RT7     -0.025400
      2 C4          3.2510    0.4520    2.4610 ca        1 RT7      0.043400
      3 C3          4.3420   -0.1720    3.0770 ca        1 RT7     -0.115000
      4 C2          5.4470   -0.5320    2.3080 ca        1 RT7      0.055400
      5 CL29        6.7180   -1.3740    3.0890 cl        1 RT7     -0.135400
      6 C5          3.2540    0.6780    1.0820 ca        1 RT7     -0.109000
      7 C6          4.3590    0.3200    0.3040 ca        1 RT7     -0.044300
      8 C10         4.2640    0.5030   -1.1720 c3        1 RT7     -0.051100
      9 C9          5.4850    0.0730   -1.9600 c3        1 RT7     -0.103400
     10 C8          6.2900   -1.0000   -1.2330 c3        1 RT7      0.072000
     11 N7          6.6290   -0.6000    0.1310 n         1 RT7     -0.292000
     12 C1          5.4950   -0.2500    0.9260 ca        1 RT7     -0.002400
     13 C11         7.8620   -0.0640    0.4000 c         1 RT7      0.660700
     14 O22         8.1280    0.6960    1.3650 o         1 RT7     -0.683100
     15 S12         9.2080   -0.6510   -0.6060 ss        1 RT7     -0.091700
     16 C13        10.5380    0.2430    0.1080 c3        1 RT7     -0.138300
     17 C14        11.1130   -0.3770    1.3440 c         1 RT7      0.566100
     18 O23        12.1020   -1.0770    1.4570 o         1 RT7     -0.390100
     19 N15        10.3410   -0.0680    2.6390 n4        1 RT7     -0.580200
     20 C16        11.0060   -0.4840    3.8690 ca        1 RT7      0.085600
     21 C17        10.8010   -1.7800    4.3940 ca        1 RT7      0.007400
     22 CL24        9.8000   -2.8930    3.6210 cl        1 RT7      0.033600
     23 C18        11.4320   -2.1440    5.5890 ca        1 RT7      0.023000
     24 C19        12.2720   -1.2510    6.2730 ca        1 RT7     -0.458500
     25 S25        12.8930   -1.6420    7.7450 sy        1 RT7      1.464200
     26 N28        14.5220   -2.4170    7.1890 n4        1 RT7     -0.801500
     27 O27        13.3540   -0.5480    8.4360 o         1 RT7     -0.532300
     28 O26        12.2770   -2.7310    8.3130 o         1 RT7     -0.532300
     29 C20        12.4660    0.0320    5.7310 ca        1 RT7      0.017000
     30 C21        11.8460    0.4190    4.5470 ca        1 RT7     -0.108000
     31 H3          4.3190   -0.3900    4.1580 ha        1 RT7      0.175000
     32 H5          2.3770    1.1370    0.5940 ha        1 RT7      0.175000
     33 H110        3.3700   -0.0840   -1.5280 hc        1 RT7      0.083700
     34 H210        4.0470    1.5850   -1.3930 hc        1 RT7      0.083700
     35 H19         5.1670   -0.3420   -2.9530 hc        1 RT7      0.073700
     36 H29         6.1370    0.9620   -2.1670 hc        1 RT7      0.073700
     37 H18         7.2330   -1.2300   -1.8100 h1        1 RT7      0.084200
     38 H28         5.6840   -1.9490   -1.1550 h1        1 RT7      0.084200
     39 H113       10.2490    1.3130    0.3010 h1        1 RT7      0.160700
     40 H213       11.3550    0.2420   -0.6750 h1        1 RT7      0.160700
     41 HN15        9.4000   -0.5180    2.5680 hn        1 RT7      0.498300
     42 H18A       11.2350   -3.1530    6.0100 ha        1 RT7      0.206000
     43 H128       14.5870   -3.3850    7.5150 hn        1 RT7      0.471467
     44 H228       15.3150   -1.9120    7.5940 hn        1 RT7      0.471467
     45 H20        13.1020    0.7690    6.2650 ha        1 RT7      0.199000
     46 H21        12.0170    1.4420    4.1640 ha        1 RT7      0.192000
     47 H152       10.1550    0.9490    2.6620 hn        1 RT7      0.498300
     48 H283       14.6550   -2.4280    6.1800 hn        1 RT7      0.471467
@<TRIPOS>BOND
     1    1    2 1   
     2    2    3 ar  
     3    2    6 ar  
     4    3    4 ar  
     5    3   31 1   
     6    4    5 1   
     7    4   12 ar  
     8    6    7 ar  
     9    6   32 1   
    10    7    8 1   
    11    7   12 ar  
    12    8    9 1   
    13    8   33 1   
    14    8   34 1   
    15    9   10 1   
    16    9   35 1   
    17    9   36 1   
    18   10   11 1   
    19   10   37 1   
    20   10   38 1   
    21   11   12 1   
    22   11   13 1   
    23   13   14 2   
    24   13   15 1   
    25   15   16 1   
    26   16   17 1   
    27   16   39 1   
    28   16   40 1   
    29   17   18 2   
    30   17   19 1   
    31   19   20 1   
    32   19   41 1   
    33   19   47 1   
    34   20   21 ar  
    35   20   30 ar  
    36   21   22 1   
    37   21   23 ar  
    38   23   24 ar  
    39   23   42 1   
    40   24   25 1   
    41   24   29 ar  
    42   25   26 1   
    43   25   27 2   
    44   25   28 2   
    45   26   43 1   
    46   26   44 1   
    47   26   48 1   
    48   29   30 ar  
    49   29   45 1   
    50   30   46 1   
@<TRIPOS>SUBSTRUCTURE
     1 RT7         1 TEMP              0 ****  ****    0 ROOT
