@<TRIPOS>MOLECULE
RT7
   47    49     1     0     0
SMALL
bcc


@<TRIPOS>ATOM
      1 CL30        1.8180   -1.0600    3.1730 cl        1 RT7     -0.058400
      2 C4          3.2590   -0.9320    2.2910 ca        1 RT7      0.032400
      3 C3          4.4510   -1.4100    2.8400 ca        1 RT7     -0.120000
      4 C2          5.6380   -1.2910    2.1170 ca        1 RT7      0.049400
      5 CL29        7.0510   -1.9590    2.7920 cl        1 RT7     -0.091400
      6 C5          3.2460   -0.3660    1.0150 ca        1 RT7     -0.116000
      7 C6          4.4300   -0.2360    0.2850 ca        1 RT7     -0.062300
      8 C10         4.3370    0.3050   -1.1010 c3        1 RT7     -0.044100
      9 C9          5.6480    0.3780   -1.8570 c3        1 RT7     -0.106400
     10 C8          6.6680   -0.6280   -1.3300 c3        1 RT7      0.071000
     11 N7          6.8670   -0.5210    0.1110 n         1 RT7     -0.319000
     12 C1          5.6560   -0.6610    0.8520 ca        1 RT7      0.020600
     13 C11         7.8790    0.3040    0.5920 c         1 RT7      0.666700
     14 O22         7.8630    0.8520    1.7140 o         1 RT7     -0.611100
     15 S12         9.2970    0.4460   -0.4590 ss        1 RT7     -0.153700
     16 C13        10.2910    1.5810    0.4450 c3        1 RT7     -0.123300
     17 C14        11.2250    0.9230    1.4340 c         1 RT7      0.681100
     18 O23        12.4160    0.7160    1.1750 o         1 RT7     -0.524100
     19 N15        10.6550    0.5760    2.6840 n         1 RT7     -0.444100
     20 C16        11.2920    0.0250    3.7610 ca        1 RT7      0.238600
     21 C17        10.5480   -0.2480    4.9680 ca        1 RT7     -0.096600
     22 CL24        8.8930    0.1080    5.0510 cl        1 RT7     -0.014400
     23 C18        11.1630   -0.7930    6.0720 ca        1 RT7      0.046000
     24 C19        12.5430   -1.1220    6.0830 ca        1 RT7     -0.639500
     25 S25        13.2490   -1.6780    7.3730 sy        1 RT7      1.514200
     26 N28        12.9990   -3.5840    7.0080 n4        1 RT7     -0.780500
     27 O27        14.6270   -1.6460    7.3750 o         1 RT7     -0.577300
     28 O26        12.5280   -1.5960    8.5460 o         1 RT7     -0.577300
     29 C20        13.2700   -0.8450    4.8960 ca        1 RT7      0.045000
     30 C21        12.6840   -0.3010    3.7820 ca        1 RT7     -0.206000
     31 H3          4.4530   -1.8870    3.8330 ha        1 RT7      0.167000
     32 H5          2.2980   -0.0180    0.5720 ha        1 RT7      0.162000
     33 H110        3.6190   -0.3470   -1.6730 hc        1 RT7      0.070700
     34 H210        3.8790    1.3310   -1.0600 hc        1 RT7      0.070700
     35 H19         6.0700    1.4150   -1.7860 hc        1 RT7      0.063700
     36 H29         5.4710    0.1650   -2.9430 hc        1 RT7      0.063700
     37 H18         7.6520   -0.4930   -1.8660 h1        1 RT7      0.078700
     38 H28         6.3050   -1.6770   -1.5320 h1        1 RT7      0.078700
     39 H113        9.6600    2.3580    0.9510 h1        1 RT7      0.135200
     40 H213       10.9290    2.0940   -0.3280 h1        1 RT7      0.135200
     41 HN15        9.6650    0.7620    2.7820 hn        1 RT7      0.378500
     42 H18A       10.5700   -0.9670    6.9930 ha        1 RT7      0.176000
     43 H128       12.5090   -3.7430    6.1350 hn        1 RT7      0.447800
     44 H228       13.9010   -4.0510    6.9560 hn        1 RT7      0.447800
     45 H20        14.3570   -1.0600    4.8780 ha        1 RT7      0.168000
     46 H21        13.3100   -0.1050    2.8910 ha        1 RT7      0.208000
     47 H283       12.4650   -4.0170    7.7560 hn        1 RT7      0.447800
@<TRIPOS>BOND
     1    1    2 1   
     2    2    3 ar  
     3    2    6 ar  
     4    3    4 ar  
     5    3   31 1   
     6    4    5 1   
     7    4   12 ar  
     8    6    7 ar  
     9    6   32 1   
    10    7    8 1   
    11    7   12 ar  
    12    8    9 1   
    13    8   33 1   
    14    8   34 1   
    15    9   10 1   
    16    9   35 1   
    17    9   36 1   
    18   10   11 1   
    19   10   37 1   
    20   10   38 1   
    21   11   12 1   
    22   11   13 1   
    23   13   14 2   
    24   13   15 1   
    25   15   16 1   
    26   16   17 1   
    27   16   39 1   
    28   16   40 1   
    29   17   18 2   
    30   17   19 1   
    31   19   20 1   
    32   19   41 1   
    33   20   21 ar  
    34   20   30 ar  
    35   21   22 1   
    36   21   23 ar  
    37   23   24 ar  
    38   23   42 1   
    39   24   25 1   
    40   24   29 ar  
    41   25   26 1   
    42   25   27 2   
    43   25   28 2   
    44   26   43 1   
    45   26   44 1   
    46   26   47 1   
    47   29   30 ar  
    48   29   45 1   
    49   30   46 1   
@<TRIPOS>SUBSTRUCTURE
     1 RT7         1 TEMP              0 ****  ****    0 ROOT
