@<TRIPOS>MOLECULE
RT8
   59    62     1     0     0
SMALL
bcc


@<TRIPOS>ATOM
      1 O2         -0.0530    0.7890    0.6040 o         1 RT8     -0.602100
      2 C6          1.0510    0.3730    0.1970 c         1 RT8      0.655100
      3 N2          1.3830    0.1180   -1.1040 ns        1 RT8     -0.429100
      4 C5          0.5460    0.2790   -2.2320 ca        1 RT8      0.067600
      5 C4          1.0350   -0.1390   -3.4930 ca        1 RT8     -0.272300
      6 C3          0.2100    0.0230   -4.6160 ca        1 RT8      0.425200
      7 N1         -1.0270    0.5550   -4.5690 nb        1 RT8     -0.650000
      8 C2         -1.4780    0.9500   -3.3660 ca        1 RT8      0.425200
      9 C1         -0.7440    0.8390   -2.1700 ca        1 RT8     -0.272300
     10 C7          2.1820    0.1280    1.2380 c3        1 RT8      0.034500
     11 N3          1.6020    0.0480    2.6170 ny        1 RT8     -0.676800
     12 C8          1.0940   -1.3320    3.0010 c         1 RT8      0.557100
     13 O1          1.7130   -2.2840    2.5570 o         1 RT8     -0.421100
     14 C9         -0.1270   -1.3300    3.8910 c3        1 RT8     -0.126700
     15 C15        -0.1990   -2.6470    4.6570 c3        1 RT8     -0.080900
     16 C14        -1.4440   -2.6790    5.5190 c3        1 RT8     -0.077400
     17 C12        -2.7030   -2.4670    4.6930 c3        1 RT8     -0.070700
     18 C13        -3.9260   -2.4600    5.5840 c3        1 RT8     -0.094100
     19 C11        -2.6120   -1.1680    3.9060 c3        1 RT8     -0.077400
     20 C10        -1.3750   -1.1360    3.0320 c3        1 RT8     -0.080900
     21 C16         3.2130    1.2640    1.0930 c3        1 RT8     -0.005200
     22 C17         4.0240    1.4900    2.2920 cc        1 RT8     -0.259400
     23 C20         4.7590    0.5160    3.0760 ca        1 RT8     -0.113800
     24 C21         4.9040   -0.8740    3.0350 ca        1 RT8     -0.129000
     25 C22         5.7240   -1.4930    3.9640 ca        1 RT8     -0.122000
     26 C23         6.4110   -0.7520    4.9450 ca        1 RT8     -0.103000
     27 C24         6.3000    0.6260    5.0220 ca        1 RT8     -0.119000
     28 C19         5.4750    1.2670    4.0830 ca        1 RT8     -0.050200
     29 N4          5.1750    2.6240    3.9110 na        1 RT8     -0.166400
     30 C18         4.3230    2.7530    2.8260 cd        1 RT8     -0.046100
     31 H2          2.3030   -0.2190   -1.2970 hn        1 RT8      0.335500
     32 H7          2.6910   -0.8650    1.0420 hx        1 RT8      0.132700
     33 H4          2.0330   -0.5830   -3.6130 ha        1 RT8      0.161500
     34 H1         -1.1890    1.1870   -1.2270 ha        1 RT8      0.161500
     35 H3          0.5600   -0.2940   -5.6170 h4        1 RT8      0.040600
     36 HA         -2.4960    1.3850   -3.3510 h4        1 RT8      0.040600
     37 HB          0.8160    0.7150    2.6780 hn        1 RT8      0.479300
     38 H161        2.6810    2.2150    0.8120 hc        1 RT8      0.083700
     39 H162        3.8800    0.9820    0.2290 hc        1 RT8      0.083700
     40 H9         -0.0550   -0.4850    4.6350 hc        1 RT8      0.087700
     41 H151        0.7130   -2.7610    5.2990 hc        1 RT8      0.065950
     42 H152       -0.2130   -3.5020    3.9300 hc        1 RT8      0.065950
     43 H101       -1.4340   -1.9580    2.2690 hc        1 RT8      0.065950
     44 H102       -1.3230   -0.1600    2.4810 hc        1 RT8      0.065950
     45 H141       -1.5000   -3.6730    6.0370 hc        1 RT8      0.060700
     46 H142       -1.3770   -1.8890    6.3130 hc        1 RT8      0.060700
     47 H12        -2.7960   -3.3200    3.9610 hc        1 RT8      0.058700
     48 H131       -4.8510   -2.3300    4.9710 hc        1 RT8      0.046033
     49 H132       -3.8720   -1.6270    6.3250 hc        1 RT8      0.046033
     50 H133       -4.0030   -3.4250    6.1410 hc        1 RT8      0.046033
     51 H111       -2.6020   -0.2980    4.6140 hc        1 RT8      0.060700
     52 H112       -3.5190   -1.0610    3.2540 hc        1 RT8      0.060700
     53 H18         3.9780    3.7380    2.4940 h4        1 RT8      0.184000
     54 H21         4.3890   -1.4680    2.2650 ha        1 RT8      0.127000
     55 H22         5.8550   -2.5860    3.9350 ha        1 RT8      0.149000
     56 H23         7.0580   -1.2850    5.6610 ha        1 RT8      0.154000
     57 H24         6.8450    1.2010    5.7840 ha        1 RT8      0.154000
     58 HC          5.5890    3.3670    4.4160 hn        1 RT8      0.320700
     59 H32         2.3380    0.3230    3.2890 hn        1 RT8      0.479300
@<TRIPOS>BOND
     1    1    2 2   
     2    2    3 1   
     3    2   10 1   
     4    3    4 1   
     5    3   31 1   
     6    4    5 ar  
     7    4    9 ar  
     8    5    6 ar  
     9    5   33 1   
    10    6    7 ar  
    11    6   35 1   
    12    7    8 ar  
    13    8    9 ar  
    14    8   36 1   
    15    9   34 1   
    16   10   11 1   
    17   10   21 1   
    18   10   32 1   
    19   11   12 1   
    20   11   37 1   
    21   11   59 1   
    22   12   13 2   
    23   12   14 1   
    24   14   15 1   
    25   14   20 1   
    26   14   40 1   
    27   15   16 1   
    28   15   41 1   
    29   15   42 1   
    30   16   17 1   
    31   16   45 1   
    32   16   46 1   
    33   17   18 1   
    34   17   19 1   
    35   17   47 1   
    36   18   48 1   
    37   18   49 1   
    38   18   50 1   
    39   19   20 1   
    40   19   51 1   
    41   19   52 1   
    42   20   43 1   
    43   20   44 1   
    44   21   22 1   
    45   21   38 1   
    46   21   39 1   
    47   22   23 1   
    48   22   30 2   
    49   23   24 ar  
    50   23   28 ar  
    51   24   25 ar  
    52   24   54 1   
    53   25   26 ar  
    54   25   55 1   
    55   26   27 ar  
    56   26   56 1   
    57   27   28 ar  
    58   27   57 1   
    59   28   29 1   
    60   29   30 1   
    61   29   58 1   
    62   30   53 1   
@<TRIPOS>SUBSTRUCTURE
     1 RT8         1 TEMP              0 ****  ****    0 ROOT
