@<TRIPOS>MOLECULE
RT8
   60    63     1     0     0
SMALL
bcc


@<TRIPOS>ATOM
      1 O2         -1.1550    0.5110   -0.5890 o         1 RT8     -0.379100
      2 C6         -0.0750   -0.0590   -0.5630 c         1 RT8      0.524100
      3 N2          0.2360   -0.9890   -1.7000 n4        1 RT8     -0.531200
      4 C5          1.3910   -0.5570   -2.4990 ca        1 RT8     -0.030400
      5 C4          2.6320   -1.2000   -2.3440 ca        1 RT8     -0.234800
      6 C3          3.6890   -0.7770   -3.1750 ca        1 RT8      0.450700
      7 N1          3.5690    0.1990   -4.0950 nb        1 RT8     -0.582000
      8 C2          2.3720    0.7950   -4.2300 ca        1 RT8      0.450700
      9 C1          1.2390    0.4590   -3.4570 ca        1 RT8     -0.234800
     10 C7          0.9720    0.1040    0.5410 c3        1 RT8      0.070500
     11 N3          0.3850   -0.2520    1.8740 n4        1 RT8     -0.692800
     12 C8         -0.1250   -1.6790    1.9740 c         1 RT8      0.592100
     13 O1         -0.1370   -2.2880    0.9110 o         1 RT8     -0.500100
     14 C9         -0.5460   -2.1530    3.3400 c3        1 RT8     -0.137700
     15 C15        -1.5500   -1.2120    3.9950 c3        1 RT8     -0.082900
     16 C14        -2.0010   -1.8040    5.3180 c3        1 RT8     -0.080900
     17 C12        -0.8200   -2.0570    6.2440 c3        1 RT8     -0.069700
     18 C13        -1.2910   -2.6920    7.5350 c3        1 RT8     -0.097100
     19 C11         0.2160   -2.9420    5.5670 c3        1 RT8     -0.080900
     20 C10         0.6690   -2.3610    4.2400 c3        1 RT8     -0.082900
     21 C16         1.4890    1.5690    0.5090 c3        1 RT8      0.012800
     22 C17         2.0200    1.9930    1.8020 cc        1 RT8     -0.310400
     23 C20         3.0150    1.3230    2.6160 ca        1 RT8     -0.117800
     24 C21         3.7070    0.1100    2.5290 ca        1 RT8     -0.164000
     25 C22         4.6300   -0.2110    3.5120 ca        1 RT8     -0.103000
     26 C23         4.8820    0.6550    4.5940 ca        1 RT8     -0.099000
     27 C24         4.2260    1.8700    4.7170 ca        1 RT8     -0.096000
     28 C19         3.2920    2.2090    3.7240 ca        1 RT8     -0.049200
     29 N4          2.4980    3.3560    3.5730 na        1 RT8     -0.147400
     30 C18         1.7560    3.2320    2.4160 cd        1 RT8     -0.014100
     31 H2          0.4150   -1.9310   -1.3130 hn        1 RT8      0.490300
     32 H7          1.8480   -0.5960    0.3730 hx        1 RT8      0.135700
     33 H4          2.7960   -2.0220   -1.6330 ha        1 RT8      0.173500
     34 H1          0.2850    0.9790   -3.6350 ha        1 RT8      0.173500
     35 H3          4.6890   -1.2560   -3.1030 h4        1 RT8      0.080100
     36 HA          2.3050    1.5870   -5.0080 h4        1 RT8      0.080100
     37 HB         -0.3820    0.3980    2.1010 hn        1 RT8      0.498800
     38 H161        2.2940    1.6020   -0.2790 hc        1 RT8      0.093700
     39 H162        0.6570    2.2540    0.1900 hc        1 RT8      0.093700
     40 H9         -1.0460   -3.1570    3.1700 hc        1 RT8      0.144700
     41 H151       -1.0830   -0.2110    4.1890 hc        1 RT8      0.052700
     42 H152       -2.4390   -1.0670    3.3270 hc        1 RT8      0.052700
     43 H101        1.1890   -1.3850    4.4210 hc        1 RT8      0.052700
     44 H102        1.3930   -3.0640    3.7520 hc        1 RT8      0.052700
     45 H141       -2.5520   -2.7640    5.1370 hc        1 RT8      0.076950
     46 H142       -2.7170   -1.0930    5.8090 hc        1 RT8      0.076950
     47 H12        -0.3390   -1.0670    6.4870 hc        1 RT8      0.051700
     48 H131       -2.0310   -2.0290    8.0440 hc        1 RT8      0.055367
     49 H132       -1.7760   -3.6790    7.3380 hc        1 RT8      0.055367
     50 H133       -0.4270   -2.8540    8.2230 hc        1 RT8      0.055367
     51 H111        1.1100   -3.0520    6.2370 hc        1 RT8      0.076950
     52 H112       -0.2100   -3.9680    5.4060 hc        1 RT8      0.076950
     53 H18         1.0840    4.0330    2.0850 h4        1 RT8      0.193000
     54 H21         3.5650   -0.5540    1.6660 ha        1 RT8      0.104000
     55 H22         5.1980   -1.1540    3.4450 ha        1 RT8      0.156000
     56 H23         5.6310    0.3630    5.3500 ha        1 RT8      0.170000
     57 H24         4.4390    2.5510    5.5550 ha        1 RT8      0.169000
     58 HC          2.5430    4.1590    4.1540 hn        1 RT8      0.335700
     59 H221       -0.5920   -1.0410   -2.3210 hn        1 RT8      0.490300
     60 H32         1.1360   -0.1040    2.5860 hn        1 RT8      0.498800
@<TRIPOS>BOND
     1    1    2 2   
     2    2    3 1   
     3    2   10 1   
     4    3    4 1   
     5    3   31 1   
     6    3   59 1   
     7    4    5 ar  
     8    4    9 ar  
     9    5    6 ar  
    10    5   33 1   
    11    6    7 ar  
    12    6   35 1   
    13    7    8 ar  
    14    8    9 ar  
    15    8   36 1   
    16    9   34 1   
    17   10   11 1   
    18   10   21 1   
    19   10   32 1   
    20   11   12 1   
    21   11   37 1   
    22   11   60 1   
    23   12   13 2   
    24   12   14 1   
    25   14   15 1   
    26   14   20 1   
    27   14   40 1   
    28   15   16 1   
    29   15   41 1   
    30   15   42 1   
    31   16   17 1   
    32   16   45 1   
    33   16   46 1   
    34   17   18 1   
    35   17   19 1   
    36   17   47 1   
    37   18   48 1   
    38   18   49 1   
    39   18   50 1   
    40   19   20 1   
    41   19   51 1   
    42   19   52 1   
    43   20   43 1   
    44   20   44 1   
    45   21   22 1   
    46   21   38 1   
    47   21   39 1   
    48   22   23 1   
    49   22   30 2   
    50   23   24 ar  
    51   23   28 ar  
    52   24   25 ar  
    53   24   54 1   
    54   25   26 ar  
    55   25   55 1   
    56   26   27 ar  
    57   26   56 1   
    58   27   28 ar  
    59   27   57 1   
    60   28   29 1   
    61   29   30 1   
    62   29   58 1   
    63   30   53 1   
@<TRIPOS>SUBSTRUCTURE
     1 RT8         1 TEMP              0 ****  ****    0 ROOT
