@<TRIPOS>MOLECULE
RT8
   58    61     1     0     0
SMALL
bcc


@<TRIPOS>ATOM
      1 O2          2.7540   -0.2420   -2.1220 o         1 RT8     -0.592100
      2 C6          2.1320   -0.3070   -1.0480 c         1 RT8      0.651100
      3 N2          2.4210   -1.2070   -0.0370 n         1 RT8     -0.464100
      4 C5          3.4160   -2.1910   -0.0420 ca        1 RT8      0.105600
      5 C4          3.5290   -3.0510    1.0820 ca        1 RT8     -0.290300
      6 C3          4.5260   -4.0330    1.0820 ca        1 RT8      0.411700
      7 N1          5.4010   -4.2230    0.0750 nb        1 RT8     -0.687000
      8 C2          5.2870   -3.4030   -0.9870 ca        1 RT8      0.411700
      9 C1          4.3290   -2.3830   -1.1020 ca        1 RT8     -0.290300
     10 C7          0.9560    0.6710   -0.7510 c3        1 RT8      0.039700
     11 N3         -0.3060   -0.0220   -0.7390 n         1 RT8     -0.557900
     12 C8         -0.8270   -0.5790    0.4150 c         1 RT8      0.666100
     13 O1         -0.1210   -0.6810    1.4410 o         1 RT8     -0.629100
     14 C9         -2.2630   -1.0880    0.3570 c3        1 RT8     -0.126700
     15 C15        -2.7700   -1.3620    1.7660 c3        1 RT8     -0.071400
     16 C14        -4.1780   -1.9160    1.7350 c3        1 RT8     -0.074400
     17 C12        -4.2600   -3.1760    0.8850 c3        1 RT8     -0.068700
     18 C13        -5.6800   -3.6970    0.8390 c3        1 RT8     -0.090100
     19 C11        -3.7470   -2.8990   -0.5210 c3        1 RT8     -0.074400
     20 C10        -2.3370   -2.3460   -0.4960 c3        1 RT8     -0.071400
     21 C16         1.0190    1.8030   -1.7930 c3        1 RT8     -0.013200
     22 C17        -0.0630    2.7800   -1.6360 cc        1 RT8     -0.153400
     23 C20        -0.2590    3.6970   -0.5310 ca        1 RT8     -0.087800
     24 C21         0.4190    3.9420    0.6650 ca        1 RT8     -0.084000
     25 C22        -0.0560    4.9280    1.5160 ca        1 RT8     -0.152000
     26 C23        -1.2020    5.6800    1.1980 ca        1 RT8     -0.110000
     27 C24        -1.9050    5.4710    0.0220 ca        1 RT8     -0.144000
     28 C19        -1.4340    4.4770   -0.8510 ca        1 RT8     -0.047200
     29 N4         -1.9280    4.0340   -2.0820 na        1 RT8     -0.190400
     30 C18        -1.0840    3.0280   -2.5560 cd        1 RT8     -0.104100
     31 H2          1.8400   -1.1790    0.7800 hn        1 RT8      0.351500
     32 H7          1.1320    1.1220    0.2750 h1        1 RT8      0.087700
     33 H4          2.8520   -2.9590    1.9430 ha        1 RT8      0.163000
     34 H1          4.3040   -1.7560   -2.0050 ha        1 RT8      0.163000
     35 H3          4.6350   -4.7150    1.9460 h4        1 RT8      0.020100
     36 HA          6.0120   -3.5720   -1.8030 h4        1 RT8      0.020100
     37 HB         -0.9040    0.1260   -1.5170 hn        1 RT8      0.319500
     38 H161        2.0160    2.3090   -1.6680 hc        1 RT8      0.075200
     39 H162        1.0030    1.3600   -2.8260 hc        1 RT8      0.075200
     40 H9         -2.9120   -0.2920   -0.1060 hc        1 RT8      0.065700
     41 H151       -2.0800   -2.0880    2.2710 hc        1 RT8      0.054450
     42 H152       -2.7450   -0.4120    2.3600 hc        1 RT8      0.054450
     43 H101       -2.0090   -2.1190   -1.5440 hc        1 RT8      0.054450
     44 H102       -1.6360   -3.1180   -0.0810 hc        1 RT8      0.054450
     45 H141       -4.5070   -2.1500    2.7810 hc        1 RT8      0.043450
     46 H142       -4.8810   -1.1440    1.3250 hc        1 RT8      0.043450
     47 H12        -3.6020   -3.9620    1.3530 hc        1 RT8      0.052700
     48 H131       -6.3630   -2.9420    0.3800 hc        1 RT8      0.035367
     49 H132       -5.7300   -4.6330    0.2330 hc        1 RT8      0.035367
     50 H133       -6.0430   -3.9210    1.8710 hc        1 RT8      0.035367
     51 H111       -3.7620   -3.8480   -1.1170 hc        1 RT8      0.043450
     52 H112       -4.4300   -2.1690   -1.0300 hc        1 RT8      0.043450
     53 H18        -1.2700    2.5560   -3.5240 h4        1 RT8      0.166000
     54 H21         1.3160    3.3600    0.9210 ha        1 RT8      0.135000
     55 H22         0.4680    5.1320    2.4620 ha        1 RT8      0.133000
     56 H23        -1.5440    6.4540    1.9010 ha        1 RT8      0.132000
     57 H24        -2.7970    6.0620   -0.2210 ha        1 RT8      0.133000
     58 HC         -2.6600    4.4560   -2.5860 hn        1 RT8      0.299700
@<TRIPOS>BOND
     1    1    2 2   
     2    2    3 1   
     3    2   10 1   
     4    3    4 1   
     5    3   31 1   
     6    4    5 ar  
     7    4    9 ar  
     8    5    6 ar  
     9    5   33 1   
    10    6    7 ar  
    11    6   35 1   
    12    7    8 ar  
    13    8    9 ar  
    14    8   36 1   
    15    9   34 1   
    16   10   11 1   
    17   10   21 1   
    18   10   32 1   
    19   11   12 1   
    20   11   37 1   
    21   12   13 2   
    22   12   14 1   
    23   14   15 1   
    24   14   20 1   
    25   14   40 1   
    26   15   16 1   
    27   15   41 1   
    28   15   42 1   
    29   16   17 1   
    30   16   45 1   
    31   16   46 1   
    32   17   18 1   
    33   17   19 1   
    34   17   47 1   
    35   18   48 1   
    36   18   49 1   
    37   18   50 1   
    38   19   20 1   
    39   19   51 1   
    40   19   52 1   
    41   20   43 1   
    42   20   44 1   
    43   21   22 1   
    44   21   38 1   
    45   21   39 1   
    46   22   23 1   
    47   22   30 2   
    48   23   24 ar  
    49   23   28 ar  
    50   24   25 ar  
    51   24   54 1   
    52   25   26 ar  
    53   25   55 1   
    54   26   27 ar  
    55   26   56 1   
    56   27   28 ar  
    57   27   57 1   
    58   28   29 1   
    59   29   30 1   
    60   29   58 1   
    61   30   53 1   
@<TRIPOS>SUBSTRUCTURE
     1 RT8         1 TEMP              0 ****  ****    0 ROOT
