@<TRIPOS>MOLECULE
RT8
   59    62     1     0     0
SMALL
bcc


@<TRIPOS>ATOM
      1 O2         -0.0520    0.7680    0.5890 o         1 RT8     -0.602100
      2 C6          1.0510    0.3440    0.1880 c         1 RT8      0.655100
      3 N2          1.3840    0.0740   -1.1100 n         1 RT8     -0.429100
      4 C5          0.5490    0.2240   -2.2400 ca        1 RT8      0.067600
      5 C4          1.0380   -0.2100   -3.4960 ca        1 RT8     -0.272300
      6 C3          0.2140   -0.0590   -4.6210 ca        1 RT8      0.425200
      7 N1         -1.0220    0.4760   -4.5810 nb        1 RT8     -0.650000
      8 C2         -1.4740    0.8840   -3.3830 ca        1 RT8      0.425200
      9 C1         -0.7410    0.7860   -2.1860 ca        1 RT8     -0.272300
     10 C7          2.1820    0.1110    1.2330 c3        1 RT8      0.034500
     11 N3          1.6000    0.0490    2.6120 n4        1 RT8     -0.676800
     12 C8          1.0900   -1.3250    3.0140 c         1 RT8      0.557100
     13 O1          1.7080   -2.2840    2.5820 o         1 RT8     -0.421100
     14 C9         -0.1310   -1.3100    3.9030 c3        1 RT8     -0.126700
     15 C15        -0.2060   -2.6180    4.6850 c3        1 RT8     -0.080900
     16 C14        -1.4510   -2.6380    5.5470 c3        1 RT8     -0.077400
     17 C12        -2.7100   -2.4330    4.7170 c3        1 RT8     -0.070700
     18 C13        -3.9330   -2.4130    5.6080 c3        1 RT8     -0.094100
     19 C11        -2.6160   -1.1440    3.9150 c3        1 RT8     -0.077400
     20 C10        -1.3780   -1.1240    3.0410 c3        1 RT8     -0.080900
     21 C16         3.2150    1.2420    1.0740 c3        1 RT8     -0.005200
     22 C17         4.0260    1.4820    2.2710 cc        1 RT8     -0.259400
     23 C20         4.7580    0.5170    3.0670 ca        1 RT8     -0.113800
     24 C21         4.9010   -0.8740    3.0430 ca        1 RT8     -0.129000
     25 C22         5.7200   -1.4830    3.9800 ca        1 RT8     -0.122000
     26 C23         6.4080   -0.7320    4.9520 ca        1 RT8     -0.103000
     27 C24         6.2990    0.6480    5.0120 ca        1 RT8     -0.119000
     28 C19         5.4750    1.2780    4.0650 ca        1 RT8     -0.050200
     29 N4          5.1780    2.6340    3.8760 na        1 RT8     -0.166400
     30 C18         4.3260    2.7510    2.7900 cd        1 RT8     -0.046100
     31 H2          2.3040   -0.2670   -1.2980 hn        1 RT8      0.335500
     32 H7          2.6890   -0.8860    1.0490 hx        1 RT8      0.132700
     33 H4          2.0350   -0.6560   -3.6100 ha        1 RT8      0.161500
     34 H1         -1.1860    1.1450   -1.2470 ha        1 RT8      0.161500
     35 H3          0.5650   -0.3880   -5.6180 h4        1 RT8      0.040600
     36 HA         -2.4910    1.3210   -3.3740 h4        1 RT8      0.040600
     37 HB          0.8160    0.7170    2.6640 hn        1 RT8      0.479300
     38 H161        2.6850    2.1910    0.7820 hc        1 RT8      0.083700
     39 H162        3.8810    0.9480    0.2140 hc        1 RT8      0.083700
     40 H9         -0.0580   -0.4570    4.6370 hc        1 RT8      0.087700
     41 H151       -0.2210   -3.4810    3.9680 hc        1 RT8      0.065950
     42 H152        0.7060   -2.7260    5.3290 hc        1 RT8      0.065950
     43 H101       -1.4390   -1.9550    2.2880 hc        1 RT8      0.065950
     44 H102       -1.3240   -0.1550    2.4780 hc        1 RT8      0.065950
     45 H141       -1.5090   -3.6250    6.0770 hc        1 RT8      0.060700
     46 H142       -1.3830   -1.8380    6.3310 hc        1 RT8      0.060700
     47 H12        -2.8030   -3.2940    3.9960 hc        1 RT8      0.058700
     48 H131       -3.8780   -1.5710    6.3390 hc        1 RT8      0.046033
     49 H132       -4.8570   -2.2890    4.9930 hc        1 RT8      0.046033
     50 H133       -4.0120   -3.3710    6.1770 hc        1 RT8      0.046033
     51 H111       -3.5230   -1.0430    3.2610 hc        1 RT8      0.060700
     52 H112       -2.6040   -0.2660    4.6120 hc        1 RT8      0.060700
     53 H18         3.9830    3.7320    2.4450 h4        1 RT8      0.184000
     54 H21         4.3860   -1.4760    2.2800 ha        1 RT8      0.127000
     55 H22         5.8490   -2.5770    3.9640 ha        1 RT8      0.149000
     56 H23         7.0530   -1.2570    5.6750 ha        1 RT8      0.154000
     57 H24         6.8450    1.2310    5.7680 ha        1 RT8      0.154000
     58 HC          5.5920    3.3820    4.3720 hn        1 RT8      0.320700
     59 H32         2.3370    0.3310    3.2810 hn        1 RT8      0.479300
@<TRIPOS>BOND
     1    1    2 2   
     2    2    3 1   
     3    2   10 1   
     4    3    4 1   
     5    3   31 1   
     6    4    5 ar  
     7    4    9 ar  
     8    5    6 ar  
     9    5   33 1   
    10    6    7 ar  
    11    6   35 1   
    12    7    8 ar  
    13    8    9 ar  
    14    8   36 1   
    15    9   34 1   
    16   10   11 1   
    17   10   21 1   
    18   10   32 1   
    19   11   12 1   
    20   11   37 1   
    21   11   59 1   
    22   12   13 2   
    23   12   14 1   
    24   14   15 1   
    25   14   20 1   
    26   14   40 1   
    27   15   16 1   
    28   15   41 1   
    29   15   42 1   
    30   16   17 1   
    31   16   45 1   
    32   16   46 1   
    33   17   18 1   
    34   17   19 1   
    35   17   47 1   
    36   18   48 1   
    37   18   49 1   
    38   18   50 1   
    39   19   20 1   
    40   19   51 1   
    41   19   52 1   
    42   20   43 1   
    43   20   44 1   
    44   21   22 1   
    45   21   38 1   
    46   21   39 1   
    47   22   23 1   
    48   22   30 2   
    49   23   24 ar  
    50   23   28 ar  
    51   24   25 ar  
    52   24   54 1   
    53   25   26 ar  
    54   25   55 1   
    55   26   27 ar  
    56   26   56 1   
    57   27   28 ar  
    58   27   57 1   
    59   28   29 1   
    60   29   30 1   
    61   29   58 1   
    62   30   53 1   
@<TRIPOS>SUBSTRUCTURE
     1 RT8         1 TEMP              0 ****  ****    0 ROOT
