@<TRIPOS>MOLECULE
RTD
   18    18     1     0     0
SMALL
bcc


@<TRIPOS>ATOM
      1 O1          0.5860   -1.2490    0.0380 o         1 RTD     -0.821300
      2 C           1.3210   -0.2210    0.0290 c         1 RTD      0.924600
      3 O2          1.4760    0.5490   -0.9530 o         1 RTD     -0.821300
      4 CA          2.1100    0.1320    1.3250 c3        1 RTD     -0.034300
      5 S1          2.9010   -1.3090    2.0440 sh        1 RTD     -0.501900
      6 CB          1.2530    0.7820    2.3450 ca        1 RTD     -0.017300
      7 CG1         1.7450    1.8510    3.1060 ca        1 RTD     -0.122500
      8 CD1         0.9460    2.4620    4.0710 ca        1 RTD     -0.145500
      9 CE         -0.3560    2.0150    4.2870 ca        1 RTD     -0.158000
     10 CD2        -0.8580    0.9580    3.5270 ca        1 RTD     -0.145500
     11 CG2        -0.0640    0.3450    2.5620 ca        1 RTD     -0.122500
     12 HA          2.9540    0.8090    1.0340 h1        1 RTD      0.078700
     13 H2          2.1040   -2.2460    1.5220 hs        1 RTD      0.262800
     14 HG1         2.7710    2.2110    2.9370 ha        1 RTD      0.149500
     15 HD1         1.3450    3.2980    4.6620 ha        1 RTD      0.109000
     16 HE         -0.9860    2.4960    5.0470 ha        1 RTD      0.105000
     17 HD2        -1.8880    0.6080    3.6870 ha        1 RTD      0.109000
     18 HG2        -0.4540   -0.4810    1.9390 ha        1 RTD      0.149500
@<TRIPOS>BOND
     1    1    2 1   
     2    2    3 1   
     3    2    4 1   
     4    4    5 1   
     5    4    6 1   
     6    4   12 1   
     7    5   13 1   
     8    6    7 ar  
     9    6   11 ar  
    10    7    8 ar  
    11    7   14 1   
    12    8    9 ar  
    13    8   15 1   
    14    9   10 ar  
    15    9   16 1   
    16   10   11 ar  
    17   10   17 1   
    18   11   18 1   
@<TRIPOS>SUBSTRUCTURE
     1 RTD         1 TEMP              0 ****  ****    0 ROOT
