@<TRIPOS>MOLECULE
RTD
   18    18     1     0     0
SMALL
bcc


@<TRIPOS>ATOM
      1 O1         -1.9260    0.6400    1.4760 o         1 RTD     -0.821300
      2 C          -1.7340    0.8000    0.2380 c         1 RTD      0.924600
      3 O2         -2.1900    1.7500   -0.4480 o         1 RTD     -0.821300
      4 CA         -0.8740   -0.2570   -0.5180 c3        1 RTD     -0.034300
      5 S1         -1.3280   -1.9340   -0.0730 sh        1 RTD     -0.501900
      6 CB          0.5780   -0.0630   -0.2910 ca        1 RTD     -0.017300
      7 CG1         1.4870   -0.2280   -1.3460 ca        1 RTD     -0.122500
      8 CD1         2.8540   -0.0550   -1.1370 ca        1 RTD     -0.145500
      9 CE          3.3320    0.2890    0.1260 ca        1 RTD     -0.158000
     10 CD2         2.4340    0.4640    1.1790 ca        1 RTD     -0.145500
     11 CG2         1.0670    0.2930    0.9760 ca        1 RTD     -0.122500
     12 HA         -1.1150   -0.1720   -1.6080 h1        1 RTD      0.078700
     13 H2         -1.8640   -1.6770    1.1230 hs        1 RTD      0.262800
     14 HG1         1.1150   -0.4950   -2.3460 ha        1 RTD      0.149500
     15 HD1         3.5550   -0.1880   -1.9720 ha        1 RTD      0.109000
     16 HE          4.4090    0.4250    0.2900 ha        1 RTD      0.105000
     17 HD2         2.8060    0.7440    2.1750 ha        1 RTD      0.109000
     18 HG2         0.3420    0.4470    1.7960 ha        1 RTD      0.149500
@<TRIPOS>BOND
     1    1    2 1   
     2    2    3 1   
     3    2    4 1   
     4    4    5 1   
     5    4    6 1   
     6    4   12 1   
     7    5   13 1   
     8    6    7 ar  
     9    6   11 ar  
    10    7    8 ar  
    11    7   14 1   
    12    8    9 ar  
    13    8   15 1   
    14    9   10 ar  
    15    9   16 1   
    16   10   11 ar  
    17   10   17 1   
    18   11   18 1   
@<TRIPOS>SUBSTRUCTURE
     1 RTD         1 TEMP              0 ****  ****    0 ROOT
