@<TRIPOS>MOLECULE
RTD
   18    18     1     0     0
SMALL
bcc


@<TRIPOS>ATOM
      1 O1          0.5160   -1.2640    0.0590 o         1 RTD     -0.821300
      2 C           1.3690   -0.3320    0.0820 c         1 RTD      0.924600
      3 O2          1.6870    0.3830   -0.9020 o         1 RTD     -0.821300
      4 CA          2.1020   -0.0380    1.4250 c3        1 RTD     -0.034300
      5 S1          2.6580   -1.5410    2.2310 sh        1 RTD     -0.501900
      6 CB          1.2610    0.7420    2.3640 ca        1 RTD     -0.017300
      7 CG1         1.8250    1.7670    3.1360 ca        1 RTD     -0.122500
      8 CD1         1.0400    2.4980    4.0270 ca        1 RTD     -0.145500
      9 CE         -0.3190    2.2180    4.1550 ca        1 RTD     -0.158000
     10 CD2        -0.8910    1.2050    3.3840 ca        1 RTD     -0.145500
     11 CG2        -0.1120    0.4730    2.4930 ca        1 RTD     -0.122500
     12 HA          3.0400    0.5230    1.1820 h1        1 RTD      0.078700
     13 H2          1.7920   -2.3900    1.6720 hs        1 RTD      0.262800
     14 HG1         2.8960    1.9960    3.0360 ha        1 RTD      0.149500
     15 HD1         1.4950    3.2980    4.6260 ha        1 RTD      0.109000
     16 HE         -0.9380    2.7940    4.8570 ha        1 RTD      0.105000
     17 HD2        -1.9650    0.9870    3.4750 ha        1 RTD      0.109000
     18 HG2        -0.5540   -0.3190    1.8610 ha        1 RTD      0.149500
@<TRIPOS>BOND
     1    1    2 1   
     2    2    3 1   
     3    2    4 1   
     4    4    5 1   
     5    4    6 1   
     6    4   12 1   
     7    5   13 1   
     8    6    7 ar  
     9    6   11 ar  
    10    7    8 ar  
    11    7   14 1   
    12    8    9 ar  
    13    8   15 1   
    14    9   10 ar  
    15    9   16 1   
    16   10   11 ar  
    17   10   17 1   
    18   11   18 1   
@<TRIPOS>SUBSTRUCTURE
     1 RTD         1 TEMP              0 ****  ****    0 ROOT
