@<TRIPOS>MOLECULE
RTH
   43    45     1     0     0
SMALL
bcc


@<TRIPOS>ATOM
      1 C4          1.0750    1.5340   -0.4340 ca        1 RTH     -0.085000
      2 C5          2.3470    0.9600   -0.2020 ca        1 RTH     -0.186300
      3 C6          2.5060   -0.0560    0.7890 ca        1 RTH      0.444600
      4 C8          4.7900   -0.2550    0.3440 ca        1 RTH      0.641200
      5 C10         3.5020    1.3620   -0.9310 ca        1 RTH     -0.054000
      6 C13        -3.7290    1.6110   -0.3730 ca        1 RTH     -0.112000
      7 C15        -2.6640    3.7610   -0.1250 ca        1 RTH     -0.126000
      8 C20        -2.4460   -3.0840   -0.3940 c3        1 RTH      0.028100
      9 C21        -1.3100   -3.5380   -1.3100 c3        1 RTH     -0.085433
     10 C22        -3.7760   -3.5780   -0.9610 c3        1 RTH     -0.085433
     11 C23        -2.2390   -3.6840    0.9960 c3        1 RTH     -0.085433
     12 C19        -2.4570   -1.6410   -0.3080 c1        1 RTH     -0.097100
     13 C12        -2.4970    0.9620   -0.1740 ca        1 RTH      0.046000
     14 C14        -3.8120    2.9990   -0.3460 ca        1 RTH     -0.131000
     15 C16        -1.4400    3.1310    0.0740 ca        1 RTH     -0.125000
     16 C11        -1.3390    1.7320    0.0590 cp        1 RTH     -0.015000
     17 C1         -0.0290    1.1190    0.2850 cp        1 RTH     -0.052000
     18 C9          4.7110    0.7780   -0.6750 ca        1 RTH     -0.278300
     19 N17         6.0180   -0.9110    0.5200 nh        1 RTH     -0.927500
     20 N7          3.7190   -0.6420    1.0640 nb        1 RTH     -0.735000
     21 C3          1.3440   -0.4640    1.5240 ca        1 RTH     -0.188300
     22 C2          0.1240    0.1060    1.2700 ca        1 RTH     -0.090000
     23 H4          0.9790    2.3160   -1.2030 ha        1 RTH      0.135000
     24 H10         3.4010    2.1440   -1.6990 ha        1 RTH      0.138000
     25 H13        -4.6320    1.0080   -0.5540 ha        1 RTH      0.139000
     26 H15        -2.7260    4.8590   -0.1050 ha        1 RTH      0.133000
     27 H21        -0.3270   -3.1950   -0.9090 hc        1 RTH      0.040811
     28 H21A       -1.3030   -4.6520   -1.3760 hc        1 RTH      0.040811
     29 H21B       -1.4460   -3.1170   -2.3340 hc        1 RTH      0.040811
     30 H22        -3.9420   -3.1590   -1.9810 hc        1 RTH      0.040811
     31 H22A       -3.7640   -4.6920   -1.0280 hc        1 RTH      0.040811
     32 H22B       -4.6190   -3.2660   -0.3010 hc        1 RTH      0.040811
     33 H23        -3.0660   -3.3770    1.6790 hc        1 RTH      0.040811
     34 H23A       -2.2250   -4.7980    0.9250 hc        1 RTH      0.040811
     35 H23B       -1.2690   -3.3390    1.4270 hc        1 RTH      0.040811
     36 H14        -4.7810    3.4950   -0.5010 ha        1 RTH      0.134000
     37 H16        -0.5340    3.7310    0.2520 ha        1 RTH      0.137000
     38 H9          5.6130    1.0660   -1.2310 ha        1 RTH      0.142000
     39 HN17        6.0940   -1.4920    1.3250 hn        1 RTH      0.404800
     40 HN1A        6.8100   -0.3300    0.3620 hn        1 RTH      0.404800
     41 H3          1.4470   -1.2450    2.2930 ha        1 RTH      0.149000
     42 H2         -0.7690   -0.2180    1.8300 ha        1 RTH      0.144000
     43 C18        -2.4580   -0.4440   -0.2340 cg        1 RTH     -0.131000
@<TRIPOS>BOND
     1    1    2 ar  
     2    1   17 ar  
     3    1   23 1   
     4    2    3 ar  
     5    2    5 ar  
     6    3   20 ar  
     7    3   21 ar  
     8    4   18 ar  
     9    4   19 1   
    10    4   20 ar  
    11    5   18 ar  
    12    5   24 1   
    13    6   13 ar  
    14    6   14 ar  
    15    6   25 1   
    16    7   14 ar  
    17    7   15 ar  
    18    7   26 1   
    19    8    9 1   
    20    8   10 1   
    21    8   11 1   
    22    8   12 1   
    23    9   27 1   
    24    9   28 1   
    25    9   29 1   
    26   10   30 1   
    27   10   31 1   
    28   10   32 1   
    29   11   33 1   
    30   11   34 1   
    31   11   35 1   
    32   12   43 3   
    33   13   16 ar  
    34   13   43 1   
    35   14   36 1   
    36   15   16 ar  
    37   15   37 1   
    38   16   17 1   
    39   17   22 ar  
    40   18   38 1   
    41   19   39 1   
    42   19   40 1   
    43   21   22 ar  
    44   21   41 1   
    45   22   42 1   
@<TRIPOS>SUBSTRUCTURE
     1 RTH         1 TEMP              0 ****  ****    0 ROOT
