@<TRIPOS>MOLECULE
RTH
   43    45     1     0     0
SMALL
bcc


@<TRIPOS>ATOM
      1 C4          0.0470    0.0130    0.0560 ca        1 RTH     -0.085000
      2 C5          1.4590    0.0890    0.0790 ca        1 RTH     -0.186300
      3 C6          2.1540    0.1520    1.3250 ca        1 RTH      0.444600
      4 C8          4.2310    0.2600    0.2610 ca        1 RTH      0.642200
      5 C10         2.2350    0.1060   -1.1150 ca        1 RTH     -0.054000
      6 C13        -4.2780   -1.0020    1.8890 ca        1 RTH     -0.112000
      7 C15        -4.2230    0.8520    0.3460 ca        1 RTH     -0.125000
      8 C20        -1.1120   -3.8480    4.2460 c3        1 RTH      0.029100
      9 C21        -0.0130   -4.5500    3.4500 c3        1 RTH     -0.085433
     10 C22        -2.1590   -4.8760    4.6720 c3        1 RTH     -0.085433
     11 C23        -0.4990   -3.2100    5.4920 c3        1 RTH     -0.085433
     12 C19        -1.7320   -2.8280    3.4300 c1        1 RTH     -0.099100
     13 C12        -2.8730   -1.0100    1.9520 ca        1 RTH      0.045000
     14 C14        -4.9470   -0.0770    1.0940 ca        1 RTH     -0.131000
     15 C16        -2.8330    0.8550    0.4000 ca        1 RTH     -0.124000
     16 C11        -2.1410   -0.0660    1.2020 cp        1 RTH     -0.015000
     17 C1         -0.6790   -0.0120    1.2310 cp        1 RTH     -0.052000
     18 C9          3.5970    0.1870   -1.0450 ca        1 RTH     -0.278300
     19 N17         5.6210    0.4470    0.3070 nv        1 RTH     -0.927500
     20 N7          3.5250    0.2230    1.4080 nb        1 RTH     -0.735000
     21 C3          1.3750    0.1280    2.5290 ca        1 RTH     -0.188300
     22 C2          0.0090    0.0450    2.4730 ca        1 RTH     -0.090000
     23 H4         -0.4660   -0.0300   -0.9180 ha        1 RTH      0.135000
     24 H10         1.7190    0.0530   -2.0860 ha        1 RTH      0.138000
     25 H13        -4.8470   -1.7390    2.4750 ha        1 RTH      0.139000
     26 H15        -4.7500    1.5840   -0.2840 ha        1 RTH      0.134000
     27 H21         0.7680   -3.8170    3.1360 hc        1 RTH      0.040811
     28 H21A        0.4640   -5.3370    4.0820 hc        1 RTH      0.040811
     29 H21B       -0.4410   -5.0300    2.5380 hc        1 RTH      0.040811
     30 H22        -2.6130   -5.3610    3.7760 hc        1 RTH      0.040811
     31 H22A       -1.6770   -5.6620    5.3020 hc        1 RTH      0.040811
     32 H22B       -2.9670   -4.3860    5.2640 hc        1 RTH      0.040811
     33 H23        -1.2880   -2.7030    6.0980 hc        1 RTH      0.040811
     34 H23A       -0.0160   -3.9990    6.1180 hc        1 RTH      0.040811
     35 H23B        0.2730   -2.4580    5.2030 hc        1 RTH      0.040811
     36 H14        -6.0460   -0.0800    1.0560 ha        1 RTH      0.134000
     37 H16        -2.2610    1.5900   -0.1870 ha        1 RTH      0.138000
     38 H9          4.2160    0.2100   -1.9520 ha        1 RTH      0.142000
     39 HN17        6.0500    0.3320    1.1990 hn        1 RTH      0.404800
     40 HN1A        6.1100    0.0100   -0.4400 hn        1 RTH      0.404800
     41 H3          1.8940    0.1780    3.4990 ha        1 RTH      0.149000
     42 H2         -0.5850    0.0180    3.4010 ha        1 RTH      0.144000
     43 C18        -2.2390   -1.9790    2.7520 cg        1 RTH     -0.129000
@<TRIPOS>BOND
     1    1    2 ar  
     2    1   17 ar  
     3    1   23 1   
     4    2    3 ar  
     5    2    5 ar  
     6    3   20 ar  
     7    3   21 ar  
     8    4   18 ar  
     9    4   19 1   
    10    4   20 ar  
    11    5   18 ar  
    12    5   24 1   
    13    6   13 ar  
    14    6   14 ar  
    15    6   25 1   
    16    7   14 ar  
    17    7   15 ar  
    18    7   26 1   
    19    8    9 1   
    20    8   10 1   
    21    8   11 1   
    22    8   12 1   
    23    9   27 1   
    24    9   28 1   
    25    9   29 1   
    26   10   30 1   
    27   10   31 1   
    28   10   32 1   
    29   11   33 1   
    30   11   34 1   
    31   11   35 1   
    32   12   43 3   
    33   13   16 ar  
    34   13   43 1   
    35   14   36 1   
    36   15   16 ar  
    37   15   37 1   
    38   16   17 1   
    39   17   22 ar  
    40   18   38 1   
    41   19   39 1   
    42   19   40 1   
    43   21   22 ar  
    44   21   41 1   
    45   22   42 1   
@<TRIPOS>SUBSTRUCTURE
     1 RTH         1 TEMP              0 ****  ****    0 ROOT
