@<TRIPOS>MOLECULE
RTH
   43    37     1     0     0
SMALL
bcc


@<TRIPOS>ATOM
      1 C4          0.1880   -0.2400   -1.2380 c1        1 RTH     -0.085000
      2 C5          0.7280   -0.7700   -2.4260 c1        1 RTH     -0.121000
      3 C6          2.0730   -1.0950   -2.4910 c1        1 RTH      0.051000
      4 C8          1.8120   -1.8050   -4.7480 c1        1 RTH      0.120000
      5 C10        -0.0810   -0.9620   -3.5260 c2        1 RTH     -0.054000
      6 C13        -0.5630    3.2130    0.5250 c1        1 RTH     -0.118500
      7 C15         0.8050    3.3820   -1.4270 c1        1 RTH     -0.128500
      8 C20        -1.9370   -0.5340    3.8550 c3        1 RTH      0.055000
      9 C21        -1.6370   -2.0100    3.6080 c3        1 RTH     -0.203333
     10 C22        -1.3700   -0.1380    5.1150 c3        1 RTH     -0.203333
     11 C23        -3.4530   -0.3170    3.8860 c3        1 RTH     -0.203333
     12 C19        -1.3070    0.3350    2.7060 c1        1 RTH     -0.124000
     13 C18        -0.8110    1.0210    1.8060 c1        1 RTH     -0.135000
     14 C12        -0.1850    1.8890    0.6720 c1        1 RTH      0.017500
     15 C14        -0.0680    3.9570   -0.5220 c1        1 RTH     -0.128500
     16 C16         1.1810    2.0660   -1.2810 c1        1 RTH     -0.118500
     17 C11         0.6860    1.3180   -0.2310 c1        1 RTH      0.017500
     18 C1          1.0040   -0.0440   -0.1310 c1        1 RTH     -0.052000
     19 C9          0.4460   -1.4750   -4.6830 c2        1 RTH     -0.213000
     20 N17         2.5470   -2.3150   -5.8610 n2        1 RTH     -0.325000
     21 N7          2.6070   -1.6160   -3.6670 n2        1 RTH     -0.209000
     22 C3          2.8960   -0.8960   -1.3720 c1        1 RTH     -0.123000
     23 C2          2.3600   -0.3720   -0.1960 c1        1 RTH     -0.090000
     24 H4         -0.7670   -0.0440   -1.1820 ha        1 RTH      0.135000
     25 H10        -1.0500   -0.7280   -3.4800 ha        1 RTH      0.138000
     26 H13        -1.1660    3.6100    1.1500 ha        1 RTH      0.138000
     27 H15         1.1580    3.9130   -2.1740 ha        1 RTH      0.133500
     28 H21        -0.6710   -2.1570    3.6560 hc        1 RTH      0.080111
     29 H21A       -2.0910   -2.5600    4.3010 hc        1 RTH      0.080111
     30 H21B       -1.9590   -2.2640    2.7300 hc        1 RTH      0.080111
     31 H22        -1.8850   -0.5250    5.8350 hc        1 RTH      0.080111
     32 H22A       -1.3890    0.8500    5.1900 hc        1 RTH      0.080111
     33 H22B       -0.4320   -0.4570    5.1710 hc        1 RTH      0.080111
     34 H23        -3.8330   -0.5430    3.0160 hc        1 RTH      0.080111
     35 H23A       -3.6430    0.6200    4.0910 hc        1 RTH      0.080111
     36 H23B       -3.8640   -0.9070    4.5980 hc        1 RTH      0.080111
     37 H14        -0.3360    4.8940   -0.6270 ha        1 RTH      0.133500
     38 H16         1.7860    1.6700   -1.9080 ha        1 RTH      0.138000
     39 H9         -0.1160   -1.5930   -5.4590 ha        1 RTH      0.142000
     40 HN17        3.4250   -2.5890   -5.7500 hn        1 RTH      0.200000
     41 HN1A        2.1380   -2.4150   -6.6710 hn        1 RTH      0.200000
     42 H3          3.8620   -1.1290   -1.4180 ha        1 RTH      0.149000
     43 H2          2.9150   -0.2380    0.5570 ha        1 RTH      0.144000
@<TRIPOS>BOND
     1    1    2 1   
     2    1   24 1   
     3    2    5 1   
     4    3   21 1   
     5    3   22 1   
     6    4   19 1   
     7    4   21 1   
     8    5   19 1   
     9    5   25 1   
    10    6   14 1   
    11    6   26 1   
    12    7   15 1   
    13    7   27 1   
    14    8    9 1   
    15    8   10 1   
    16    8   11 1   
    17    8   12 1   
    18    9   28 1   
    19    9   29 1   
    20    9   30 1   
    21   10   31 1   
    22   10   32 1   
    23   10   33 1   
    24   11   34 1   
    25   11   35 1   
    26   11   36 1   
    27   12   13 1   
    28   14   17 1   
    29   15   37 1   
    30   16   17 1   
    31   16   38 1   
    32   18   23 1   
    33   19   39 1   
    34   20   40 1   
    35   20   41 1   
    36   22   42 1   
    37   23   43 1   
@<TRIPOS>SUBSTRUCTURE
     1 RTH         1 TEMP              0 ****  ****    0 ROOT
