@<TRIPOS>MOLECULE
RTH
   44    46     1     0     0
SMALL
bcc


@<TRIPOS>ATOM
      1 C4          0.1400    0.1250   -0.0580 ca        1 RTH     -0.123000
      2 C5          1.5440    0.2880   -0.0590 ca        1 RTH     -0.110300
      3 C6          2.2560    0.3280    1.1900 ca        1 RTH      0.401600
      4 C8          4.2650    0.6050    0.0740 ca        1 RTH      0.444200
      5 C10         2.2880    0.4150   -1.2630 ca        1 RTH     -0.032000
      6 C13        -4.0730   -1.2140    1.8460 ca        1 RTH     -0.109000
      7 C15        -4.1590    0.6420    0.3050 ca        1 RTH     -0.122000
      8 C20        -0.7670   -3.8940    4.1660 c3        1 RTH      0.020100
      9 C21         0.3500   -4.5660    3.3700 c3        1 RTH     -0.086100
     10 C22        -1.7860   -4.9510    4.5920 c3        1 RTH     -0.086100
     11 C23        -0.1750   -3.2390    5.4130 c3        1 RTH     -0.086100
     12 C19        -1.4190   -2.8940    3.3490 c1        1 RTH     -0.069100
     13 C12        -2.6690   -1.1350    1.8880 ca        1 RTH      0.069000
     14 C14        -4.8100   -0.3310    1.0650 ca        1 RTH     -0.103000
     15 C16        -2.7710    0.7290    0.3320 ca        1 RTH     -0.110000
     16 C11        -2.0120   -0.1470    1.1240 cp        1 RTH     -0.072000
     17 C1         -0.5570   -0.0050    1.1300 cp        1 RTH      0.045000
     18 C9          3.6550    0.5750   -1.2210 ca        1 RTH     -0.248300
     19 N17         5.7360    0.7780    0.1410 n4        1 RTH     -0.820300
     20 N7          3.6180    0.4880    1.2370 nb        1 RTH     -0.624000
     21 C3          1.5110    0.1940    2.4060 ca        1 RTH     -0.162300
     22 C2          0.1510    0.0310    2.3650 ca        1 RTH     -0.077000
     23 H4         -0.3930    0.0950   -1.0230 ha        1 RTH      0.161000
     24 H10         1.7590    0.3840   -2.2310 ha        1 RTH      0.175000
     25 H13        -4.5860   -1.9860    2.4410 ha        1 RTH      0.153000
     26 H15        -4.7420    1.3420   -0.3140 ha        1 RTH      0.147000
     27 H21         0.8420   -5.3440    4.0010 hc        1 RTH      0.043589
     28 H21A        1.1160   -3.8150    3.0630 hc        1 RTH      0.043589
     29 H21B       -0.0640   -5.0540    2.4560 hc        1 RTH      0.043589
     30 H22        -1.2820   -5.7220    5.2230 hc        1 RTH      0.043589
     31 H22A       -2.2250   -5.4500    3.6960 hc        1 RTH      0.043589
     32 H22B       -2.6080   -4.4830    5.1830 hc        1 RTH      0.043589
     33 H23         0.3260   -4.0140    6.0410 hc        1 RTH      0.043589
     34 H23A       -0.9790   -2.7530    6.0160 hc        1 RTH      0.043589
     35 H23B        0.5780   -2.4670    5.1280 hc        1 RTH      0.043589
     36 H14        -5.9090   -0.4010    1.0450 ha        1 RTH      0.150000
     37 H16        -2.2590    1.5010   -0.2630 ha        1 RTH      0.135000
     38 H9          4.2480    0.6750   -2.1400 ha        1 RTH      0.163000
     39 HN17        5.9810    1.6670   -0.3060 hn        1 RTH      0.468800
     40 HN1A        6.1800    0.0040   -0.3630 hn        1 RTH      0.468800
     41 H3          2.0440    0.2250    3.3710 ha        1 RTH      0.167000
     42 H2         -0.4250   -0.0810    3.3010 ha        1 RTH      0.175000
     43 H173        6.0660    0.7850    1.1150 hn        1 RTH      0.468800
     44 C18        -1.9640   -2.0650    2.6750 cg        1 RTH     -0.164000
@<TRIPOS>BOND
     1    1    2 ar  
     2    1   17 ar  
     3    1   23 1   
     4    2    3 ar  
     5    2    5 ar  
     6    3   20 ar  
     7    3   21 ar  
     8    4   18 ar  
     9    4   19 1   
    10    4   20 ar  
    11    5   18 ar  
    12    5   24 1   
    13    6   13 ar  
    14    6   14 ar  
    15    6   25 1   
    16    7   14 ar  
    17    7   15 ar  
    18    7   26 1   
    19    8    9 1   
    20    8   10 1   
    21    8   11 1   
    22    8   12 1   
    23    9   27 1   
    24    9   28 1   
    25    9   29 1   
    26   10   30 1   
    27   10   31 1   
    28   10   32 1   
    29   11   33 1   
    30   11   34 1   
    31   11   35 1   
    32   12   44 3   
    33   13   16 ar  
    34   13   44 1   
    35   14   36 1   
    36   15   16 ar  
    37   15   37 1   
    38   16   17 1   
    39   17   22 ar  
    40   18   38 1   
    41   19   39 1   
    42   19   40 1   
    43   19   43 1   
    44   21   22 ar  
    45   21   41 1   
    46   22   42 1   
@<TRIPOS>SUBSTRUCTURE
     1 RTH         1 TEMP              0 ****  ****    0 ROOT
