@<TRIPOS>MOLECULE
RTK
   27    26     1     0     0
SMALL
bcc


@<TRIPOS>ATOM
      1 O7          1.1740   -1.0130   -0.9920 o         1 RTK     -0.851300
      2 P5          1.9160   -0.1030   -0.1290 p5        1 RTK      1.451300
      3 O4          0.9110    0.4640    0.9770 oh        1 RTK     -0.794400
      4 C6          2.5040    1.2460   -0.9040 c3        1 RTK     -0.392600
      5 C3          1.6940    1.4020   -2.1640 c3        1 RTK     -0.092400
      6 C2          2.1980    2.5680   -2.9980 c3        1 RTK      0.122800
      7 N1          1.5300    2.7200   -4.3430 n4        1 RTK     -0.603800
      8 C28         0.0480    2.7930   -4.1870 c3        1 RTK      0.087100
      9 C9          2.0200    3.9870   -4.9700 c3        1 RTK      0.087100
     10 C8          1.8790    1.5720   -5.2320 c3        1 RTK      0.087100
     11 H4          0.0670    0.0240    1.0690 ho        1 RTK      0.494000
     12 H5          2.9230   -0.5390    0.5190 hp        1 RTK     -0.137400
     13 H61C        3.5940    1.1640   -1.1490 hc        1 RTK      0.117200
     14 H62C        2.4130    2.1650   -0.2650 hc        1 RTK      0.117200
     15 H31C        1.7410    0.4320   -2.7360 hc        1 RTK      0.088700
     16 H32C        0.6200    1.5560   -1.8710 hc        1 RTK      0.088700
     17 H21C        3.3030    2.4490   -3.1880 hx        1 RTK      0.098200
     18 H22C        2.0320    3.5300   -2.4320 hx        1 RTK      0.098200
     19 H281       -0.4180    3.0370   -5.1790 hx        1 RTK      0.103811
     20 H282       -0.2080    3.5930   -3.4420 hx        1 RTK      0.103811
     21 H283       -0.3420    1.8030   -3.8280 hx        1 RTK      0.103811
     22 H91C        3.1380    3.9480   -5.0630 hx        1 RTK      0.103811
     23 H92C        1.5630    4.0980   -5.9890 hx        1 RTK      0.103811
     24 H93C        1.7230    4.8590   -4.3300 hx        1 RTK      0.103811
     25 H81C        2.9940    1.5040   -5.3330 hx        1 RTK      0.103811
     26 H82C        1.4820    0.6170   -4.7930 hx        1 RTK      0.103811
     27 H83C        1.4180    1.7340   -6.2430 hx        1 RTK      0.103811
@<TRIPOS>BOND
     1    1    2 2   
     2    2    3 1   
     3    2    4 1   
     4    2   12 1   
     5    3   11 1   
     6    4    5 1   
     7    4   13 1   
     8    4   14 1   
     9    5    6 1   
    10    5   15 1   
    11    5   16 1   
    12    6    7 1   
    13    6   17 1   
    14    6   18 1   
    15    7    8 1   
    16    7    9 1   
    17    7   10 1   
    18    8   19 1   
    19    8   20 1   
    20    8   21 1   
    21    9   22 1   
    22    9   23 1   
    23    9   24 1   
    24   10   25 1   
    25   10   26 1   
    26   10   27 1   
@<TRIPOS>SUBSTRUCTURE
     1 RTK         1 TEMP              0 ****  ****    0 ROOT
