@<TRIPOS>MOLECULE
RTK
   26    25     1     0     0
SMALL
bcc


@<TRIPOS>ATOM
      1 O7          1.2080   -0.7510   -2.8440 o         1 RTK     -0.867500
      2 P5          0.8650   -0.0840   -1.5580 p5        1 RTK      1.259600
      3 O4         -0.4000    0.7010   -1.5360 o         1 RTK     -0.867500
      4 C6          2.1080    1.0340   -1.1650 c3        1 RTK     -0.361600
      5 C3          2.9580    1.3390   -2.3600 c3        1 RTK     -0.079400
      6 C2          2.7050    2.6850   -3.0300 c3        1 RTK      0.134800
      7 N1          1.5100    2.8170   -3.9460 n4        1 RTK     -0.586800
      8 C28         0.2740    3.1230   -3.1680 c3        1 RTK      0.058100
      9 C9          1.7730    3.9600   -4.8730 c3        1 RTK      0.058100
     10 C8          1.2950    1.5850   -4.7590 c3        1 RTK      0.058100
     11 H5          0.9620   -0.8980   -0.5430 hp        1 RTK     -0.208400
     12 H61C        1.6480    1.9610   -0.7440 hc        1 RTK      0.076200
     13 H62C        2.7590    0.6210   -0.3550 hc        1 RTK      0.076200
     14 H31C        2.8810    0.4920   -3.1030 hc        1 RTK      0.085200
     15 H32C        4.0410    1.3910   -2.0490 hc        1 RTK      0.085200
     16 H21C        2.5960    3.4820   -2.2410 hx        1 RTK      0.070700
     17 H22C        3.6110    2.9200   -3.6600 hx        1 RTK      0.070700
     18 H281        0.4320    4.0570   -2.5720 hx        1 RTK      0.104144
     19 H282        0.0210    2.2500   -2.4680 hx        1 RTK      0.104144
     20 H283       -0.5800    3.2620   -3.8790 hx        1 RTK      0.104144
     21 H91C        0.8640    4.1380   -5.5060 hx        1 RTK      0.104144
     22 H92C        2.6430    3.7160   -5.5360 hx        1 RTK      0.104144
     23 H93C        1.9970    4.8810   -4.2760 hx        1 RTK      0.104144
     24 H81C        0.9770    0.7160   -4.0840 hx        1 RTK      0.104144
     25 H82C        2.2500    1.3150   -5.2770 hx        1 RTK      0.104144
     26 H83C        0.4870    1.7810   -5.5090 hx        1 RTK      0.104144
@<TRIPOS>BOND
     1    1    2 1   
     2    2    3 1   
     3    2    4 1   
     4    2   11 1   
     5    4    5 1   
     6    4   12 1   
     7    4   13 1   
     8    5    6 1   
     9    5   14 1   
    10    5   15 1   
    11    6    7 1   
    12    6   16 1   
    13    6   17 1   
    14    7    8 1   
    15    7    9 1   
    16    7   10 1   
    17    8   18 1   
    18    8   19 1   
    19    8   20 1   
    20    9   21 1   
    21    9   22 1   
    22    9   23 1   
    23   10   24 1   
    24   10   25 1   
    25   10   26 1   
@<TRIPOS>SUBSTRUCTURE
     1 RTK         1 TEMP              0 ****  ****    0 ROOT
