@<TRIPOS>MOLECULE
RTK
   26    25     1     0     0
SMALL
bcc


@<TRIPOS>ATOM
      1 O7          1.1530   -0.7390   -2.8090 o         1 RTK     -0.867500
      2 P5          0.8390   -0.0500   -1.5270 p5        1 RTK      1.259600
      3 O4         -0.4090    0.7610   -1.4990 o         1 RTK     -0.867500
      4 C6          2.1100    1.0440   -1.1600 c3        1 RTK     -0.361600
      5 C3          2.9520    1.3190   -2.3680 c3        1 RTK     -0.079400
      6 C2          2.7190    2.6630   -3.0490 c3        1 RTK      0.134800
      7 N1          1.5170    2.8100   -3.9540 n4        1 RTK     -0.586800
      8 C28         0.2970    3.1510   -3.1640 c3        1 RTK      0.058100
      9 C9          1.7930    3.9370   -4.8960 c3        1 RTK      0.058100
     10 C8          1.2670    1.5740   -4.7500 c3        1 RTK      0.058100
     11 H5          0.9300   -0.8560   -0.5050 hp        1 RTK     -0.208400
     12 H61C        2.7610    0.6260   -0.3540 hc        1 RTK      0.076200
     13 H62C        1.6750    1.9860   -0.7440 hc        1 RTK      0.076200
     14 H31C        2.8480    0.4650   -3.1010 hc        1 RTK      0.085200
     15 H32C        4.0400    1.3510   -2.0700 hc        1 RTK      0.085200
     16 H21C        3.6230    2.8710   -3.6930 hx        1 RTK      0.070700
     17 H22C        2.6360    3.4700   -2.2680 hx        1 RTK      0.070700
     18 H281       -0.5620    3.3000   -3.8670 hx        1 RTK      0.104144
     19 H282        0.4820    4.0870   -2.5810 hx        1 RTK      0.104144
     20 H283        0.0340    2.2910   -2.4520 hx        1 RTK      0.104144
     21 H91C        0.8810    4.1280   -5.5200 hx        1 RTK      0.104144
     22 H92C        2.6510    3.6680   -5.5660 hx        1 RTK      0.104144
     23 H93C        2.0440    4.8600   -4.3110 hx        1 RTK      0.104144
     24 H81C        0.4550    1.7800   -5.4930 hx        1 RTK      0.104144
     25 H82C        2.2090    1.2790   -5.2770 hx        1 RTK      0.104144
     26 H83C        0.9390    0.7190   -4.0620 hx        1 RTK      0.104144
@<TRIPOS>BOND
     1    1    2 1   
     2    2    3 1   
     3    2    4 1   
     4    2   11 1   
     5    4    5 1   
     6    4   12 1   
     7    4   13 1   
     8    5    6 1   
     9    5   14 1   
    10    5   15 1   
    11    6    7 1   
    12    6   16 1   
    13    6   17 1   
    14    7    8 1   
    15    7    9 1   
    16    7   10 1   
    17    8   18 1   
    18    8   19 1   
    19    8   20 1   
    20    9   21 1   
    21    9   22 1   
    22    9   23 1   
    23   10   24 1   
    24   10   25 1   
    25   10   26 1   
@<TRIPOS>SUBSTRUCTURE
     1 RTK         1 TEMP              0 ****  ****    0 ROOT
