@<TRIPOS>MOLECULE
RTL
   51    51     1     0     0
SMALL
bcc


@<TRIPOS>ATOM
      1 C1          0.4210    4.6100   -7.7710 c3        1 RTL     -0.004800
      2 C2          0.8200    6.0390   -8.1550 c3        1 RTL     -0.070400
      3 C3         -0.1960    7.0630   -7.7070 c3        1 RTL     -0.076400
      4 C4         -0.3470    7.0290   -6.2030 c3        1 RTL     -0.042200
      5 C5         -0.4940    5.6450   -5.6710 c2        1 RTL     -0.099400
      6 C6         -0.1470    4.5450   -6.3730 ce        1 RTL     -0.085200
      7 C7         -0.3040    3.1950   -5.8380 ce        1 RTL     -0.113000
      8 C8         -1.4420    2.7270   -5.2990 cf        1 RTL     -0.137000
      9 C9         -1.6190    1.3760   -4.7820 cf        1 RTL     -0.066200
     10 C10        -2.8730    0.9150   -4.5670 ce        1 RTL     -0.133000
     11 C11        -3.2210   -0.4010   -4.0890 ce        1 RTL     -0.127000
     12 C12        -4.4950   -0.7630   -3.8490 cf        1 RTL     -0.120000
     13 C13        -4.9120   -2.0730   -3.3720 cf        1 RTL     -0.085200
     14 C14        -6.2190   -2.3170   -3.1570 c2        1 RTL     -0.157200
     15 C15        -6.7610   -3.6120   -2.6720 c3        1 RTL      0.163600
     16 O1         -8.1730   -3.4740   -2.5720 oh        1 RTL     -0.599800
     17 C16         1.6700    3.7390   -7.8870 c3        1 RTL     -0.085100
     18 C17        -0.6280    4.0910   -8.7520 c3        1 RTL     -0.085100
     19 C18        -1.0360    5.5950   -4.2900 c3        1 RTL     -0.063900
     20 C19        -0.3930    0.5810   -4.5300 c3        1 RTL     -0.061900
     21 C20        -3.8520   -3.0870   -3.1430 c3        1 RTL     -0.061900
     22 H21         1.8120    6.2790   -7.6890 hc        1 RTL      0.042200
     23 H22         0.9480    6.0930   -9.2680 hc        1 RTL      0.042200
     24 H31         0.1300    8.0860   -8.0310 hc        1 RTL      0.042200
     25 H32        -1.1860    6.8570   -8.1940 hc        1 RTL      0.042200
     26 H41         0.5530    7.5010   -5.7220 hc        1 RTL      0.048200
     27 H42        -1.2410    7.6400   -5.9020 hc        1 RTL      0.048200
     28 H7          0.5890    2.5510   -5.9200 ha        1 RTL      0.129000
     29 H8         -2.3340    3.3780   -5.2430 ha        1 RTL      0.127000
     30 H10        -3.7290    1.5840   -4.7740 ha        1 RTL      0.122000
     31 H11        -2.3960   -1.1160   -3.9310 ha        1 RTL      0.125000
     32 H12        -5.3150   -0.0400   -4.0140 ha        1 RTL      0.124000
     33 H14        -6.9810   -1.5400   -3.3380 ha        1 RTL      0.146000
     34 H151       -6.5120   -4.4420   -3.3910 h1        1 RTL      0.031700
     35 H152       -6.3340   -3.8690   -1.6620 h1        1 RTL      0.031700
     36 HO1        -8.5070   -4.3220   -2.2570 ho        1 RTL      0.401000
     37 H161        1.4000    2.6560   -7.8910 hc        1 RTL      0.036200
     38 H162        2.2020    3.9680   -8.8430 hc        1 RTL      0.036200
     39 H163        2.3640    3.9360   -7.0360 hc        1 RTL      0.036200
     40 H171       -0.9540    3.0650   -8.4570 hc        1 RTL      0.036200
     41 H172       -1.5210    4.7600   -8.7610 hc        1 RTL      0.036200
     42 H173       -0.2000    4.0500   -9.7820 hc        1 RTL      0.036200
     43 H181       -0.7540    4.6470   -3.7680 hc        1 RTL      0.044033
     44 H182       -0.6500    6.4570   -3.6900 hc        1 RTL      0.044033
     45 H183       -2.1530    5.6620   -4.3170 hc        1 RTL      0.044033
     46 H191       -0.5800   -0.2640   -3.8240 hc        1 RTL      0.044367
     47 H192       -0.0090    0.1580   -5.4930 hc        1 RTL      0.044367
     48 H193        0.4060    1.2260   -4.0870 hc        1 RTL      0.044367
     49 H201       -4.2750   -4.0580   -2.7850 hc        1 RTL      0.043033
     50 H202       -3.2920   -3.2800   -4.0930 hc        1 RTL      0.043033
     51 H203       -3.1260   -2.7190   -2.3750 hc        1 RTL      0.043033
@<TRIPOS>BOND
     1    1    2 1   
     2    1    6 1   
     3    1   17 1   
     4    1   18 1   
     5    2    3 1   
     6    2   22 1   
     7    2   23 1   
     8    3    4 1   
     9    3   24 1   
    10    3   25 1   
    11    4    5 1   
    12    4   26 1   
    13    4   27 1   
    14    5    6 2   
    15    5   19 1   
    16    6    7 1   
    17    7    8 2   
    18    7   28 1   
    19    8    9 1   
    20    8   29 1   
    21    9   10 2   
    22    9   20 1   
    23   10   11 1   
    24   10   30 1   
    25   11   12 2   
    26   11   31 1   
    27   12   13 1   
    28   12   32 1   
    29   13   14 2   
    30   13   21 1   
    31   14   15 1   
    32   14   33 1   
    33   15   16 1   
    34   15   34 1   
    35   15   35 1   
    36   16   36 1   
    37   17   37 1   
    38   17   38 1   
    39   17   39 1   
    40   18   40 1   
    41   18   41 1   
    42   18   42 1   
    43   19   43 1   
    44   19   44 1   
    45   19   45 1   
    46   20   46 1   
    47   20   47 1   
    48   20   48 1   
    49   21   49 1   
    50   21   50 1   
    51   21   51 1   
@<TRIPOS>SUBSTRUCTURE
     1 RTL         1 TEMP              0 ****  ****    0 ROOT
