@<TRIPOS>MOLECULE
RTL
   51    51     1     0     0
SMALL
bcc


@<TRIPOS>ATOM
      1 C1         -1.0650    0.1730    0.5930 c3        1 RTL     -0.002800
      2 C2          0.2170    0.9330    0.9510 c3        1 RTL     -0.069400
      3 C3          0.0880    1.6640    2.2670 c3        1 RTL     -0.075400
      4 C4         -0.2150    0.7080    3.3990 c3        1 RTL     -0.038200
      5 C5         -1.1110   -0.4210    3.0230 c2        1 RTL     -0.108400
      6 C6         -1.5040   -0.6790    1.7580 ce        1 RTL     -0.074200
      7 C7         -2.2670   -1.8880    1.4480 ce        1 RTL     -0.106000
      8 C8         -3.5480   -2.0480    1.1040 cf        1 RTL     -0.133000
      9 C9         -4.5930   -1.0560    0.8860 cf        1 RTL     -0.068200
     10 C10        -5.2040   -0.3420    1.8510 ce        1 RTL     -0.132000
     11 C11        -4.8820   -0.4120    3.2570 ce        1 RTL     -0.118000
     12 C12        -5.5620    0.1890    4.2450 cf        1 RTL     -0.130000
     13 C13        -6.7680    0.9970    4.1120 cf        1 RTL     -0.084200
     14 C14        -6.8420    2.2070    4.6950 c2        1 RTL     -0.169200
     15 C15        -8.0510    3.0670    4.6110 c3        1 RTL      0.164600
     16 O1         -7.7870    4.2590    5.3380 oh        1 RTL     -0.598800
     17 C16        -0.7710   -0.7060   -0.6190 c3        1 RTL     -0.085600
     18 C17        -2.1570    1.1700    0.2240 c3        1 RTL     -0.085600
     19 C18        -1.5010   -1.2680    4.1790 c3        1 RTL     -0.062900
     20 C19        -5.0390   -0.9530   -0.5310 c3        1 RTL     -0.060900
     21 C20        -7.9100    0.4250    3.3560 c3        1 RTL     -0.060900
     22 H21         0.4490    1.6630    0.1330 hc        1 RTL      0.041200
     23 H22         1.0690    0.2060    1.0090 hc        1 RTL      0.041200
     24 H31        -0.7240    2.4350    2.1930 hc        1 RTL      0.041700
     25 H32         1.0420    2.2120    2.4860 hc        1 RTL      0.041700
     26 H41        -0.6770    1.2760    4.2520 hc        1 RTL      0.046200
     27 H42         0.7480    0.2690    3.7810 hc        1 RTL      0.046200
     28 H7         -1.6390   -2.8000    1.5210 ha        1 RTL      0.120000
     29 H8         -3.9060   -3.0790    0.9040 ha        1 RTL      0.122000
     30 H10        -6.0160    0.3550    1.5750 ha        1 RTL      0.126000
     31 H11        -3.9800   -1.0040    3.5060 ha        1 RTL      0.133000
     32 H12        -5.1930    0.0940    5.2840 ha        1 RTL      0.125000
     33 H14        -6.0000    2.6290    5.2660 ha        1 RTL      0.147000
     34 H151       -8.2830    3.3170    3.5380 h1        1 RTL      0.029200
     35 H152       -8.9420    2.5390    5.0550 h1        1 RTL      0.029200
     36 HO1        -8.5790    4.8040    5.2630 ho        1 RTL      0.400000
     37 H161       -0.0150   -1.4850   -0.3620 hc        1 RTL      0.036867
     38 H162       -1.7040   -1.2140   -0.9650 hc        1 RTL      0.036867
     39 H163       -0.3740   -0.0810   -1.4540 hc        1 RTL      0.036867
     40 H171       -1.8060    1.8290   -0.6060 hc        1 RTL      0.036867
     41 H172       -2.4240    1.8060    1.1010 hc        1 RTL      0.036867
     42 H173       -3.0760    0.6310   -0.1110 hc        1 RTL      0.036867
     43 H181       -0.5930   -1.5590    4.7640 hc        1 RTL      0.042033
     44 H182       -2.0260   -2.2010    3.8600 hc        1 RTL      0.042033
     45 H183       -2.1820   -0.6950    4.8590 hc        1 RTL      0.042033
     46 H191       -5.5780    0.0080   -0.7190 hc        1 RTL      0.043700
     47 H192       -4.1650   -1.0120   -1.2260 hc        1 RTL      0.043700
     48 H193       -5.7310   -1.8000   -0.7700 hc        1 RTL      0.043700
     49 H201       -8.1660    1.0790    2.4840 hc        1 RTL      0.043700
     50 H202       -7.6740   -0.5990    2.9750 hc        1 RTL      0.043700
     51 H203       -8.8130    0.3590    4.0140 hc        1 RTL      0.043700
@<TRIPOS>BOND
     1    1    2 1   
     2    1    6 1   
     3    1   17 1   
     4    1   18 1   
     5    2    3 1   
     6    2   22 1   
     7    2   23 1   
     8    3    4 1   
     9    3   24 1   
    10    3   25 1   
    11    4    5 1   
    12    4   26 1   
    13    4   27 1   
    14    5    6 2   
    15    5   19 1   
    16    6    7 1   
    17    7    8 2   
    18    7   28 1   
    19    8    9 1   
    20    8   29 1   
    21    9   10 2   
    22    9   20 1   
    23   10   11 1   
    24   10   30 1   
    25   11   12 2   
    26   11   31 1   
    27   12   13 1   
    28   12   32 1   
    29   13   14 2   
    30   13   21 1   
    31   14   15 1   
    32   14   33 1   
    33   15   16 1   
    34   15   34 1   
    35   15   35 1   
    36   16   36 1   
    37   17   37 1   
    38   17   38 1   
    39   17   39 1   
    40   18   40 1   
    41   18   41 1   
    42   18   42 1   
    43   19   43 1   
    44   19   44 1   
    45   19   45 1   
    46   20   46 1   
    47   20   47 1   
    48   20   48 1   
    49   21   49 1   
    50   21   50 1   
    51   21   51 1   
@<TRIPOS>SUBSTRUCTURE
     1 RTL         1 TEMP              0 ****  ****    0 ROOT
