@<TRIPOS>MOLECULE
RTL
   51    51     1     0     0
SMALL
bcc


@<TRIPOS>ATOM
      1 C1         -1.0290    0.2330    0.6460 c3        1 RTL     -0.002800
      2 C2          0.2530    0.9550    1.0760 c3        1 RTL     -0.069400
      3 C3          0.1020    1.6110    2.4280 c3        1 RTL     -0.075400
      4 C4         -0.2370    0.5960    3.4970 c3        1 RTL     -0.038200
      5 C5         -1.1380   -0.4980    3.0370 c2        1 RTL     -0.108400
      6 C6         -1.5040   -0.6790    1.7500 ce        1 RTL     -0.074200
      7 C7         -2.2750   -1.8570    1.3540 ce        1 RTL     -0.106000
      8 C8         -3.5490   -1.9810    0.9730 cf        1 RTL     -0.133000
      9 C9         -4.5770   -0.9640    0.7890 cf        1 RTL     -0.068200
     10 C10        -5.2010   -0.2990    1.7790 ce        1 RTL     -0.132000
     11 C11        -4.9120   -0.4530    3.1860 ce        1 RTL     -0.118000
     12 C12        -5.6070    0.1010    4.1920 cf        1 RTL     -0.130000
     13 C13        -6.8000    0.9310    4.0780 cf        1 RTL     -0.084200
     14 C14        -6.8720    2.1070    4.7280 c2        1 RTL     -0.169200
     15 C15        -8.0670    2.9870    4.6660 c3        1 RTL      0.164600
     16 O1         -7.8050    4.1330    5.4650 oh        1 RTL     -0.598800
     17 C16        -0.7170   -0.5790   -0.6080 c3        1 RTL     -0.085600
     18 C17        -2.1000    1.2640    0.3100 c3        1 RTL     -0.085600
     19 C18        -1.5650   -1.4050    4.1330 c3        1 RTL     -0.062900
     20 C19        -4.9890   -0.7750   -0.6300 c3        1 RTL     -0.060900
     21 C20        -7.9320    0.4190    3.2650 c3        1 RTL     -0.060900
     22 H21         1.0950    0.2140    1.1110 hc        1 RTL      0.041200
     23 H22         0.5130    1.7280    0.3060 hc        1 RTL      0.041200
     24 H31        -0.6990    2.3950    2.3810 hc        1 RTL      0.041700
     25 H32         1.0570    2.1320    2.7010 hc        1 RTL      0.041700
     26 H41        -0.7120    1.1190    4.3710 hc        1 RTL      0.046200
     27 H42         0.7110    0.1220    3.8750 hc        1 RTL      0.046200
     28 H7         -1.6590   -2.7810    1.3880 ha        1 RTL      0.120000
     29 H8         -3.9150   -2.9940    0.7060 ha        1 RTL      0.122000
     30 H10        -5.9990    0.4240    1.5260 ha        1 RTL      0.126000
     31 H11        -4.0240   -1.0710    3.4200 ha        1 RTL      0.133000
     32 H12        -5.2640   -0.0590    5.2310 ha        1 RTL      0.125000
     33 H14        -6.0370    2.4840    5.3400 ha        1 RTL      0.147000
     34 H151       -8.9750    2.4470    5.0590 h1        1 RTL      0.029200
     35 H152       -8.2720    3.3000    3.6040 h1        1 RTL      0.029200
     36 HO1        -8.5880    4.6910    5.4040 ho        1 RTL      0.400000
     37 H161       -0.2930    0.0880   -1.3960 hc        1 RTL      0.036867
     38 H162       -1.6470   -1.0550   -1.0030 hc        1 RTL      0.036867
     39 H163        0.0240   -1.3810   -0.3780 hc        1 RTL      0.036867
     40 H171       -1.7220    1.9640   -0.4720 hc        1 RTL      0.036867
     41 H172       -3.0180    0.7570   -0.0760 hc        1 RTL      0.036867
     42 H173       -2.3800    1.8520    1.2160 hc        1 RTL      0.036867
     43 H181       -2.0930   -2.3120    3.7490 hc        1 RTL      0.042033
     44 H182       -2.2540   -0.8630    4.8290 hc        1 RTL      0.042033
     45 H183       -0.6730   -1.7410    4.7210 hc        1 RTL      0.042033
     46 H191       -5.5120    0.2020   -0.7740 hc        1 RTL      0.043700
     47 H192       -4.1000   -0.8060   -1.3070 hc        1 RTL      0.043700
     48 H193       -5.6850   -1.5980   -0.9320 hc        1 RTL      0.043700
     49 H201       -7.7000   -0.5850    2.8320 hc        1 RTL      0.043700
     50 H202       -8.1600    1.1250    2.4260 hc        1 RTL      0.043700
     51 H203       -8.8500    0.3290    3.8990 hc        1 RTL      0.043700
@<TRIPOS>BOND
     1    1    2 1   
     2    1    6 1   
     3    1   17 1   
     4    1   18 1   
     5    2    3 1   
     6    2   22 1   
     7    2   23 1   
     8    3    4 1   
     9    3   24 1   
    10    3   25 1   
    11    4    5 1   
    12    4   26 1   
    13    4   27 1   
    14    5    6 2   
    15    5   19 1   
    16    6    7 1   
    17    7    8 2   
    18    7   28 1   
    19    8    9 1   
    20    8   29 1   
    21    9   10 2   
    22    9   20 1   
    23   10   11 1   
    24   10   30 1   
    25   11   12 2   
    26   11   31 1   
    27   12   13 1   
    28   12   32 1   
    29   13   14 2   
    30   13   21 1   
    31   14   15 1   
    32   14   33 1   
    33   15   16 1   
    34   15   34 1   
    35   15   35 1   
    36   16   36 1   
    37   17   37 1   
    38   17   38 1   
    39   17   39 1   
    40   18   40 1   
    41   18   41 1   
    42   18   42 1   
    43   19   43 1   
    44   19   44 1   
    45   19   45 1   
    46   20   46 1   
    47   20   47 1   
    48   20   48 1   
    49   21   49 1   
    50   21   50 1   
    51   21   51 1   
@<TRIPOS>SUBSTRUCTURE
     1 RTL         1 TEMP              0 ****  ****    0 ROOT
