@<TRIPOS>MOLECULE
RTM
   48    50     1     0     0
SMALL
bcc


@<TRIPOS>ATOM
      1 N1         -3.9060    1.6110   -0.1540 nb        1 RTM     -0.736000
      2 N3          2.8000   -0.0410   -0.4630 n         1 RTM     -0.475800
      3 C4         -5.0470   -1.9350    0.1080 ca        1 RTM     -0.097000
      4 C5         -4.1940   -0.8050    0.1700 ca        1 RTM     -0.182300
      5 C6         -4.6870    0.4810   -0.2050 ca        1 RTM      0.440600
      6 C7         -2.6210    1.4940    0.2340 ca        1 RTM      0.646200
      7 C8         -2.0410    0.2180    0.6440 ca        1 RTM     -0.224600
      8 C10        -0.6340    0.1100    1.1080 c3        1 RTM     -0.023100
      9 C13         2.5030   -0.2880   -1.8420 c3        1 RTM      0.081300
     10 C15         4.8600   -1.4470   -0.3400 c3        1 RTM     -0.088400
     11 C17         7.1060   -0.3420   -0.2660 c3        1 RTM     -0.079400
     12 C16         6.2550   -1.4850    0.2480 c3        1 RTM     -0.075900
     13 C18         6.4380    0.9930   -0.0070 c3        1 RTM     -0.075900
     14 C19         5.0450    1.0400   -0.5980 c3        1 RTM     -0.088400
     15 C14         4.1860   -0.1000   -0.0210 c3        1 RTM      0.099700
     16 C12         1.7760    0.1320    0.4600 c         1 RTM      0.659100
     17 O1          2.0290    0.3110    1.6700 o         1 RTM     -0.618100
     18 C11         0.3460    0.1230   -0.0510 c3        1 RTM     -0.149400
     19 C9         -2.8440   -0.8960    0.6020 ca        1 RTM     -0.057000
     20 C1         -6.3470   -1.8020   -0.3120 ca        1 RTM     -0.144000
     21 C2         -6.8460   -0.5320   -0.6860 ca        1 RTM     -0.114000
     22 C3         -6.0510    0.5840   -0.6380 ca        1 RTM     -0.181300
     23 N2         -1.7970    2.6280    0.1730 nh        1 RTM     -0.928500
     24 H4         -4.6450   -2.9170    0.4020 ha        1 RTM      0.131000
     25 H10        -0.3800    0.9350    1.8280 hc        1 RTM      0.063700
     26 H10A       -0.4960   -0.8480    1.6830 hc        1 RTM      0.063700
     27 H13         2.0710   -1.3170   -1.9820 h1        1 RTM      0.038367
     28 H13A        1.7620    0.4640   -2.2260 h1        1 RTM      0.038367
     29 H13B        3.4390   -0.2100   -2.4580 h1        1 RTM      0.038367
     30 H15         4.9140   -1.5960   -1.4490 hc        1 RTM      0.043700
     31 H15A        4.2530   -2.2860    0.0880 hc        1 RTM      0.043700
     32 H17         8.1080   -0.3650    0.2350 hc        1 RTM      0.040200
     33 H17A        7.2770   -0.4680   -1.3670 hc        1 RTM      0.040200
     34 H16         6.1920   -1.4310    1.3670 hc        1 RTM      0.043700
     35 H16A        6.7390   -2.4620   -0.0150 hc        1 RTM      0.043700
     36 H18         6.3830    1.1750    1.0990 hc        1 RTM      0.043700
     37 H18A        7.0560    1.8150   -0.4530 hc        1 RTM      0.043700
     38 H19         4.5720    2.0280   -0.3600 hc        1 RTM      0.043700
     39 H19A        5.1080    0.9510   -1.7130 hc        1 RTM      0.043700
     40 H14         4.1810    0.0190    1.1070 h1        1 RTM      0.093700
     41 H11         0.1750   -0.7780   -0.6960 hc        1 RTM      0.074200
     42 H11A        0.1890    1.0340   -0.6880 hc        1 RTM      0.074200
     43 H9         -2.4520   -1.8790    0.9070 ha        1 RTM      0.138000
     44 H1         -7.0140   -2.6760   -0.3630 ha        1 RTM      0.133000
     45 H2         -7.8930   -0.4510   -1.0190 ha        1 RTM      0.133000
     46 H3         -6.4440    1.5700   -0.9300 ha        1 RTM      0.148000
     47 HN2        -2.2680    3.5000    0.0540 hn        1 RTM      0.406300
     48 HN2A       -1.0830    2.6490    0.8670 hn        1 RTM      0.406300
@<TRIPOS>BOND
     1    1    5 ar  
     2    1    6 ar  
     3    2    9 1   
     4    2   15 1   
     5    2   16 1   
     6    3    4 ar  
     7    3   20 ar  
     8    3   24 1   
     9    4    5 ar  
    10    4   19 ar  
    11    5   22 ar  
    12    6    7 ar  
    13    6   23 1   
    14    7    8 1   
    15    7   19 ar  
    16    8   18 1   
    17    8   25 1   
    18    8   26 1   
    19    9   27 1   
    20    9   28 1   
    21    9   29 1   
    22   10   12 1   
    23   10   15 1   
    24   10   30 1   
    25   10   31 1   
    26   11   12 1   
    27   11   13 1   
    28   11   32 1   
    29   11   33 1   
    30   12   34 1   
    31   12   35 1   
    32   13   14 1   
    33   13   36 1   
    34   13   37 1   
    35   14   15 1   
    36   14   38 1   
    37   14   39 1   
    38   15   40 1   
    39   16   17 2   
    40   16   18 1   
    41   18   41 1   
    42   18   42 1   
    43   19   43 1   
    44   20   21 ar  
    45   20   44 1   
    46   21   22 ar  
    47   21   45 1   
    48   22   46 1   
    49   23   47 1   
    50   23   48 1   
@<TRIPOS>SUBSTRUCTURE
     1 RTM         1 TEMP              0 ****  ****    0 ROOT
