@<TRIPOS>MOLECULE
RTM
   49    51     1     0     0
SMALL
bcc


@<TRIPOS>ATOM
      1 N1         -1.2140    0.1020   -2.2660 nb        1 RTM     -0.696000
      2 N3         -1.4970   -2.5400   -5.5030 nx        1 RTM     -0.584200
      3 C4          1.8450   -0.8490   -0.3450 ca        1 RTM     -0.104000
      4 C5          1.0060   -0.5480   -1.4500 ca        1 RTM     -0.168300
      5 C6         -0.3680   -0.2200   -1.2310 ca        1 RTM      0.425600
      6 C7         -0.7370    0.0900   -3.5200 ca        1 RTM      0.570200
      7 C8          0.6390   -0.2550   -3.8330 ca        1 RTM     -0.269600
      8 C10         1.1480   -0.2620   -5.2280 c3        1 RTM     -0.022100
      9 C13        -1.0380   -3.9470   -5.5740 c3        1 RTM      0.085100
     10 C15        -3.3800   -3.2140   -7.0800 c3        1 RTM     -0.094900
     11 C17        -5.7370   -3.2480   -6.2350 c3        1 RTM     -0.090400
     12 C16        -4.8330   -2.9240   -7.4060 c3        1 RTM     -0.077400
     13 C18        -5.3040   -2.5120   -4.9850 c3        1 RTM     -0.077400
     14 C19        -3.8510   -2.7910   -4.6460 c3        1 RTM     -0.094900
     15 C14        -2.9710   -2.4080   -5.8430 c3        1 RTM      0.131500
     16 C12        -0.6120   -1.6490   -6.3590 c         1 RTM      0.566100
     17 O1         -1.1310   -1.0690   -7.3010 o         1 RTM     -0.424100
     18 C11         0.8380   -1.5580   -5.9650 c3        1 RTM     -0.151400
     19 C9          1.4830   -0.5520   -2.7850 ca        1 RTM     -0.037000
     20 C1          1.3410   -0.8300    0.9320 ca        1 RTM     -0.113000
     21 C2         -0.0200   -0.5090    1.1580 ca        1 RTM     -0.094000
     22 C3         -0.8620   -0.2120    0.1150 ca        1 RTM     -0.176300
     23 N2         -1.6280    0.3500   -4.6020 nv        1 RTM     -0.946500
     24 H4          2.9020   -1.0910   -0.5330 ha        1 RTM      0.145000
     25 H10         2.2710   -0.1550   -5.2140 hc        1 RTM      0.082200
     26 H10A        0.7580    0.6120   -5.8150 hc        1 RTM      0.082200
     27 H13        -0.9510   -4.2630   -6.6470 hx        1 RTM      0.099700
     28 H13A       -1.7840   -4.6080   -5.0540 hx        1 RTM      0.099700
     29 H13B       -0.0430   -4.0540   -5.0660 hx        1 RTM      0.099700
     30 H15        -3.2570   -4.3120   -6.8910 hc        1 RTM      0.061200
     31 H15A       -2.7370   -2.9280   -7.9540 hc        1 RTM      0.061200
     32 H17        -5.7270   -4.3540   -6.0450 hc        1 RTM      0.062700
     33 H17A       -6.7920   -2.9610   -6.4880 hc        1 RTM      0.062700
     34 H16        -5.1320   -3.5390   -8.2960 hc        1 RTM      0.065200
     35 H16A       -4.9490   -1.8450   -7.6890 hc        1 RTM      0.065200
     36 H18        -5.4530   -1.4090   -5.1240 hc        1 RTM      0.065200
     37 H18A       -5.9420   -2.8310   -4.1180 hc        1 RTM      0.065200
     38 H19        -3.5640   -2.1940   -3.7400 hc        1 RTM      0.061200
     39 H19A       -3.7280   -3.8790   -4.4040 hc        1 RTM      0.061200
     40 H14        -3.1360   -1.3080   -6.0690 hx        1 RTM      0.119700
     41 H11         1.4270   -1.5790   -6.9260 hc        1 RTM      0.098700
     42 H11A        1.1660   -2.4300   -5.3420 hc        1 RTM      0.098700
     43 H9          2.5440   -0.7920   -2.9680 ha        1 RTM      0.150000
     44 H1          1.9870   -1.0580    1.7940 ha        1 RTM      0.154000
     45 H2         -0.3980   -0.4970    2.1940 ha        1 RTM      0.154000
     46 H3         -1.9180    0.0440    0.2970 ha        1 RTM      0.161000
     47 HN2        -2.5350    0.6540   -4.2980 hn        1 RTM      0.399300
     48 HN2A       -1.2350    1.0220   -5.2340 hn        1 RTM      0.399300
     49 H31        -1.3850   -2.2070   -4.5320 hn        1 RTM      0.467800
@<TRIPOS>BOND
     1    1    5 ar  
     2    1    6 ar  
     3    2    9 1   
     4    2   15 1   
     5    2   16 1   
     6    2   49 1   
     7    3    4 ar  
     8    3   20 ar  
     9    3   24 1   
    10    4    5 ar  
    11    4   19 ar  
    12    5   22 ar  
    13    6    7 ar  
    14    6   23 1   
    15    7    8 1   
    16    7   19 ar  
    17    8   18 1   
    18    8   25 1   
    19    8   26 1   
    20    9   27 1   
    21    9   28 1   
    22    9   29 1   
    23   10   12 1   
    24   10   15 1   
    25   10   30 1   
    26   10   31 1   
    27   11   12 1   
    28   11   13 1   
    29   11   32 1   
    30   11   33 1   
    31   12   34 1   
    32   12   35 1   
    33   13   14 1   
    34   13   36 1   
    35   13   37 1   
    36   14   15 1   
    37   14   38 1   
    38   14   39 1   
    39   15   40 1   
    40   16   17 2   
    41   16   18 1   
    42   18   41 1   
    43   18   42 1   
    44   19   43 1   
    45   20   21 ar  
    46   20   44 1   
    47   21   22 ar  
    48   21   45 1   
    49   22   46 1   
    50   23   47 1   
    51   23   48 1   
@<TRIPOS>SUBSTRUCTURE
     1 RTM         1 TEMP              0 ****  ****    0 ROOT
