@<TRIPOS>MOLECULE
RTM
   50    52     1     0     0
SMALL
bcc


@<TRIPOS>ATOM
      1 N1          0.6380    1.4500   -0.6960 nb        1 RTM     -0.604000
      2 N3         -1.5940   -2.6450   -6.6230 n4        1 RTM     -0.591200
      3 C4          0.9920   -2.1250    0.2790 ca        1 RTM     -0.122000
      4 C5          0.6930   -0.9870   -0.5090 ca        1 RTM     -0.113300
      5 C6          0.9150    0.3240    0.0370 ca        1 RTM      0.409600
      6 C7          0.1580    1.3010   -1.9300 ca        1 RTM      0.458200
      7 C8         -0.1030    0.0370   -2.5760 ca        1 RTM     -0.208600
      8 C10        -0.6420    0.0000   -3.9590 c3        1 RTM     -0.034100
      9 C13        -1.1100   -2.5960   -8.0260 c3        1 RTM      0.081100
     10 C15        -3.9580   -2.2770   -7.5070 c3        1 RTM     -0.097900
     11 C17        -5.6410   -4.1230   -7.3400 c3        1 RTM     -0.094400
     12 C16        -5.4090   -2.6310   -7.2310 c3        1 RTM     -0.079400
     13 C18        -4.7070   -4.8990   -6.4370 c3        1 RTM     -0.079400
     14 C19        -3.2530   -4.5480   -6.7020 c3        1 RTM     -0.097900
     15 C14        -3.0660   -3.0360   -6.5210 c3        1 RTM      0.135500
     16 C12        -1.3620   -1.3250   -5.9250 c         1 RTM      0.537100
     17 O1         -1.6150   -0.3000   -6.5420 o         1 RTM     -0.412100
     18 C11        -0.8350   -1.4030   -4.5150 c3        1 RTM     -0.154400
     19 C9          0.1790   -1.0890   -1.8280 ca        1 RTM     -0.041000
     20 C1          1.4890   -1.9760    1.5540 ca        1 RTM     -0.059000
     21 C2          1.7090   -0.6860    2.0950 ca        1 RTM     -0.081000
     22 C3          1.4340    0.4460    1.3660 ca        1 RTM     -0.146300
     23 N2         -0.1180    2.5590   -2.6640 n4        1 RTM     -0.822300
     24 H4          0.8200   -3.1290   -0.1430 ha        1 RTM      0.157000
     25 H10        -1.6370    0.5280   -3.9890 hc        1 RTM      0.069700
     26 H10A        0.0540    0.5550   -4.6500 hc        1 RTM      0.069700
     27 H13        -1.5760   -1.7210   -8.5580 hx        1 RTM      0.114367
     28 H13A       -1.3970   -3.5480   -8.5490 hx        1 RTM      0.114367
     29 H13B        0.0070   -2.4830   -8.0290 hx        1 RTM      0.114367
     30 H15        -3.8080   -1.1700   -7.4000 hc        1 RTM      0.068700
     31 H15A       -3.7040   -2.5650   -8.5610 hc        1 RTM      0.068700
     32 H17        -5.4990   -4.4510   -8.4040 hc        1 RTM      0.075200
     33 H17A       -6.7040   -4.3550   -7.0610 hc        1 RTM      0.075200
     34 H16        -6.0560   -2.0930   -7.9740 hc        1 RTM      0.071450
     35 H16A       -5.7010   -2.2720   -6.2100 hc        1 RTM      0.071450
     36 H18        -4.9560   -4.6940   -5.3630 hc        1 RTM      0.071450
     37 H18A       -4.8440   -6.0000   -6.6090 hc        1 RTM      0.071450
     38 H19        -2.5990   -5.1170   -5.9900 hc        1 RTM      0.068700
     39 H19A       -2.9820   -4.8510   -7.7470 hc        1 RTM      0.068700
     40 H14        -3.3710   -2.7600   -5.4650 hx        1 RTM      0.086700
     41 H11        -1.5660   -1.9760   -3.8800 hc        1 RTM      0.109200
     42 H11A        0.1460   -1.9560   -4.5140 hc        1 RTM      0.109200
     43 H9          0.0120   -2.1000   -2.2360 ha        1 RTM      0.152000
     44 H1          1.7230   -2.8620    2.1700 ha        1 RTM      0.177000
     45 H2          2.1100   -0.5990    3.1210 ha        1 RTM      0.181000
     46 H3          1.6070    1.4500    1.7920 ha        1 RTM      0.181000
     47 HN2         0.4700    2.5910   -3.5030 hn        1 RTM      0.473467
     48 HN2A       -1.1070    2.5800   -2.9310 hn        1 RTM      0.473467
     49 H31        -1.0610   -3.3710   -6.1260 hn        1 RTM      0.449800
     50 H23         0.0900    3.3820   -2.0750 hn        1 RTM      0.473467
@<TRIPOS>BOND
     1    1    5 ar  
     2    1    6 ar  
     3    2    9 1   
     4    2   15 1   
     5    2   16 1   
     6    2   49 1   
     7    3    4 ar  
     8    3   20 ar  
     9    3   24 1   
    10    4    5 ar  
    11    4   19 ar  
    12    5   22 ar  
    13    6    7 ar  
    14    6   23 1   
    15    7    8 1   
    16    7   19 ar  
    17    8   18 1   
    18    8   25 1   
    19    8   26 1   
    20    9   27 1   
    21    9   28 1   
    22    9   29 1   
    23   10   12 1   
    24   10   15 1   
    25   10   30 1   
    26   10   31 1   
    27   11   12 1   
    28   11   13 1   
    29   11   32 1   
    30   11   33 1   
    31   12   34 1   
    32   12   35 1   
    33   13   14 1   
    34   13   36 1   
    35   13   37 1   
    36   14   15 1   
    37   14   38 1   
    38   14   39 1   
    39   15   40 1   
    40   16   17 2   
    41   16   18 1   
    42   18   41 1   
    43   18   42 1   
    44   19   43 1   
    45   20   21 ar  
    46   20   44 1   
    47   21   22 ar  
    48   21   45 1   
    49   22   46 1   
    50   23   47 1   
    51   23   48 1   
    52   23   50 1   
@<TRIPOS>SUBSTRUCTURE
     1 RTM         1 TEMP              0 ****  ****    0 ROOT
