@<TRIPOS>MOLECULE
RTM
   49    51     1     0     0
SMALL
bcc


@<TRIPOS>ATOM
      1 N1         -0.6080    0.8430   -1.4060 nb        1 RTM     -0.699000
      2 N3         -1.8860   -3.7520   -5.9860 n4        1 RTM     -0.597200
      3 C4          2.7080   -0.2720   -0.0980 ca        1 RTM     -0.104000
      4 C5          1.6140   -0.1090   -0.9860 ca        1 RTM     -0.168300
      5 C6          0.4650    0.6330   -0.5720 ca        1 RTM      0.431600
      6 C7         -0.5890    0.3080   -2.6360 ca        1 RTM      0.596200
      7 C8          0.5270   -0.4870   -3.1230 ca        1 RTM     -0.255600
      8 C10         0.5040   -1.1010   -4.4750 c3        1 RTM     -0.016100
      9 C13        -1.6040   -4.7480   -7.0440 c3        1 RTM      0.081100
     10 C15        -3.4200   -2.5370   -7.6110 c3        1 RTM     -0.093400
     11 C17        -5.8910   -2.5250   -7.2070 c3        1 RTM     -0.089400
     12 C16        -4.6960   -1.7180   -7.6680 c3        1 RTM     -0.079400
     13 C18        -5.6700   -3.1000   -5.8240 c3        1 RTM     -0.079400
     14 C19        -4.3930   -3.9170   -5.7540 c3        1 RTM     -0.093400
     15 C14        -3.2110   -3.0370   -6.1780 c3        1 RTM      0.128500
     16 C12        -0.7610   -2.7230   -5.8800 c         1 RTM      0.570100
     17 O1         -0.2690   -2.3390   -6.9290 o         1 RTM     -0.425100
     18 C11        -0.4150   -2.3170   -4.4790 c3        1 RTM     -0.145400
     19 C9          1.6100   -0.6650   -2.2920 ca        1 RTM     -0.038000
     20 C1          2.6650    0.2750    1.1610 ca        1 RTM     -0.118000
     21 C2          1.5280    1.0070    1.5820 ca        1 RTM     -0.097000
     22 C3          0.4520    1.1870    0.7500 ca        1 RTM     -0.177300
     23 N2         -1.7220    0.4680   -3.4880 nh        1 RTM     -0.938500
     24 H4          3.5870   -0.8410   -0.4380 ha        1 RTM      0.142000
     25 H10         1.5390   -1.4210   -4.7770 hc        1 RTM      0.079700
     26 H10A        0.1620   -0.3590   -5.2460 hc        1 RTM      0.079700
     27 H13        -0.7070   -5.3560   -6.7480 hx        1 RTM      0.104367
     28 H13A       -2.4930   -5.4200   -7.1740 hx        1 RTM      0.104367
     29 H13B       -1.3870   -4.2190   -8.0120 hx        1 RTM      0.104367
     30 H15        -2.5480   -1.9100   -7.9360 hc        1 RTM      0.062200
     31 H15A       -3.5070   -3.4060   -8.3140 hc        1 RTM      0.062200
     32 H17        -6.0870   -3.3570   -7.9340 hc        1 RTM      0.064200
     33 H17A       -6.8010   -1.8700   -7.1960 hc        1 RTM      0.064200
     34 H16        -4.8560   -1.3750   -8.7250 hc        1 RTM      0.066450
     35 H16A       -4.5870   -0.8010   -7.0310 hc        1 RTM      0.066450
     36 H18        -6.5350   -3.7610   -5.5480 hc        1 RTM      0.066450
     37 H18A       -5.6280   -2.2700   -5.0690 hc        1 RTM      0.066450
     38 H19        -4.2510   -4.2930   -4.7070 hc        1 RTM      0.062200
     39 H19A       -4.4810   -4.8040   -6.4350 hc        1 RTM      0.062200
     40 H14        -3.1690   -2.1410   -5.4840 hx        1 RTM      0.118700
     41 H11         0.0960   -3.1800   -3.9700 hc        1 RTM      0.098200
     42 H11A       -1.3550   -2.0850   -3.9040 hc        1 RTM      0.098200
     43 H9          2.4890   -1.2410   -2.6250 ha        1 RTM      0.146000
     44 H1          3.5110    0.1540    1.8550 ha        1 RTM      0.150000
     45 H2          1.5190    1.4350    2.5980 ha        1 RTM      0.150000
     46 H3         -0.4290    1.7600    1.0810 ha        1 RTM      0.159000
     47 HN2        -1.4500    0.9230   -4.3380 hn        1 RTM      0.392800
     48 HN2A       -2.4680    0.9750   -3.0480 hn        1 RTM      0.392800
     49 H31        -1.9440   -4.2450   -5.0860 hn        1 RTM      0.442800
@<TRIPOS>BOND
     1    1    5 ar  
     2    1    6 ar  
     3    2    9 1   
     4    2   15 1   
     5    2   16 1   
     6    2   49 1   
     7    3    4 ar  
     8    3   20 ar  
     9    3   24 1   
    10    4    5 ar  
    11    4   19 ar  
    12    5   22 ar  
    13    6    7 ar  
    14    6   23 1   
    15    7    8 1   
    16    7   19 ar  
    17    8   18 1   
    18    8   25 1   
    19    8   26 1   
    20    9   27 1   
    21    9   28 1   
    22    9   29 1   
    23   10   12 1   
    24   10   15 1   
    25   10   30 1   
    26   10   31 1   
    27   11   12 1   
    28   11   13 1   
    29   11   32 1   
    30   11   33 1   
    31   12   34 1   
    32   12   35 1   
    33   13   14 1   
    34   13   36 1   
    35   13   37 1   
    36   14   15 1   
    37   14   38 1   
    38   14   39 1   
    39   15   40 1   
    40   16   17 2   
    41   16   18 1   
    42   18   41 1   
    43   18   42 1   
    44   19   43 1   
    45   20   21 ar  
    46   20   44 1   
    47   21   22 ar  
    48   21   45 1   
    49   22   46 1   
    50   23   47 1   
    51   23   48 1   
@<TRIPOS>SUBSTRUCTURE
     1 RTM         1 TEMP              0 ****  ****    0 ROOT
