@<TRIPOS>MOLECULE
RTN
   58    51     1     0     0
SMALL
bcc


@<TRIPOS>ATOM
      1 C4         -2.6680    1.2960    2.1010 c1        1 RTN      0.060000
      2 C5         -1.2970    1.1950    2.1440 c1        1 RTN     -0.131000
      3 C6         -0.6310    1.1260    3.3940 c1        1 RTN     -0.066500
      4 C8         -2.6050    1.3290   -0.2850 c1        1 RTN      0.152000
      5 C10        -0.5670    1.1610    0.9620 c1        1 RTN     -0.066500
      6 C13        -0.2590    2.9630    7.5920 c1        1 RTN     -0.128250
      7 C15        -0.0910    0.5890    7.9830 c1        1 RTN     -0.128250
      8 C17        -0.5290   -1.1960    6.7840 c3        1 RTN     -0.184000
      9 C20         0.5310   -0.1090   -3.4350 c1        1 RTN      0.308000
     10 C22         1.6880   -1.3580   -5.0250 c3        1 RTN      0.022000
     11 C24         3.9380   -2.2860   -5.9550 c3        1 RTN     -0.152500
     12 C26         2.0270   -2.2910   -7.4440 c3        1 RTN     -0.152500
     13 C23         2.9910   -2.2400   -4.7590 c3        1 RTN     -0.168500
     14 C25         3.3040   -1.9360   -7.1070 c3        1 RTN     -0.158000
     15 C27         1.1040   -2.2490   -6.2460 c3        1 RTN     -0.168500
     16 N21         0.9170   -1.3550   -4.0360 n3        1 RTN     -0.374000
     17 O29         0.9500    0.9350   -3.8830 o         1 RTN     -0.399000
     18 C19        -0.4760   -0.0960   -2.2640 c2        1 RTN     -0.183000
     19 C18        -0.4600    1.2990   -1.5830 c3        1 RTN     -0.111000
     20 C9         -1.2140    1.2270   -0.2450 c1        1 RTN     -0.167000
     21 N7         -3.3220    1.3630    0.8750 n2        1 RTN     -0.225000
     22 N28        -3.8110    1.3570   -1.0640 n2        1 RTN     -0.350000
     23 C3         -3.4140    1.3310    3.3060 c1        1 RTN     -0.124000
     24 C2         -2.7580    1.2630    4.5350 c1        1 RTN     -0.099000
     25 C1         -1.3670    1.1600    4.5790 c1        1 RTN     -0.060000
     26 C11        -0.9880    1.4070    5.9000 c1        1 RTN     -0.035000
     27 C12        -0.8010    2.7170    6.3340 c1        1 RTN     -0.128250
     28 C14         0.0960    1.9020    8.4160 c1        1 RTN     -0.128250
     29 C16        -0.6310    0.3420    6.7290 c1        1 RTN     -0.054000
     30 H6          0.3510    1.0540    3.4260 ha        1 RTN      0.134000
     31 H10         0.4070    1.0890    0.9910 ha        1 RTN      0.134000
     32 H13        -0.1270    3.8910    7.8980 ha        1 RTN      0.131500
     33 H15         0.1590   -0.1570    8.5630 ha        1 RTN      0.131500
     34 H17        -0.7180   -1.5040    7.6970 hc        1 RTN      0.086667
     35 H17A        0.3770   -1.4730    6.5250 hc        1 RTN      0.086667
     36 H17B       -1.1850   -1.5910    6.1610 hc        1 RTN      0.086667
     37 H22         1.9170   -0.4520   -5.3160 h1        1 RTN      0.132000
     38 H24         4.2920   -3.1940   -6.0470 hc        1 RTN      0.081250
     39 H24A        4.6800   -1.6660   -5.7980 hc        1 RTN      0.081250
     40 H26         1.6910   -1.6700   -8.1310 hc        1 RTN      0.081250
     41 H26A        2.0330   -3.2070   -7.8120 hc        1 RTN      0.081250
     42 H23         2.7110   -3.1590   -4.5420 hc        1 RTN      0.083250
     43 H23A        3.4770   -1.8630   -3.9830 hc        1 RTN      0.083250
     44 H25         3.8780   -2.2630   -7.8410 hc        1 RTN      0.083000
     45 H25A        3.3310   -0.9540   -7.1430 hc        1 RTN      0.083000
     46 H27         0.2440   -1.8730   -6.5250 hc        1 RTN      0.083250
     47 H27A        0.9600   -3.1620   -5.9280 hc        1 RTN      0.083250
     48 HN21        0.5300   -2.1300   -3.7620 hn        1 RTN      0.221000
     49 H19        -1.3770   -0.2830   -2.6070 ha        1 RTN      0.112500
     50 H19A       -0.2270   -0.7810   -1.6120 ha        1 RTN      0.112500
     51 H18         0.4630    1.5710   -1.4220 hc        1 RTN      0.102000
     52 H18A       -0.8930    1.9510   -2.1670 hc        1 RTN      0.102000
     53 HN28       -4.6060    1.0930   -0.6880 hn        1 RTN      0.227000
     54 HN2A       -3.7900    1.6580   -1.9310 hn        1 RTN      0.227000
     55 H3         -4.3890    1.4030    3.2760 ha        1 RTN      0.149000
     56 H2         -3.2690    1.2870    5.3610 ha        1 RTN      0.138000
     57 H12        -1.0520    3.4660    5.7520 ha        1 RTN      0.131500
     58 H14         0.4770    2.0760    9.3000 ha        1 RTN      0.131500
@<TRIPOS>BOND
     1    1   21 1   
     2    1   23 1   
     3    2    3 1   
     4    2    5 1   
     5    3   30 1   
     6    4   20 1   
     7    4   21 1   
     8    5   31 1   
     9    6   27 1   
    10    6   32 1   
    11    7   28 1   
    12    7   33 1   
    13    8   29 1   
    14    8   34 1   
    15    8   35 1   
    16    8   36 1   
    17    9   16 1   
    18    9   17 1   
    19   10   13 1   
    20   10   15 1   
    21   10   16 1   
    22   10   37 1   
    23   11   13 1   
    24   11   14 1   
    25   11   38 1   
    26   11   39 1   
    27   12   14 1   
    28   12   15 1   
    29   12   40 1   
    30   12   41 1   
    31   13   42 1   
    32   13   43 1   
    33   14   44 1   
    34   14   45 1   
    35   15   46 1   
    36   15   47 1   
    37   16   48 1   
    38   18   19 1   
    39   18   49 1   
    40   18   50 1   
    41   19   20 1   
    42   19   51 1   
    43   19   52 1   
    44   22   53 1   
    45   22   54 1   
    46   23   55 1   
    47   24   25 1   
    48   24   56 1   
    49   26   29 1   
    50   27   57 1   
    51   28   58 1   
@<TRIPOS>SUBSTRUCTURE
     1 RTN         1 TEMP              0 ****  ****    0 ROOT
