@<TRIPOS>MOLECULE
RTN
   58    61     1     0     0
SMALL
bcc


@<TRIPOS>ATOM
      1 C4         -2.1240   -1.5740    0.0300 ca        1 RTN      0.453600
      2 C5         -2.1740   -0.1580   -0.1390 ca        1 RTN     -0.196300
      3 C6         -3.4030    0.5320   -0.0130 ca        1 RTN     -0.082000
      4 C8          0.1890   -1.6280   -0.3360 ca        1 RTN      0.673200
      5 C10        -0.9580    0.5140   -0.4420 ca        1 RTN     -0.051000
      6 C13        -7.0720    2.3610    1.4940 ca        1 RTN     -0.136000
      7 C15        -8.1690    0.9490   -0.1240 ca        1 RTN     -0.134000
      8 C17        -6.9900   -0.8970   -1.2930 c3        1 RTN     -0.058800
      9 C20         3.8550    0.1130   -0.2010 c         1 RTN      0.664100
     10 C22         6.3110    0.3950    0.0380 c3        1 RTN      0.097700
     11 C24         8.5040    1.1030   -0.9470 c3        1 RTN     -0.075400
     12 C26         8.4570   -0.5450    0.9280 c3        1 RTN     -0.075400
     13 C23         7.1040    1.5560   -0.5900 c3        1 RTN     -0.090900
     14 C25         9.2400    0.5680    0.2630 c3        1 RTN     -0.079400
     15 C27         7.0570   -0.0980    1.2920 c3        1 RTN     -0.090900
     16 N21         4.9430    0.7680    0.3280 n         1 RTN     -0.564900
     17 O29         3.9950   -0.8400   -1.0000 o         1 RTN     -0.638100
     18 C19         2.4740    0.5730    0.2380 c3        1 RTN     -0.154400
     19 C9          0.2200   -0.1810   -0.5490 ca        1 RTN     -0.239600
     20 N7         -0.9600   -2.2920   -0.0800 nb        1 RTN     -0.751000
     21 N28         1.3840   -2.3380   -0.3270 nh        1 RTN     -0.952500
     22 C3         -3.3520   -2.2580    0.3200 ca        1 RTN     -0.189300
     23 C2         -4.5270   -1.5620    0.4270 ca        1 RTN     -0.099000
     24 C1         -4.5710   -0.1500    0.2610 cp        1 RTN     -0.060000
     25 C11        -5.8370    0.5700    0.4100 cp        1 RTN     -0.035000
     26 C12        -5.8920    1.6470    1.3090 ca        1 RTN     -0.118000
     27 C14        -8.2160    2.0090    0.7760 ca        1 RTN     -0.125000
     28 C16        -6.9880    0.2200   -0.3180 ca        1 RTN     -0.061300
     29 H6         -3.4130    1.6260   -0.1430 ha        1 RTN      0.134000
     30 H10        -0.9830    1.6050   -0.5960 ha        1 RTN      0.134000
     31 H13        -7.1020    3.1990    2.2050 ha        1 RTN      0.131000
     32 H15        -9.0690    0.6760   -0.6950 ha        1 RTN      0.131000
     33 H17        -7.3460   -1.8360   -0.7970 hc        1 RTN      0.047700
     34 H17A       -7.6760   -0.6740   -2.1480 hc        1 RTN      0.047700
     35 H17B       -5.9650   -1.0820   -1.6990 hc        1 RTN      0.047700
     36 H22         6.2800   -0.4550   -0.7100 h1        1 RTN      0.092700
     37 H24         8.4490    0.3060   -1.7350 hc        1 RTN      0.044200
     38 H24A        9.0720    1.9670   -1.3810 hc        1 RTN      0.044200
     39 H26         8.4000   -1.4280    0.2370 hc        1 RTN      0.044200
     40 H26A        8.9910   -0.8780    1.8560 hc        1 RTN      0.044200
     41 H23         6.5820    1.9170   -1.5140 hc        1 RTN      0.043950
     42 H23A        7.1570    2.4140    0.1300 hc        1 RTN      0.043950
     43 H25        10.2470    0.1850   -0.0490 hc        1 RTN      0.041200
     44 H25A        9.4080    1.3990    0.9970 hc        1 RTN      0.041200
     45 H27         7.1090    0.7240    2.0520 hc        1 RTN      0.043950
     46 H27A        6.5010   -0.9550    1.7520 hc        1 RTN      0.043950
     47 HN21        4.8030    1.5060    0.9740 hn        1 RTN      0.307500
     48 H19         2.1580   -0.1120    1.0720 hc        1 RTN      0.073200
     49 H19A        2.5000    1.6130    0.6540 hc        1 RTN      0.073200
     50 H18         1.2480    1.5650   -1.2400 hc        1 RTN      0.062700
     51 H18A        1.9450    0.0020   -1.8020 hc        1 RTN      0.062700
     52 HN28        1.3290   -3.3300   -0.3580 hn        1 RTN      0.431800
     53 HN2A        2.1530   -1.9290   -0.8120 hn        1 RTN      0.431800
     54 H3         -3.3330   -3.3500    0.4580 ha        1 RTN      0.149000
     55 H2         -5.4670   -2.0910    0.6520 ha        1 RTN      0.138000
     56 H12        -4.9890    1.9210    1.8750 ha        1 RTN      0.134000
     57 H14        -9.1510    2.5700    0.9190 ha        1 RTN      0.130000
     58 C18         1.4820    0.5150   -0.9130 c3        1 RTN     -0.025100
@<TRIPOS>BOND
     1    1    2 ar  
     2    1   20 ar  
     3    1   22 ar  
     4    2    3 ar  
     5    2    5 ar  
     6    3   24 ar  
     7    3   29 1   
     8    4   19 ar  
     9    4   20 ar  
    10    4   21 1   
    11    5   19 ar  
    12    5   30 1   
    13    6   26 ar  
    14    6   27 ar  
    15    6   31 1   
    16    7   27 ar  
    17    7   28 ar  
    18    7   32 1   
    19    8   28 1   
    20    8   33 1   
    21    8   34 1   
    22    8   35 1   
    23    9   16 1   
    24    9   17 2   
    25    9   18 1   
    26   10   13 1   
    27   10   15 1   
    28   10   16 1   
    29   10   36 1   
    30   11   13 1   
    31   11   14 1   
    32   11   37 1   
    33   11   38 1   
    34   12   14 1   
    35   12   15 1   
    36   12   39 1   
    37   12   40 1   
    38   13   41 1   
    39   13   42 1   
    40   14   43 1   
    41   14   44 1   
    42   15   45 1   
    43   15   46 1   
    44   16   47 1   
    45   18   48 1   
    46   18   49 1   
    47   18   58 1   
    48   19   58 1   
    49   21   52 1   
    50   21   53 1   
    51   22   23 ar  
    52   22   54 1   
    53   23   24 ar  
    54   23   55 1   
    55   24   25 1   
    56   25   26 ar  
    57   25   28 ar  
    58   26   56 1   
    59   27   57 1   
    60   50   58 1   
    61   51   58 1   
@<TRIPOS>SUBSTRUCTURE
     1 RTN         1 TEMP              0 ****  ****    0 ROOT
