@<TRIPOS>MOLECULE
RTN
   59    59     1     0     0
SMALL
bcc


@<TRIPOS>ATOM
      1 C4          0.6550   -2.8010   -0.7800 c2        1 RTN      0.125000
      2 C5          0.0690   -1.5900   -0.2540 c2        1 RTN     -0.281000
      3 C6          0.8950   -0.4950    0.1370 c2        1 RTN      0.096000
      4 C8         -1.4430   -3.8090   -1.0420 c2        1 RTN      0.269000
      5 C10        -1.3230   -1.5360   -0.1420 c2        1 RTN      0.082000
      6 C13         4.5510    0.2860   -1.6010 c1        1 RTN     -0.339000
      7 C15         2.1890    1.6670    2.5240 c3        1 RTN     -0.192000
      8 C17         2.0050    2.7730    0.3160 c2        1 RTN     -0.200000
      9 C20         2.7010    1.0550   -5.9840 c2        1 RTN      0.312000
     10 C22         3.6100   -1.2410   -5.8780 c3        1 RTN      0.049000
     11 C24         3.1020   -3.6290   -5.1700 c3        1 RTN     -0.162000
     12 C26         5.8430   -1.5320   -4.8240 c1        1 RTN     -0.047000
     13 C23         3.0410   -2.6110   -6.2890 c3        1 RTN     -0.178000
     14 C25         4.4980   -3.9410   -4.6960 c3        1 RTN     -0.223000
     15 C27         5.1520   -1.2570   -6.0550 c3        1 RTN     -0.265000
     16 N21         2.9960   -0.1510   -6.5960 n         1 RTN     -0.395000
     17 O29         3.0400    1.2620   -4.8000 o         1 RTN     -0.395000
     18 C19         1.9780    2.0930   -6.8030 c3        1 RTN     -0.243000
     19 C9         -2.1270   -2.6190   -0.5250 c2        1 RTN     -0.298000
     20 N7         -0.0550   -3.8580   -1.1610 n2        1 RTN     -0.258000
     21 N28        -2.1780   -4.8780   -1.4140 nh        1 RTN     -0.284000
     22 C3          2.1580   -2.8600   -0.8940 c3        1 RTN     -0.169000
     23 C2          2.9130   -1.6900   -0.4940 c1        1 RTN     -0.126000
     24 C1          2.2620   -0.5510    0.0210 c2        1 RTN     -0.241000
     25 C11         3.1480    0.5680    0.4710 c3        1 RTN     -0.043000
     26 C12         4.1280    1.0060   -0.5460 c2        1 RTN      0.329000
     27 C14         4.9510   -0.3540   -2.5740 c1        1 RTN      0.110000
     28 C16         2.4150    1.7400    1.0600 c2        1 RTN     -0.135000
     29 H6          0.3900    0.4040    0.5400 ha        1 RTN      0.144000
     30 H10        -1.8100   -0.6280    0.2560 ha        1 RTN      0.148000
     31 H13         4.5780    2.0130   -0.3830 ha        1 RTN      0.165000
     32 H15         3.1650    1.7160    3.0700 hc        1 RTN      0.097000
     33 H17         1.5480    2.5120    2.8780 hc        1 RTN      0.097000
     34 H17A        2.1660    2.8300   -0.7690 ha        1 RTN      0.131500
     35 H17B        1.4740    3.6310    0.7520 ha        1 RTN      0.131500
     36 H22         3.3960   -1.0770   -4.7750 h1        1 RTN      0.126000
     37 H24         2.4860   -3.2710   -4.3020 hc        1 RTN      0.094000
     38 H24A        2.6230   -4.5760   -5.5430 hc        1 RTN      0.094000
     39 H26         4.8540   -3.1630   -3.9680 hc        1 RTN      0.082667
     40 H26A        5.3400   -0.9380   -3.5430 ha        1 RTN      0.351000
     41 H23         3.5910   -2.9990   -7.1870 hc        1 RTN      0.098500
     42 H23A        1.9630   -2.5010   -6.5890 hc        1 RTN      0.098500
     43 H25         4.5160   -4.9200   -4.1570 hc        1 RTN      0.082667
     44 H25A        5.2120   -4.0030   -5.5530 hc        1 RTN      0.082667
     45 H27         6.8210   -2.0320   -4.8680 ha        1 RTN      0.101000
     46 H27A        5.4390   -1.9170   -6.9180 hc        1 RTN      0.152000
     47 HN21        5.5290   -0.2120   -6.3170 hc        1 RTN      0.152000
     48 H19         2.5670    2.3570   -7.7140 hc        1 RTN      0.115667
     49 H19A        1.8430    3.0120   -6.1800 hc        1 RTN      0.115667
     50 H18         0.9750    1.7150   -7.1140 hc        1 RTN      0.115667
     51 H18A       -4.0770   -1.8080   -0.0730 ha        1 RTN      0.075000
     52 HN28       -3.1740   -4.8100   -1.3110 hn        1 RTN      0.270000
     53 HN2A       -1.7620   -5.7110   -1.7560 hn        1 RTN      0.270000
     54 H3          2.5430   -3.7230   -0.2660 hc        1 RTN      0.170000
     55 H2          2.4450   -3.1100   -1.9600 hc        1 RTN      0.170000
     56 H12         3.8200    0.1270    1.2920 hc        1 RTN      0.182000
     57 H14         1.6870    0.7030    2.7910 hc        1 RTN      0.097000
     58 C18        -3.5210   -2.6700   -0.4560 c1        1 RTN     -0.142000
     59 H212        2.7030   -0.3140   -7.5290 hn        1 RTN      0.235000
@<TRIPOS>BOND
     1    1    2 1   
     2    1   20 1   
     3    1   22 1   
     4    2    3 1   
     5    2    5 1   
     6    3   24 1   
     7    3   29 1   
     8    4   19 1   
     9    4   20 1   
    10    4   21 1   
    11    5   19 1   
    12    5   30 1   
    13    6   26 1   
    14    6   27 1   
    15    7   28 1   
    16    7   32 1   
    17    7   33 1   
    18    7   57 1   
    19    8   28 1   
    20    8   34 1   
    21    8   35 1   
    22    9   16 1   
    23    9   17 1   
    24    9   18 1   
    25   10   13 1   
    26   10   15 1   
    27   10   16 1   
    28   10   36 1   
    29   11   13 1   
    30   11   14 1   
    31   11   37 1   
    32   11   38 1   
    33   12   15 1   
    34   12   45 1   
    35   13   41 1   
    36   13   42 1   
    37   14   39 1   
    38   14   43 1   
    39   14   44 1   
    40   15   46 1   
    41   15   47 1   
    42   16   59 1   
    43   18   48 1   
    44   18   49 1   
    45   18   50 1   
    46   19   58 1   
    47   21   52 1   
    48   21   53 1   
    49   22   23 1   
    50   22   54 1   
    51   22   55 1   
    52   23   24 1   
    53   24   25 1   
    54   25   26 1   
    55   25   28 1   
    56   25   56 1   
    57   26   31 1   
    58   27   40 1   
    59   51   58 1   
@<TRIPOS>SUBSTRUCTURE
     1 RTN         1 TEMP              0 ****  ****    0 ROOT
