@<TRIPOS>MOLECULE
RTN
   60    62     1     0     0
SMALL
bcc


@<TRIPOS>ATOM
      1 C4         -0.7810    0.3880    0.4370 c2        1 RTN     -0.005000
      2 C5          0.4680   -0.1480   -0.0240 c2        1 RTN     -0.006000
      3 C6          1.5820   -0.2780    0.8670 c2        1 RTN     -0.162000
      4 C8         -1.6510    0.3260   -1.7100 c2        1 RTN     -0.103000
      5 C10         0.5830   -0.4760   -1.3850 c2        1 RTN     -0.082000
      6 C13         4.9950    0.1140    3.6070 c3        1 RTN     -0.324000
      7 C15         4.1430    0.5340    4.8160 c3        1 RTN     -0.334000
      8 C17         1.6800    1.0030    5.2540 c3        1 RTN     -0.217000
      9 C20         0.5780   -1.9890   -5.5350 c2        1 RTN      0.350000
     10 C22         4.4760   -2.6040   -7.7040 c3        1 RTN     -0.259500
     11 C24         5.4260   -4.7550   -8.7070 c3        1 RTN     -0.259500
     12 C26         5.7180   -2.5650   -9.8870 c3        1 RTN     -0.180000
     13 C23         4.8490   -3.9910   -7.6260 c2        1 RTN      0.281000
     14 C25         5.5030   -4.0530  -10.0490 c3        1 RTN     -0.169000
     15 C27         4.6140   -1.9430   -9.0600 c3        1 RTN     -0.169000
     16 N21        -0.4560   -1.9540   -6.4270 n         1 RTN     -0.407000
     17 O29         1.7380   -2.2800   -5.9110 o         1 RTN     -0.421000
     18 C19         0.3090   -1.6770   -4.1030 c2        1 RTN     -0.136000
     19 C9         -0.4820   -0.2570   -2.2680 c2        1 RTN     -0.052000
     20 N7         -1.8040    0.6400   -0.3980 n2        1 RTN     -0.112000
     21 N28        -2.8160    0.6130   -2.5720 n4        1 RTN     -0.004000
     22 C3         -0.9420    0.6550    1.9080 c3        1 RTN     -0.177000
     23 C2          0.2160    0.4200    2.7340 c1        1 RTN     -0.019000
     24 C1          1.5100    0.1480    2.1760 c2        1 RTN      0.021000
     25 C11         2.6700    0.2310    3.0090 c2        1 RTN     -0.184000
     26 C12         4.0390   -0.0820    2.4460 c3        1 RTN     -0.081000
     27 C14         4.8430   -0.7970    4.7750 c1        1 RTN      0.270000
     28 C16         2.7410    0.5860    4.3360 c2        1 RTN      0.108000
     29 H6          2.5120   -0.7040    0.4570 ha        1 RTN      0.155000
     30 H10         1.5290   -0.8960   -1.7700 ha        1 RTN      0.171000
     31 H13         4.2900    0.6130    1.6060 hc        1 RTN      0.100500
     32 H15         4.4380    1.2870    5.5670 hc        1 RTN      0.185000
     33 H17         1.9210    0.6920    6.3020 hc        1 RTN      0.121667
     34 H17A        0.6880    0.5680    4.9590 hc        1 RTN      0.121667
     35 H17B        1.5880    2.1210    5.2360 hc        1 RTN      0.121667
     36 H22         3.4060   -2.4840   -7.3070 hc        1 RTN      0.212250
     37 H24         6.4730   -5.0620   -8.3660 hc        1 RTN      0.212250
     38 H24A        4.8830   -5.7480   -8.8100 hc        1 RTN      0.212250
     39 H26         6.7150   -2.3680   -9.4120 hc        1 RTN      0.119500
     40 H26A        5.7360   -2.0820  -10.9020 hc        1 RTN      0.119500
     41 H23         5.0850   -2.0420   -6.9190 hc        1 RTN      0.212250
     42 H23A        4.7060   -4.5090   -6.6490 ha        1 RTN      0.171000
     43 H25         4.5550   -4.2400  -10.6220 hc        1 RTN      0.123750
     44 H25A        6.3430   -4.4970  -10.6490 hc        1 RTN      0.123750
     45 H27         3.6400   -2.0250   -9.6130 hc        1 RTN      0.123750
     46 H27A        4.8200   -0.8480   -8.9160 hc        1 RTN      0.123750
     47 HN21       -0.2980   -2.2070   -7.3740 hn        1 RTN      0.238000
     48 H19         3.2980   -1.6150   -3.2250 ha        1 RTN      0.001000
     49 H19A        2.9200   -1.7020   -3.7800 ha        1 RTN      0.001000
     50 H18         0.7590   -2.4080   -3.4070 ha        1 RTN      0.176000
     51 H18A       -0.7800    0.1300   -4.3970 ha        1 RTN      0.131000
     52 HN28       -2.5700    1.3700   -3.2190 hn        1 RTN      0.264000
     53 HN2A       -3.0560   -0.2310   -3.1000 hn        1 RTN      0.264000
     54 H3         -1.2890    1.7190    2.0970 hc        1 RTN      0.193500
     55 H2         -1.7750   -0.0020    2.3140 hc        1 RTN      0.193500
     56 H12         4.0920   -1.1340    2.0670 hc        1 RTN      0.100500
     57 H14         5.9710    0.5620    3.3620 hc        1 RTN      0.174000
     58 C18        -0.3570   -0.5950   -3.6790 c2        1 RTN     -0.136000
     59 H212       -1.3880   -1.8310   -6.1260 hn        1 RTN      0.238000
     60 H283       -3.6270    0.9050   -2.0060 hn        1 RTN      0.264000
@<TRIPOS>BOND
     1    1    2 1   
     2    1   20 1   
     3    1   22 1   
     4    2    3 1   
     5    2    5 1   
     6    3   24 1   
     7    3   29 1   
     8    4   19 1   
     9    4   20 1   
    10    4   21 1   
    11    5   19 1   
    12    5   30 1   
    13    6    7 1   
    14    6   26 1   
    15    6   27 1   
    16    6   57 1   
    17    7   27 1   
    18    7   28 1   
    19    7   32 1   
    20    8   28 1   
    21    8   33 1   
    22    8   34 1   
    23    8   35 1   
    24    9   16 1   
    25    9   17 1   
    26    9   18 1   
    27   10   13 1   
    28   10   15 1   
    29   10   36 1   
    30   10   41 1   
    31   11   13 1   
    32   11   14 1   
    33   11   37 1   
    34   11   38 1   
    35   12   14 1   
    36   12   15 1   
    37   12   39 1   
    38   12   40 1   
    39   13   42 1   
    40   14   43 1   
    41   14   44 1   
    42   15   45 1   
    43   15   46 1   
    44   16   47 1   
    45   16   59 1   
    46   18   50 1   
    47   18   58 1   
    48   19   58 1   
    49   21   52 1   
    50   21   53 1   
    51   21   60 1   
    52   22   23 1   
    53   22   54 1   
    54   22   55 1   
    55   23   24 1   
    56   24   25 1   
    57   25   26 1   
    58   25   28 1   
    59   26   31 1   
    60   26   56 1   
    61   48   49 1   
    62   51   58 1   
@<TRIPOS>SUBSTRUCTURE
     1 RTN         1 TEMP              0 ****  ****    0 ROOT
