@<TRIPOS>MOLECULE
RTN
   59    61     1     0     0
SMALL
bcc


@<TRIPOS>ATOM
      1 C4         -0.1420   -0.0530   -0.0320 ca        1 RTN      0.040000
      2 C5          1.2830    0.0420   -0.0240 ca        1 RTN     -0.104000
      3 C6          1.9850    0.0990    1.2040 ca        1 RTN     -0.099000
      4 C8         -0.2130   -0.0610   -2.3720 c2        1 RTN      0.093000
      5 C10         1.9500    0.0750   -1.2770 c2        1 RTN     -0.050000
      6 C13         3.7290   -0.3440    5.3100 c3        1 RTN     -0.080000
      7 C15         2.6740    0.5890    5.8540 c2        1 RTN     -0.406000
      8 C17         0.5160    1.6830    5.0190 c3        1 RTN     -0.190000
      9 C20         2.6400   -1.3780   -5.7130 c2        1 RTN      0.326000
     10 C22         3.5300   -2.7200   -7.5900 c3        1 RTN      0.060000
     11 C24         4.6110   -4.4290   -9.1330 c3        1 RTN     -0.178000
     12 C26         3.9850   -1.3420   -9.6530 c2        1 RTN      0.211000
     13 C23         3.4800   -4.1480   -8.1620 c3        1 RTN     -0.184000
     14 C25         4.2060   -4.2900  -10.5780 c3        1 RTN     -0.208000
     15 C27         3.0540   -1.7200   -8.6760 c3        1 RTN     -0.313000
     16 N21         2.7710   -2.5890   -6.3720 ns        1 RTN     -0.390000
     17 O29         3.0470   -0.3330   -6.2810 o         1 RTN     -0.409000
     18 C19         1.9910   -1.3810   -4.3490 c3        1 RTN     -0.175000
     19 C9          1.2390    0.0150   -2.4530 c2        1 RTN     -0.164000
     20 N7         -0.8670   -0.0860   -1.1980 n2        1 RTN     -0.182000
     21 N28        -0.9520   -0.1780   -3.5770 nv        1 RTN     -0.314000
     22 C3         -0.8220   -0.0980    1.2290 ca        1 RTN     -0.111000
     23 C2         -0.1130   -0.0370    2.4000 ca        1 RTN     -0.099000
     24 C1          1.3080    0.0670    2.4090 ca        1 RTN     -0.012000
     25 C11         2.0190    0.1240    3.6680 c2        1 RTN     -0.106000
     26 C12         3.3040   -0.6360    3.8620 c3        1 RTN     -0.121000
     27 C14         2.6730    1.1040    7.0710 c1        1 RTN      0.236000
     28 C16         1.6780    0.8110    4.7930 c2        1 RTN      0.005000
     29 H6          3.0830    0.1780    1.1820 ha        1 RTN      0.138000
     30 H10         3.0500    0.1490   -1.2880 ha        1 RTN      0.139000
     31 H13         4.0850   -0.2890    3.1400 hc        1 RTN      0.094000
     32 H15         3.7680   -1.2860    5.9120 hc        1 RTN      0.098000
     33 H17         0.8070    2.5780    5.6240 hc        1 RTN      0.096000
     34 H17A        0.0850    2.0360    4.0490 hc        1 RTN      0.096000
     35 H17B       -0.2800    1.1270    5.5780 hc        1 RTN      0.096000
     36 H22         4.6080   -2.4540   -7.3530 h1        1 RTN      0.109000
     37 H24         5.4900   -3.7650   -8.9150 hc        1 RTN      0.102000
     38 H24A        4.9640   -5.4850   -8.9680 hc        1 RTN      0.102000
     39 H26         3.8930   -3.2400  -10.8160 hc        1 RTN      0.078333
     40 H26A        3.6650   -0.8610  -10.5980 ha        1 RTN      0.178000
     41 H23         5.0760   -1.4480   -9.4900 ha        1 RTN      0.178000
     42 H23A        3.5600   -4.8810   -7.3120 hc        1 RTN      0.115000
     43 H25         2.4870   -4.3240   -8.6550 hc        1 RTN      0.115000
     44 H25A        5.0610   -4.5560  -11.2470 hc        1 RTN      0.078333
     45 H27         3.3480   -4.9640  -10.8200 hc        1 RTN      0.078333
     46 H27A        2.0130   -1.9390   -9.0410 hc        1 RTN      0.264000
     47 HN21        2.9340   -0.6580   -8.1130 hc        1 RTN      0.264000
     48 H19         0.9500   -1.7960   -4.4400 hc        1 RTN      0.136500
     49 H19A        2.5710   -2.0610   -3.6680 hc        1 RTN      0.136500
     50 H18         1.4560    0.7200   -4.4840 hc        1 RTN      0.101000
     51 H18A        3.0000    0.3910   -3.6260 hc        1 RTN      0.101000
     52 HN28       -0.6990    0.5380   -4.2270 hn        1 RTN      0.185500
     53 HN2A       -1.9440   -0.2090   -3.4380 hn        1 RTN      0.185500
     54 H3         -1.9210   -0.1800    1.2410 ha        1 RTN      0.157000
     55 H2         -0.6400   -0.0780    3.3680 ha        1 RTN      0.148000
     56 H12         3.1440   -1.7310    3.7030 hc        1 RTN      0.094000
     57 H14         4.7370    0.1400    5.3420 hc        1 RTN      0.098000
     58 C18         1.9470    0.0180   -3.7590 c3        1 RTN     -0.094000
     59 H212        2.3880   -3.4140   -5.9710 hn        1 RTN      0.258000
@<TRIPOS>BOND
     1    1    2 1   
     2    1   20 1   
     3    1   22 1   
     4    2    3 1   
     5    2    5 1   
     6    3   24 1   
     7    3   29 1   
     8    4   19 1   
     9    4   20 1   
    10    4   21 1   
    11    5   19 1   
    12    5   30 1   
    13    6    7 1   
    14    6   26 1   
    15    6   32 1   
    16    6   57 1   
    17    7   27 1   
    18    7   28 1   
    19    8   28 1   
    20    8   33 1   
    21    8   34 1   
    22    8   35 1   
    23    9   16 1   
    24    9   17 1   
    25    9   18 1   
    26   10   13 1   
    27   10   15 1   
    28   10   16 1   
    29   10   36 1   
    30   11   13 1   
    31   11   14 1   
    32   11   37 1   
    33   11   38 1   
    34   12   15 1   
    35   12   40 1   
    36   12   41 1   
    37   13   42 1   
    38   13   43 1   
    39   14   39 1   
    40   14   44 1   
    41   14   45 1   
    42   15   46 1   
    43   15   47 1   
    44   16   59 1   
    45   18   48 1   
    46   18   49 1   
    47   18   58 1   
    48   19   58 1   
    49   21   52 1   
    50   21   53 1   
    51   22   23 1   
    52   22   54 1   
    53   23   24 1   
    54   23   55 1   
    55   24   25 1   
    56   25   26 1   
    57   25   28 1   
    58   26   31 1   
    59   26   56 1   
    60   50   58 1   
    61   51   58 1   
@<TRIPOS>SUBSTRUCTURE
     1 RTN         1 TEMP              0 ****  ****    0 ROOT
