@<TRIPOS>MOLECULE
RTR
   49    42     1     0     0
SMALL
bcc


@<TRIPOS>ATOM
      1 N29        -5.4660   -1.5070    5.6430 n1        1 RTR     -0.289000
      2 C28        -5.2070   -2.6170    5.0000 c1        1 RTR      0.124000
      3 N30        -5.8510   -3.8430    5.3930 n2        1 RTR     -0.396000
      4 C27        -4.2370   -2.6110    3.8490 c2        1 RTR     -0.052000
      5 C26        -4.6810   -2.2870    2.5660 c2        1 RTR     -0.090000
      6 C24        -3.7940   -2.3290    1.4850 c1        1 RTR     -0.119000
      7 C22        -2.4620   -2.6950    1.6900 c1        1 RTR     -0.105000
      8 C23        -2.0160   -3.0230    2.9860 c1        1 RTR     -0.129000
      9 C25        -2.9010   -2.9800    4.0570 c1        1 RTR     -0.113000
     10 C21        -1.5280   -2.8960    0.4810 c3        1 RTR      0.009000
     11 N19        -0.7900   -1.6800    0.2350 n         1 RTR     -0.314000
     12 C16        -1.5520   -0.3260    0.0760 c2        1 RTR      0.298000
     13 O20        -2.7580   -0.3100    0.0500 o         1 RTR     -0.365000
     14 C12        -0.7230    0.7900   -0.7140 c3        1 RTR     -0.033000
     15 N7          0.7640    0.9320   -0.0500 n3        1 RTR     -0.831000
     16 C13         1.5080   -0.5470    0.0890 c3        1 RTR     -0.028000
     17 C17         0.6940   -1.5230    0.8010 c3        1 RTR     -0.037000
     18 S4          2.0320    2.6110   -0.8020 s4        1 RTR      2.098800
     19 O8          1.3710    3.8490   -0.6730 o         1 RTR     -0.531900
     20 O9          3.1720    2.8170    0.0380 o         1 RTR     -0.531900
     21 C1          2.5210    2.3130   -2.4880 c1        1 RTR     -1.140000
     22 C3          2.3020    2.7730   -3.8510 c1        1 RTR      0.007000
     23 C6          3.7320    3.2060   -4.4790 c1        1 RTR     -0.108000
     24 C5          4.7470    2.9950   -3.4860 c1        1 RTR     -0.302000
     25 S2          4.0440    2.4250   -2.1860 s         1 RTR      0.688000
     26 C10         6.0470    3.3560   -3.7480 c1        1 RTR     -0.107000
     27 C14         6.3810    3.9330   -4.9930 c1        1 RTR     -0.029000
     28 CL          8.0840    4.0810   -5.2910 cl        1 RTR     -0.001000
     29 C15         5.3830    4.1390   -5.9650 c1        1 RTR     -0.138000
     30 C11         4.0630    3.7730   -5.6990 c1        1 RTR     -0.057000
     31 H29        -6.0490   -1.5100    6.3350 DU        1 RTR      0.161000
     32 H301       -5.5970   -4.6500    4.9960 hn        1 RTR      0.193000
     33 H302       -6.6000   -3.8180    5.9730 hn        1 RTR      0.193000
     34 H26        -5.6310   -2.0250    2.4200 ha        1 RTR      0.152000
     35 H24        -4.1160   -2.0950    0.5620 ha        1 RTR      0.158000
     36 H23        -1.0890   -3.2800    3.1320 ha        1 RTR      0.131000
     37 H25        -2.5720   -3.2210    5.0120 ha        1 RTR      0.144000
     38 H211       -0.9080   -3.6210    0.6690 h1        1 RTR      0.110500
     39 H212       -2.0620   -3.1180   -0.3090 h1        1 RTR      0.110500
     40 H121       -0.7920    0.5830   -1.6870 h1        1 RTR      0.125000
     41 H122       -1.1350    1.6700   -0.6840 h1        1 RTR      0.125000
     42 H131        1.6990   -0.8880   -0.8080 h1        1 RTR      0.105500
     43 H132        2.3350   -0.4340    0.5600 h1        1 RTR      0.105500
     44 H171        1.1250   -2.3630    0.7530 h1        1 RTR      0.095000
     45 H172        0.6410   -1.2600    1.7260 h1        1 RTR      0.095000
     46 H3          1.4410    2.8440   -4.2950 DU        1 RTR      0.161000
     47 H10         6.7540    3.0990   -3.1290 ha        1 RTR      0.156000
     48 H15         5.6190    4.5450   -6.8410 ha        1 RTR      0.154000
     49 H11         3.3600    3.9180   -6.3850 ha        1 RTR      0.149000
@<TRIPOS>BOND
     1    1    2 1   
     2    2    4 1   
     3    3   32 1   
     4    3   33 1   
     5    4    5 1   
     6    4    9 1   
     7    5    6 1   
     8    5   34 1   
     9    6   35 1   
    10    7    8 1   
    11    7   10 1   
    12    8   36 1   
    13    9   37 1   
    14   10   11 1   
    15   10   38 1   
    16   10   39 1   
    17   11   12 1   
    18   11   17 1   
    19   12   13 1   
    20   12   14 1   
    21   14   15 1   
    22   14   40 1   
    23   14   41 1   
    24   15   16 1   
    25   15   18 1   
    26   16   17 1   
    27   16   42 1   
    28   16   43 1   
    29   17   44 1   
    30   17   45 1   
    31   18   19 1   
    32   18   20 1   
    33   21   22 1   
    34   21   25 1   
    35   22   23 1   
    36   23   30 1   
    37   24   26 1   
    38   26   47 1   
    39   27   28 1   
    40   27   29 1   
    41   29   48 1   
    42   30   49 1   
@<TRIPOS>SUBSTRUCTURE
     1 RTR         1 TEMP              0 ****  ****    0 ROOT
