@<TRIPOS>MOLECULE
RTR
   49    52     1     0     0
SMALL
bcc


@<TRIPOS>ATOM
      1 N29         0.8130   -1.4950   -8.9150 n2        1 RTR     -0.833100
      2 C28         1.1750   -0.6140   -8.0290 ce        1 RTR      0.636800
      3 N30         2.4100    0.0640   -8.1200 nh        1 RTR     -0.891800
      4 C27         0.3160   -0.1750   -6.8830 ca        1 RTR     -0.191900
      5 C26        -0.2590   -1.1400   -6.0480 ca        1 RTR     -0.107000
      6 C24        -1.0750   -0.7480   -4.9900 ca        1 RTR     -0.121000
      7 C22        -1.3260    0.6100   -4.7610 ca        1 RTR     -0.111300
      8 C23        -0.7540    1.5710   -5.5980 ca        1 RTR     -0.121000
      9 C25         0.0670    1.1810   -6.6570 ca        1 RTR     -0.107000
     10 C21        -2.2410    1.0190   -3.6410 c3        1 RTR      0.131300
     11 N19        -1.7010    0.8600   -2.3070 n         1 RTR     -0.456800
     12 C16        -1.8370   -0.3510   -1.6420 c         1 RTR      0.689500
     13 O20        -2.5470   -1.2700   -2.0950 o         1 RTR     -0.639500
     14 C12        -1.1900   -0.5330   -0.2630 c3        1 RTR      0.153800
     15 N7         -0.1250    0.3750    0.0510 n3        1 RTR     -0.812500
     16 C13        -0.3370    1.7240   -0.3970 c3        1 RTR      0.208800
     17 C17        -0.6940    1.8100   -1.8960 c3        1 RTR      0.078000
     18 S4          1.2330   -0.1020    0.8300 sy        1 RTR      1.537800
     19 O8          1.5390   -1.4310    0.4730 o         1 RTR     -0.645300
     20 O9          2.2370    0.8650    0.6260 o         1 RTR     -0.645300
     21 C1          0.7790   -0.0930    2.4400 cc        1 RTR     -0.451500
     22 C3          0.5310   -1.2830    3.1110 cd        1 RTR      0.019800
     23 C6          0.1930   -1.0750    4.4820 ca        1 RTR     -0.119800
     24 C5          0.2020    0.3140    4.8010 ca        1 RTR     -0.074100
     25 S2          0.6120    1.2200    3.4660 ss        1 RTR      0.221500
     26 C10        -0.1060    0.7350    6.1060 ca        1 RTR     -0.107000
     27 C14        -0.4130   -0.2220    7.0580 ca        1 RTR      0.050400
     28 CL         -0.7910    0.2580    8.6420 cl        1 RTR     -0.078400
     29 C15        -0.4220   -1.6050    6.7460 ca        1 RTR     -0.138000
     30 C11        -0.1210   -2.0290    5.4690 ca        1 RTR     -0.057000
     31 H29        -0.1190   -1.8290   -8.8020 hn        1 RTR      0.395400
     32 H301        3.0600   -0.3220   -8.7730 hn        1 RTR      0.398300
     33 H302        2.8140    0.2580   -7.2310 hn        1 RTR      0.398300
     34 H26        -0.0650   -2.2090   -6.2230 ha        1 RTR      0.146500
     35 H24        -1.5320   -1.5020   -4.3270 ha        1 RTR      0.147000
     36 H23        -0.9520    2.6400   -5.4290 ha        1 RTR      0.147000
     37 H25         0.5120    1.9420   -7.3170 ha        1 RTR      0.146500
     38 H211       -2.5230    2.1050   -3.7650 h1        1 RTR      0.072700
     39 H212       -3.1820    0.3960   -3.7050 h1        1 RTR      0.072700
     40 H121       -0.8040   -1.5950   -0.2250 h1        1 RTR      0.086200
     41 H122       -2.0300   -0.4260    0.4860 h1        1 RTR      0.086200
     42 H131       -1.1720    2.1920    0.2010 h1        1 RTR      0.067200
     43 H132        0.6020    2.3290   -0.2350 h1        1 RTR      0.067200
     44 H171        0.2410    1.6670   -2.5110 h1        1 RTR      0.053700
     45 H172       -1.0830    2.8500   -2.0960 h1        1 RTR      0.053700
     46 H3          0.5990   -2.2780    2.6520 ha        1 RTR      0.183000
     47 H10        -0.0990    1.8070    6.3570 ha        1 RTR      0.156000
     48 H15        -0.6700   -2.3340    7.5330 ha        1 RTR      0.155000
     49 H11        -0.1210   -3.0990    5.2120 ha        1 RTR      0.149000
@<TRIPOS>BOND
     1    1    2 2   
     2    1   31 1   
     3    2    3 1   
     4    2    4 1   
     5    3   32 1   
     6    3   33 1   
     7    4    5 ar  
     8    4    9 ar  
     9    5    6 ar  
    10    5   34 1   
    11    6    7 ar  
    12    6   35 1   
    13    7    8 ar  
    14    7   10 1   
    15    8    9 ar  
    16    8   36 1   
    17    9   37 1   
    18   10   11 1   
    19   10   38 1   
    20   10   39 1   
    21   11   12 1   
    22   11   17 1   
    23   12   13 2   
    24   12   14 1   
    25   14   15 1   
    26   14   40 1   
    27   14   41 1   
    28   15   16 1   
    29   15   18 1   
    30   16   17 1   
    31   16   42 1   
    32   16   43 1   
    33   17   44 1   
    34   17   45 1   
    35   18   19 2   
    36   18   20 2   
    37   18   21 1   
    38   21   22 2   
    39   21   25 1   
    40   22   23 1   
    41   22   46 1   
    42   23   24 ar  
    43   23   30 ar  
    44   24   25 1   
    45   24   26 ar  
    46   26   27 ar  
    47   26   47 1   
    48   27   28 1   
    49   27   29 ar  
    50   29   30 ar  
    51   29   48 1   
    52   30   49 1   
@<TRIPOS>SUBSTRUCTURE
     1 RTR         1 TEMP              0 ****  ****    0 ROOT
