@<TRIPOS>MOLECULE
RTX
   50    52     1     0     0
SMALL
bcc


@<TRIPOS>ATOM
      1 C39         0.2570   -0.1850   -0.2120 c3        1 RTX     -0.134600
      2 C36         1.7590   -0.2150   -0.0270 c3        1 RTX      0.109300
      3 N33         2.1910   -0.0480    1.4020 nx        1 RTX     -0.691400
      4 C37         2.0340   -1.3340    2.1630 c3        1 RTX      0.109300
      5 C45         1.9250   -1.1410    3.6610 c3        1 RTX     -0.134600
      6 C30         3.6040    0.4520    1.4800 c3        1 RTX      0.103800
      7 C27         3.7330    1.9530    1.2470 c3        1 RTX     -0.099400
      8 C24         5.1910    2.3440    1.3710 c3        1 RTX     -0.122400
      9 C1          5.3540    3.8470    1.1170 c3        1 RTX      0.013300
     10 N2          6.7130    4.3610    1.1480 na        1 RTX     -0.089100
     11 C11         7.5630    3.8680    0.1100 ca        1 RTX     -0.113600
     12 C12         7.2550    4.1100   -1.2420 ca        1 RTX     -0.114000
     13 C13         8.1210    3.6650   -2.2430 ca        1 RTX      0.005400
     14 Cl1         7.7160    3.9480   -3.8680 cl        1 RTX     -0.076400
     15 C14         9.3110    2.9990   -1.9330 ca        1 RTX     -0.106000
     16 C15         9.6470    2.7730   -0.6020 ca        1 RTX     -0.182300
     17 C10         8.7750    3.1990    0.4050 ca        1 RTX      0.297000
     18 O9          9.1620    2.9060    1.7100 os        1 RTX     -0.401800
     19 C8          8.5400    3.6870    2.6840 ca        1 RTX      0.294000
     20 C3          7.3250    4.3690    2.4410 ca        1 RTX     -0.124600
     21 C4          6.7790    5.1320    3.4910 ca        1 RTX     -0.113000
     22 C5          7.4160    5.1790    4.7290 ca        1 RTX     -0.134000
     23 C6          8.6070    4.4880    4.9490 ca        1 RTX     -0.110000
     24 C7          9.1850    3.7440    3.9240 ca        1 RTX     -0.187300
     25 H1         -0.1860    0.7750    0.1480 hc        1 RTX      0.078033
     26 H2         -0.2490   -1.0340    0.3090 hc        1 RTX      0.078033
     27 H3          0.0430   -0.2760   -1.3090 hc        1 RTX      0.078033
     28 H4          2.2240    0.6230   -0.6240 hx        1 RTX      0.103450
     29 H5          2.1820   -1.1920   -0.4010 hx        1 RTX      0.103450
     30 H7          2.9180   -1.9880    1.9140 hx        1 RTX      0.103450
     31 H8          1.0990   -1.8410    1.7840 hx        1 RTX      0.103450
     32 H9          2.8520   -0.6950    4.0970 hc        1 RTX      0.078033
     33 H10         1.7730   -2.1480    4.1270 hc        1 RTX      0.078033
     34 H11         1.0520   -0.4980    3.9330 hc        1 RTX      0.078033
     35 H12         4.2140   -0.1140    0.7200 hx        1 RTX      0.104700
     36 H13         4.0000    0.2050    2.5080 hx        1 RTX      0.104700
     37 H14         3.3570    2.2310    0.2270 hc        1 RTX      0.063700
     38 H15         3.1250    2.5210    2.0010 hc        1 RTX      0.063700
     39 H16         5.8060    1.7670    0.6310 hc        1 RTX      0.065700
     40 H17         5.5700    2.0920    2.3970 hc        1 RTX      0.065700
     41 H18         4.7630    4.4130    1.8900 h1        1 RTX      0.063200
     42 H19         4.9310    4.0910    0.1010 h1        1 RTX      0.063200
     43 H20         6.3420    4.6640   -1.5130 ha        1 RTX      0.156000
     44 H21         9.9880    2.6650   -2.7350 ha        1 RTX      0.162000
     45 H22        10.5850    2.2660   -0.3300 ha        1 RTX      0.166000
     46 H23         5.8550    5.7090    3.3330 ha        1 RTX      0.143000
     47 H24         6.9770    5.7830    5.5380 ha        1 RTX      0.145000
     48 H25         9.1020    4.5400    5.9310 ha        1 RTX      0.149000
     49 H26        10.1330    3.2050    4.0690 ha        1 RTX      0.161000
     50 H331        1.5790    0.6560    1.8390 hn        1 RTX      0.444800
@<TRIPOS>BOND
     1    1    2 1   
     2    1   25 1   
     3    1   26 1   
     4    1   27 1   
     5    2    3 1   
     6    2   28 1   
     7    2   29 1   
     8    3    4 1   
     9    3    6 1   
    10    3   50 1   
    11    4    5 1   
    12    4   30 1   
    13    4   31 1   
    14    5   32 1   
    15    5   33 1   
    16    5   34 1   
    17    6    7 1   
    18    6   35 1   
    19    6   36 1   
    20    7    8 1   
    21    7   37 1   
    22    7   38 1   
    23    8    9 1   
    24    8   39 1   
    25    8   40 1   
    26    9   10 1   
    27    9   41 1   
    28    9   42 1   
    29   10   11 1   
    30   10   20 1   
    31   11   12 ar  
    32   11   17 ar  
    33   12   13 ar  
    34   12   43 1   
    35   13   14 1   
    36   13   15 ar  
    37   15   16 ar  
    38   15   44 1   
    39   16   17 ar  
    40   16   45 1   
    41   17   18 1   
    42   18   19 1   
    43   19   20 ar  
    44   19   24 ar  
    45   20   21 ar  
    46   21   22 ar  
    47   21   46 1   
    48   22   23 ar  
    49   22   47 1   
    50   23   24 ar  
    51   23   48 1   
    52   24   49 1   
@<TRIPOS>SUBSTRUCTURE
     1 RTX         1 TEMP              0 ****  ****    0 ROOT
