@<TRIPOS>MOLECULE
RTX
   50    52     1     0     0
SMALL
bcc


@<TRIPOS>ATOM
      1 C39         0.2600   -0.1960   -0.2110 c3        1 RTX     -0.134600
      2 C36         1.7630   -0.2230   -0.0280 c3        1 RTX      0.109300
      3 N33         2.1960   -0.0560    1.4010 n4        1 RTX     -0.691400
      4 C37         2.0440   -1.3440    2.1600 c3        1 RTX      0.109300
      5 C45         1.9370   -1.1530    3.6590 c3        1 RTX     -0.134600
      6 C30         3.6080    0.4470    1.4780 c3        1 RTX      0.103800
      7 C27         3.7330    1.9490    1.2460 c3        1 RTX     -0.099400
      8 C24         5.1900    2.3440    1.3710 c3        1 RTX     -0.122400
      9 C1          5.3490    3.8470    1.1160 c3        1 RTX      0.013300
     10 N2          6.7060    4.3650    1.1480 na        1 RTX     -0.089100
     11 C11         7.5590    3.8740    0.1110 ca        1 RTX     -0.113600
     12 C12         7.2500    4.1140   -1.2410 ca        1 RTX     -0.114000
     13 C13         8.1180    3.6710   -2.2410 ca        1 RTX      0.005400
     14 CL1         7.7140    3.9520   -3.8670 cl        1 RTX     -0.076400
     15 C14         9.3100    3.0100   -1.9310 ca        1 RTX     -0.106000
     16 C15         9.6470    2.7860   -0.6000 ca        1 RTX     -0.182300
     17 C10         8.7720    3.2090    0.4070 ca        1 RTX      0.297000
     18 O9          9.1600    2.9180    1.7120 os        1 RTX     -0.401800
     19 C8          8.5350    3.6980    2.6850 ca        1 RTX      0.294000
     20 C3          7.3180    4.3750    2.4410 ca        1 RTX     -0.124600
     21 C4          6.7690    5.1380    3.4910 ca        1 RTX     -0.113000
     22 C5          7.4050    5.1880    4.7290 ca        1 RTX     -0.134000
     23 C6          8.5990    4.5000    4.9500 ca        1 RTX     -0.110000
     24 C7          9.1800    3.7570    3.9260 ca        1 RTX     -0.187300
     25 H1          0.0460   -0.2860   -1.3070 hc        1 RTX      0.078033
     26 H2         -0.2430   -1.0470    0.3100 hc        1 RTX      0.078033
     27 H3         -0.1840    0.7630    0.1520 hc        1 RTX      0.078033
     28 H4          2.1880   -1.1970   -0.4030 hx        1 RTX      0.103450
     29 H5          2.2250    0.6180   -0.6240 hx        1 RTX      0.103450
     30 H7          1.1100   -1.8520    1.7820 hx        1 RTX      0.103450
     31 H8          2.9290   -1.9960    1.9090 hx        1 RTX      0.103450
     32 H9          1.0630   -0.5120    3.9330 hc        1 RTX      0.078033
     33 H10         2.8630   -0.7060    4.0940 hc        1 RTX      0.078033
     34 H11         1.7880   -2.1620    4.1240 hc        1 RTX      0.078033
     35 H12         4.0060    0.2000    2.5050 hx        1 RTX      0.104700
     36 H13         4.2190   -0.1160    0.7170 hx        1 RTX      0.104700
     37 H14         3.1240    2.5140    2.0010 hc        1 RTX      0.063700
     38 H15         3.3560    2.2270    0.2260 hc        1 RTX      0.063700
     39 H16         5.5700    2.0930    2.3960 hc        1 RTX      0.065700
     40 H17         5.8070    1.7690    0.6300 hc        1 RTX      0.065700
     41 H18         4.9250    4.0910    0.1010 h1        1 RTX      0.063200
     42 H19         4.7560    4.4120    1.8900 h1        1 RTX      0.063200
     43 H20         6.3360    4.6650   -1.5130 ha        1 RTX      0.156000
     44 H21         9.9890    2.6770   -2.7320 ha        1 RTX      0.162000
     45 H22        10.5860    2.2810   -0.3270 ha        1 RTX      0.166000
     46 H23         5.8430    5.7110    3.3330 ha        1 RTX      0.143000
     47 H24         6.9640    5.7910    5.5370 ha        1 RTX      0.145000
     48 H25         9.0940    4.5540    5.9320 ha        1 RTX      0.149000
     49 H26        10.1290    3.2210    4.0710 ha        1 RTX      0.161000
     50 H331        1.5840    0.6450    1.8400 hn        1 RTX      0.444800
@<TRIPOS>BOND
     1    1    2 1   
     2    1   25 1   
     3    1   26 1   
     4    1   27 1   
     5    2    3 1   
     6    2   28 1   
     7    2   29 1   
     8    3    4 1   
     9    3    6 1   
    10    3   50 1   
    11    4    5 1   
    12    4   30 1   
    13    4   31 1   
    14    5   32 1   
    15    5   33 1   
    16    5   34 1   
    17    6    7 1   
    18    6   35 1   
    19    6   36 1   
    20    7    8 1   
    21    7   37 1   
    22    7   38 1   
    23    8    9 1   
    24    8   39 1   
    25    8   40 1   
    26    9   10 1   
    27    9   41 1   
    28    9   42 1   
    29   10   11 1   
    30   10   20 1   
    31   11   12 ar  
    32   11   17 ar  
    33   12   13 ar  
    34   12   43 1   
    35   13   14 1   
    36   13   15 ar  
    37   15   16 ar  
    38   15   44 1   
    39   16   17 ar  
    40   16   45 1   
    41   17   18 1   
    42   18   19 1   
    43   19   20 ar  
    44   19   24 ar  
    45   20   21 ar  
    46   21   22 ar  
    47   21   46 1   
    48   22   23 ar  
    49   22   47 1   
    50   23   24 ar  
    51   23   48 1   
    52   24   49 1   
@<TRIPOS>SUBSTRUCTURE
     1 RTX         1 TEMP              0 ****  ****    0 ROOT
