@<TRIPOS>MOLECULE
RTX
   50    52     1     0     0
SMALL
bcc


@<TRIPOS>ATOM
      1 C39         0.2630   -0.1880   -0.2250 c3        1 RTX     -0.134600
      2 C36         1.7650   -0.2180   -0.0350 c3        1 RTX      0.109300
      3 N33         2.1910   -0.0490    1.3960 n4        1 RTX     -0.691400
      4 C37         2.0330   -1.3350    2.1570 c3        1 RTX      0.109300
      5 C45         1.9180   -1.1410    3.6540 c3        1 RTX     -0.134600
      6 C30         3.6040    0.4510    1.4790 c3        1 RTX      0.103800
      7 C27         3.7330    1.9520    1.2450 c3        1 RTX     -0.099400
      8 C24         5.1900    2.3440    1.3730 c3        1 RTX     -0.122400
      9 C1          5.3540    3.8470    1.1190 c3        1 RTX      0.013300
     10 N2          6.7120    4.3620    1.1520 na        1 RTX     -0.089100
     11 C11         7.5640    3.8690    0.1150 ca        1 RTX     -0.113600
     12 C12         7.2570    4.1110   -1.2370 ca        1 RTX     -0.114000
     13 C13         8.1240    3.6670   -2.2370 ca        1 RTX      0.005400
     14 CL1         7.7210    3.9500   -3.8630 cl        1 RTX     -0.076400
     15 C14         9.3150    3.0020   -1.9270 ca        1 RTX     -0.106000
     16 C15         9.6500    2.7760   -0.5950 ca        1 RTX     -0.182300
     17 C10         8.7760    3.2010    0.4110 ca        1 RTX      0.297000
     18 O9          9.1620    2.9080    1.7160 os        1 RTX     -0.401800
     19 C8          8.5390    3.6880    2.6900 ca        1 RTX      0.294000
     20 C3          7.3230    4.3690    2.4450 ca        1 RTX     -0.124600
     21 C4          6.7760    5.1320    3.4950 ca        1 RTX     -0.113000
     22 C5          7.4110    5.1790    4.7340 ca        1 RTX     -0.134000
     23 C6          8.6020    4.4890    4.9550 ca        1 RTX     -0.110000
     24 C7          9.1820    3.7450    3.9310 ca        1 RTX     -0.187300
     25 H1         -0.1820    0.7720    0.1340 hc        1 RTX      0.078033
     26 H2         -0.2450   -1.0370    0.2950 hc        1 RTX      0.078033
     27 H3          0.0530   -0.2800   -1.3220 hc        1 RTX      0.078033
     28 H4          2.2320    0.6210   -0.6300 hx        1 RTX      0.103450
     29 H5          2.1890   -1.1940   -0.4060 hx        1 RTX      0.103450
     30 H7          2.9180   -1.9890    1.9120 hx        1 RTX      0.103450
     31 H8          1.0990   -1.8430    1.7750 hx        1 RTX      0.103450
     32 H9          2.8430   -0.6940    4.0940 hc        1 RTX      0.078033
     33 H10         1.7650   -2.1480    4.1210 hc        1 RTX      0.078033
     34 H11         1.0440   -0.4980    3.9230 hc        1 RTX      0.078033
     35 H12         4.2170   -0.1140    0.7210 hx        1 RTX      0.104700
     36 H13         3.9970    0.2050    2.5080 hx        1 RTX      0.104700
     37 H14         3.3590    2.2300    0.2240 hc        1 RTX      0.063700
     38 H15         3.1230    2.5200    1.9980 hc        1 RTX      0.063700
     39 H16         5.8070    1.7680    0.6340 hc        1 RTX      0.065700
     40 H17         5.5680    2.0920    2.3990 hc        1 RTX      0.065700
     41 H18         4.7610    4.4130    1.8920 h1        1 RTX      0.063200
     42 H19         4.9310    4.0910    0.1030 h1        1 RTX      0.063200
     43 H20         6.3440    4.6650   -1.5090 ha        1 RTX      0.156000
     44 H21         9.9930    2.6680   -2.7280 ha        1 RTX      0.162000
     45 H22        10.5880    2.2690   -0.3230 ha        1 RTX      0.166000
     46 H23         5.8510    5.7080    3.3370 ha        1 RTX      0.143000
     47 H24         6.9710    5.7830    5.5430 ha        1 RTX      0.145000
     48 H25         9.0970    4.5410    5.9370 ha        1 RTX      0.149000
     49 H26        10.1300    3.2070    4.0760 ha        1 RTX      0.161000
     50 H331        1.5780    0.6540    1.8300 hn        1 RTX      0.444800
@<TRIPOS>BOND
     1    1    2 1   
     2    1   25 1   
     3    1   26 1   
     4    1   27 1   
     5    2    3 1   
     6    2   28 1   
     7    2   29 1   
     8    3    4 1   
     9    3    6 1   
    10    3   50 1   
    11    4    5 1   
    12    4   30 1   
    13    4   31 1   
    14    5   32 1   
    15    5   33 1   
    16    5   34 1   
    17    6    7 1   
    18    6   35 1   
    19    6   36 1   
    20    7    8 1   
    21    7   37 1   
    22    7   38 1   
    23    8    9 1   
    24    8   39 1   
    25    8   40 1   
    26    9   10 1   
    27    9   41 1   
    28    9   42 1   
    29   10   11 1   
    30   10   20 1   
    31   11   12 ar  
    32   11   17 ar  
    33   12   13 ar  
    34   12   43 1   
    35   13   14 1   
    36   13   15 ar  
    37   15   16 ar  
    38   15   44 1   
    39   16   17 ar  
    40   16   45 1   
    41   17   18 1   
    42   18   19 1   
    43   19   20 ar  
    44   19   24 ar  
    45   20   21 ar  
    46   21   22 ar  
    47   21   46 1   
    48   22   23 ar  
    49   22   47 1   
    50   23   24 ar  
    51   23   48 1   
    52   24   49 1   
@<TRIPOS>SUBSTRUCTURE
     1 RTX         1 TEMP              0 ****  ****    0 ROOT
