@<TRIPOS>MOLECULE
RTY
   40    34     1     0     0
SMALL
bcc


@<TRIPOS>ATOM
      1 C           1.8280   -0.4100   -0.1600 c3        1 RTY      0.100100
      2 N           2.7450   -1.8530   -2.0460 n3        1 RTY     -0.919800
      3 O           0.4980   -0.7180   -0.5490 oh        1 RTY     -0.610800
      4 C1          6.2800   -4.8640   -2.8600 c1        1 RTY     -0.169250
      5 O1          3.7670   -6.1100   -4.8350 oh        1 RTY     -0.600100
      6 C2          4.3500   -6.3650   -6.0460 c         1 RTY      0.630100
      7 C3          5.7020   -5.8160   -6.3420 c3        1 RTY     -0.198100
      8 C4          5.6620   -3.8480   -2.9920 c1        1 RTY     -0.169250
      9 C6          2.3120   -1.3450    0.9370 c3        1 RTY     -0.064000
     10 CA          2.7000   -0.5580   -1.4280 c3        1 RTY      0.156800
     11 CB         -0.4590   -2.9530   -2.6060 c1        1 RTY     -0.102500
     12 CG         -0.2510   -3.9520   -3.2370 cg        1 RTY     -0.077000
     13 CZ          0.6050   -7.2370   -5.3190 c         1 RTY      0.580100
     14 CD1         5.7010   -0.7110   -5.7810 c1        1 RTY     -0.169250
     15 CD2         0.0020   -5.0780   -3.9460 cg        1 RTY     -0.001000
     16 CE1         4.8290   -0.9460   -4.9980 c1        1 RTY     -0.169250
     17 CE2         0.2460   -6.0730   -4.5730 ch        1 RTY     -0.145200
     18 H           1.8840    0.6620    0.1830 h1        1 RTY      0.059700
     19 HN          3.0870   -2.5450   -1.4060 hn        1 RTY      0.358800
     20 HNA         5.1150   -2.9420   -3.1180 ha        1 RTY      0.170750
     21 HO         -0.0680   -0.5520    0.2160 ho        1 RTY      0.416000
     22 H1          6.8340   -5.7590   -2.7230 ha        1 RTY      0.170750
     23 H1A         4.0480   -1.1470   -4.3050 ha        1 RTY      0.170750
     24 O2          3.6390   -7.0500   -6.7840 o         1 RTY     -0.505000
     25 H3          6.2500   -6.5130   -7.0220 hc        1 RTY      0.078033
     26 H3A         4.3480   -5.5550   -4.2910 ho        1 RTY      0.437000
     27 H4          5.5900   -4.8290   -6.8570 hc        1 RTY      0.078033
     28 H4A         6.2930   -5.6700   -5.4040 hc        1 RTY      0.078033
     29 BR1         1.6780   -0.8800    2.6930 br        1 RTY     -0.161400
     30 H6          3.4260   -1.3330    0.9860 h1        1 RTY      0.086200
     31 H6A         1.9600   -2.3860    0.7420 h1        1 RTY      0.086200
     32 HA          3.7510   -0.2630   -1.1460 h1        1 RTY      0.065200
     33 HB          2.3130    0.1770   -2.1880 h1        1 RTY      0.065200
     34 HBA        -0.6320   -2.0670   -2.0420 ha        1 RTY      0.188500
     35 HD1         6.4750   -0.4990   -6.4750 ha        1 RTY      0.170750
     36 HD2         5.2030   -1.9860   -0.2860 ha        1 RTY      0.001000
     37 HE1         5.4270   -2.3720   -0.7960 ha        1 RTY      0.001000
     38 HE2         1.6610   -7.2310   -5.6930 h4        1 RTY      0.064200
     39 OH         -0.1710   -8.1700   -5.5320 o         1 RTY     -0.509100
     40 HN3         1.8340   -2.1280   -2.3670 hn        1 RTY      0.358800
@<TRIPOS>BOND
     1    1    3 1   
     2    1    9 1   
     3    1   10 1   
     4    1   18 1   
     5    2   10 1   
     6    2   19 1   
     7    2   40 1   
     8    3   21 1   
     9    4    8 3   
    10    4   22 1   
    11    5    6 1   
    12    5   26 1   
    13    6    7 1   
    14    6   24 2   
    15    7   25 1   
    16    7   27 1   
    17    7   28 1   
    18    8   20 1   
    19    9   29 1   
    20    9   30 1   
    21    9   31 1   
    22   10   32 1   
    23   10   33 1   
    24   11   12 3   
    25   11   34 1   
    26   12   15 1   
    27   13   17 1   
    28   13   38 1   
    29   13   39 2   
    30   14   16 3   
    31   14   35 1   
    32   15   17 3   
    33   16   23 1   
    34   36   37 1   
@<TRIPOS>SUBSTRUCTURE
     1 RTY         1 TEMP              0 ****  ****    0 ROOT
