@<TRIPOS>MOLECULE
RTY
   40    35     1     0     0
SMALL
bcc


@<TRIPOS>ATOM
      1 C           2.0300    0.5730   -0.5420 c2        1 RTY      0.035000
      2 N           0.7790   -5.0550   -0.9010 n4        1 RTY     -0.100000
      3 O           1.4290   -0.2630    0.3530 oh        1 RTY     -0.277000
      4 C1          6.5460   -3.2310   -5.8810 c3        1 RTY     -0.281000
      5 O1          5.0380   -8.1930   -6.5600 o         1 RTY     -0.222000
      6 C2          4.3800   -8.8950   -5.8570 c1        1 RTY      0.440000
      7 C3          5.7380   -4.9970   -7.5020 c3        1 RTY     -0.281000
      8 C4          5.7730   -4.4020   -6.1900 c1        1 RTY     -0.093000
      9 C6          2.3210    1.8500   -0.2470 c2        1 RTY     -0.366000
     10 CA          1.3700   -3.6770   -0.5620 cx        1 RTY     -0.044000
     11 CB          1.2760   -2.6400   -1.5050 cu        1 RTY     -0.673000
     12 CG          2.6010   -3.2430   -1.3830 cx        1 RTY     -0.007000
     13 CZ          4.0560   -5.7450   -4.2150 c2        1 RTY      0.223000
     14 CD1         3.1670   -0.7760   -3.9630 c2        1 RTY     -0.546000
     15 CD2         3.1120   -4.1470   -2.3550 c1        1 RTY     -0.112000
     16 CE1         4.1410   -1.1230   -4.7500 c1        1 RTY      0.133000
     17 CE2         3.5270   -4.9040   -3.1890 c1        1 RTY     -0.255000
     18 H           2.2710    0.1390   -1.5310 h4        1 RTY      0.131000
     19 HN         -0.1970   -5.0930   -0.6170 hn        1 RTY      0.207000
     20 HNA         0.8320   -5.1940   -1.9130 hn        1 RTY      0.207000
     21 HO          1.3010   -1.1290   -0.0950 ho        1 RTY      0.262000
     22 H1          7.1180   -3.3990   -4.9300 hc        1 RTY      0.119333
     23 H1A         5.8020   -2.4000   -5.6630 hc        1 RTY      0.119333
     24 O2          3.7350   -9.6390   -5.1900 o         1 RTY     -0.222000
     25 H3          6.4200   -4.5480   -8.2680 hc        1 RTY      0.119333
     26 H3A         7.2520   -2.8800   -6.6750 hc        1 RTY      0.119333
     27 H4          4.6800   -4.9360   -7.8810 hc        1 RTY      0.119333
     28 H4A         5.9720   -6.0940   -7.3940 hc        1 RTY      0.119333
     29 BR1         2.0020    2.7540    1.3340 br        1 RTY      0.042000
     30 H6          0.7470   -1.3980    2.2910 ha        1 RTY      0.002000
     31 H6A         2.8110    2.4800   -0.9980 h4        1 RTY      0.146000
     32 HA          0.7060   -2.0140    2.0100 ha        1 RTY      0.002000
     33 HB          1.2980   -3.5910    0.5410 hx        1 RTY      0.130000
     34 HBA         0.6450   -2.0750   -2.1440 ha        1 RTY      0.182000
     35 HD1         2.6790    0.2110   -3.9540 ha        1 RTY      0.208500
     36 HD2         3.4150   -2.6820   -0.8700 hc        1 RTY      0.116000
     37 HE1         2.7310   -1.4740   -3.2160 ha        1 RTY      0.208500
     38 HE2         4.7730   -5.2290   -4.9570 h4        1 RTY      0.234000
     39 OH          3.7470   -6.9420   -4.3070 o         1 RTY     -0.352000
     40 HN3         1.2900   -5.8030   -0.4390 hn        1 RTY      0.207000
@<TRIPOS>BOND
     1    1    3 1   
     2    1    9 1   
     3    1   18 1   
     4    2   10 1   
     5    2   19 1   
     6    2   20 1   
     7    2   40 1   
     8    3   21 1   
     9    4    8 1   
    10    4   22 1   
    11    4   23 1   
    12    4   26 1   
    13    5    6 1   
    14    6   24 1   
    15    7    8 1   
    16    7   25 1   
    17    7   27 1   
    18    7   28 1   
    19    9   29 1   
    20    9   31 1   
    21   10   11 1   
    22   10   12 1   
    23   10   33 1   
    24   11   12 1   
    25   11   34 1   
    26   12   15 1   
    27   12   36 1   
    28   13   17 1   
    29   13   38 1   
    30   13   39 1   
    31   14   16 1   
    32   14   35 1   
    33   14   37 1   
    34   15   17 1   
    35   30   32 1   
@<TRIPOS>SUBSTRUCTURE
     1 RTY         1 TEMP              0 ****  ****    0 ROOT
