@<TRIPOS>MOLECULE
RTY
   39    39     1     0     0
SMALL
bcc


@<TRIPOS>ATOM
      1 C          -4.0010   -0.2940   -0.2500 c3        1 RTY      0.148100
      2 N          -2.2240   -0.7550    1.4310 n3        1 RTY     -0.905800
      3 O          -4.4440   -1.6370   -0.2890 oh        1 RTY     -0.589800
      4 C1          4.6880    0.1910   -0.2740 c3        1 RTY      0.124400
      5 O1          8.4320    0.5640    1.7050 o         1 RTY     -0.845300
      6 C2          8.4220    0.7720    0.4580 c         1 RTY      0.912600
      7 C3          7.0580    0.9240   -0.2460 c3        1 RTY     -0.200400
      8 C4          6.0880   -0.1380    0.2110 c3        1 RTY     -0.069400
      9 C6         -4.8160    0.5570    0.7100 c3        1 RTY     -0.035000
     10 CA         -2.4940   -0.1990    0.1190 c3        1 RTY      0.131500
     11 CB         -1.6850   -0.8230   -1.0350 c3        1 RTY     -0.059100
     12 CG         -0.2270   -0.8190   -0.7520 ca        1 RTY     -0.153300
     13 CZ          2.5240   -0.8160   -0.2140 ca        1 RTY      0.156100
     14 CD1         0.5730    0.2550   -1.1500 ca        1 RTY     -0.096500
     15 CD2         0.3670   -1.9000   -0.0850 ca        1 RTY     -0.096500
     16 CE1         1.9400    0.2670   -0.8870 ca        1 RTY     -0.190000
     17 CE2         1.7270   -1.9100    0.1880 ca        1 RTY     -0.190000
     18 H          -4.1250    0.0620   -1.3130 h1        1 RTY      0.086700
     19 HN         -2.2950   -1.7560    1.3990 hn        1 RTY      0.354300
     20 HNA        -1.2900   -0.5180    1.7110 hn        1 RTY      0.354300
     21 HO         -4.4860   -1.9640    0.6180 ho        1 RTY      0.403000
     22 H1          4.2990    1.1240    0.2120 h1        1 RTY      0.029700
     23 H1A         4.6580    0.3050   -1.3890 h1        1 RTY      0.029700
     24 O2          9.4590    0.8860   -0.2530 o         1 RTY     -0.845300
     25 H3          6.6620    1.9420    0.0030 hc        1 RTY      0.021700
     26 H3A         7.2050    0.8710   -1.3530 hc        1 RTY      0.021700
     27 H4          6.1060   -0.1990    1.3310 hc        1 RTY      0.063200
     28 H4A         6.3960   -1.1390   -0.1840 hc        1 RTY      0.063200
     29 BR1        -6.6070    0.9410    0.1110 br        1 RTY     -0.183400
     30 H6         -4.9130    0.0490    1.6980 h1        1 RTY      0.084700
     31 H6A        -4.3210    1.5460    0.8550 h1        1 RTY      0.084700
     32 HA         -2.2330    0.9010    0.1670 h1        1 RTY      0.063700
     33 HB         -2.0490   -1.8720   -1.2050 hc        1 RTY      0.055200
     34 HBA        -1.8960   -0.2400   -1.9700 hc        1 RTY      0.055200
     35 HD1         0.1190    1.1050   -1.6810 ha        1 RTY      0.122000
     36 HD2        -0.2530   -2.7570    0.2200 ha        1 RTY      0.122000
     37 HE1         2.5500    1.1220   -1.2110 ha        1 RTY      0.147500
     38 HE2         2.2010   -2.7530    0.7100 ha        1 RTY      0.147500
     39 OH          3.8530   -0.9200    0.1030 os        1 RTY     -0.322900
@<TRIPOS>BOND
     1    1    3 1   
     2    1    9 1   
     3    1   10 1   
     4    1   18 1   
     5    2   10 1   
     6    2   19 1   
     7    2   20 1   
     8    3   21 1   
     9    4    8 1   
    10    4   22 1   
    11    4   23 1   
    12    4   39 1   
    13    5    6 1   
    14    6    7 1   
    15    6   24 1   
    16    7    8 1   
    17    7   25 1   
    18    7   26 1   
    19    8   27 1   
    20    8   28 1   
    21    9   29 1   
    22    9   30 1   
    23    9   31 1   
    24   10   11 1   
    25   10   32 1   
    26   11   12 1   
    27   11   33 1   
    28   11   34 1   
    29   12   14 ar  
    30   12   15 ar  
    31   13   16 ar  
    32   13   17 ar  
    33   13   39 1   
    34   14   16 ar  
    35   14   35 1   
    36   15   17 ar  
    37   15   36 1   
    38   16   37 1   
    39   17   38 1   
@<TRIPOS>SUBSTRUCTURE
     1 RTY         1 TEMP              0 ****  ****    0 ROOT
