@<TRIPOS>MOLECULE
RTZ
   51    52     1     0     0
SMALL
bcc


@<TRIPOS>ATOM
      1 CAA        -0.3020    0.9020   -1.5290 c2        1 RTZ     -0.745000
      2 CAB         4.2400    7.8530   -3.6400 c3        1 RTZ     -0.377000
      3 CAC         0.2860   -1.2880   -4.1920 c2        1 RTZ     -0.213000
      4 CAD        -2.5480    0.8830   -5.7900 c1        1 RTZ      0.234000
      5 CAE         3.9950   -0.6010   -1.0930 c3        1 RTZ     -0.217000
      6 CAF         0.5520    0.1370    1.1530 c2        1 RTZ     -0.182000
      7 CAG         3.4040    0.7080   -0.6370 c3        1 RTZ     -0.168000
      8 CAH         1.1200   -0.3660   -4.6740 c2        1 RTZ     -0.136000
      9 CAI        -1.2350    0.7670   -5.8180 c2        1 RTZ     -0.439000
     10 CAJ         1.9600    6.1360   -4.4250 c3        1 RTZ     -0.159000
     11 CAK         0.8370    5.3320   -4.8830 c1        1 RTZ     -0.137000
     12 CAL         1.8710    2.6180   -0.9870 c3        1 RTZ     -0.210000
     13 CAM         0.9680   -0.3820   -0.0060 c2        1 RTZ     -0.122000
     14 CAN         2.6840    1.2260   -2.9440 c3        1 RTZ     -0.023000
     15 CAO         3.0240    4.0340   -3.6620 c2        1 RTZ     -0.228000
     16 CAP         2.2080    1.2130   -1.4620 c3        1 RTZ     -0.153000
     17 CAQ         3.0900    5.3840   -3.8200 c2        1 RTZ     -0.209000
     18 CAR         0.8640    1.0820   -4.5920 c2        1 RTZ     -0.025000
     19 CAS         1.8760    3.2510   -4.1000 c2        1 RTZ      0.260000
     20 CAT        -0.2390    1.6160   -5.1940 c2        1 RTZ     -0.213000
     21 CAU         0.8350    3.9610   -4.7360 c2        1 RTZ     -0.455000
     22 NAV         0.9270    0.2920   -1.3030 n4        1 RTZ      0.237000
     23 NAW         1.8500    1.8810   -3.9280 na        1 RTZ     -0.194000
     24 SAY        -0.5730    3.2500   -5.3670 ss        1 RTZ      0.463000
     25 HAA         1.6950    2.6190    0.1170 hc        1 RTZ      0.092000
     26 HAAA       -0.5590    1.1600   -2.5550 hx        1 RTZ      0.129000
     27 HAAB       -0.8130    1.3940   -0.7050 hx        1 RTZ      0.129000
     28 HAB         3.3530    8.2590   -3.1040 h1        1 RTZ      0.116000
     29 HABA        4.1220    8.0650   -4.7270 h1        1 RTZ      0.116000
     30 HABB        5.1580    8.3690   -3.2690 h1        1 RTZ      0.116000
     31 HAC        -0.6360   -1.0250   -3.6510 ha        1 RTZ      0.132500
     32 HAD         0.4760   -2.3630   -4.3170 ha        1 RTZ      0.132500
     33 HAE         4.5600   -0.4770   -2.0490 hc        1 RTZ      0.073667
     34 HAEA        4.7090   -0.9810   -0.3210 hc        1 RTZ      0.073667
     35 HAF         3.2090   -1.3780   -1.2510 hc        1 RTZ      0.073667
     36 HAFA        0.6000   -0.4570    2.0760 ha        1 RTZ      0.135500
     37 HAG         0.1420    1.1510    1.2580 ha        1 RTZ      0.135500
     38 HAGA        3.0980    0.6280    0.4400 hc        1 RTZ      0.091500
     39 HAH         2.0450   -0.6430   -5.2110 ha        1 RTZ      0.128000
     40 HAI        -0.8320   -0.1050   -6.3840 ha        1 RTZ      0.200000
     41 HAJ         1.5510    6.8780   -3.6760 hc        1 RTZ      0.148500
     42 HAK         2.3260    6.7340   -5.3110 hc        1 RTZ      0.148500
     43 HAL         0.9460    3.0000   -1.4890 hc        1 RTZ      0.092000
     44 HALA        2.7180    3.3090   -1.2170 hc        1 RTZ      0.092000
     45 HAM         1.0710   -0.4200   -2.0300 hn        1 RTZ      0.204000
     46 HAMA        1.3660   -1.4110   -0.0750 hx        1 RTZ      0.142000
     47 HAN         2.8430    0.1550   -3.2700 h1        1 RTZ      0.100500
     48 HANA        3.7050    1.7030   -2.9550 h1        1 RTZ      0.100500
     49 HAO         3.8900    3.5220   -3.2120 ha        1 RTZ      0.140000
     50 HAP         4.2030    1.4980   -0.6800 hc        1 RTZ      0.091500
     51 SAX         4.5010    6.1530   -3.3150 ss        1 RTZ      0.275000
@<TRIPOS>BOND
     1    1   22 1   
     2    1   26 1   
     3    1   27 1   
     4    2   28 1   
     5    2   29 1   
     6    2   30 1   
     7    2   51 1   
     8    3    8 1   
     9    3   31 1   
    10    3   32 1   
    11    4    9 1   
    12    5    7 1   
    13    5   33 1   
    14    5   34 1   
    15    5   35 1   
    16    6   13 1   
    17    6   36 1   
    18    6   37 1   
    19    7   16 1   
    20    7   38 1   
    21    7   50 1   
    22    8   18 1   
    23    8   39 1   
    24    9   20 1   
    25    9   40 1   
    26   10   11 1   
    27   10   17 1   
    28   10   41 1   
    29   10   42 1   
    30   11   21 1   
    31   12   16 1   
    32   12   25 1   
    33   12   43 1   
    34   12   44 1   
    35   13   22 1   
    36   13   46 1   
    37   14   16 1   
    38   14   23 1   
    39   14   47 1   
    40   14   48 1   
    41   15   17 1   
    42   15   19 1   
    43   15   49 1   
    44   16   22 1   
    45   17   51 1   
    46   18   20 1   
    47   18   23 1   
    48   19   21 1   
    49   19   23 1   
    50   20   24 1   
    51   21   24 1   
    52   22   45 1   
@<TRIPOS>SUBSTRUCTURE
     1 RTZ         1 TEMP              0 ****  ****    0 ROOT
