@<TRIPOS>MOLECULE
RTZ
   51    67     1     0     0
SMALL
bcc


@<TRIPOS>ATOM
      1 CAA         0.0000    0.0000    0.0000 c3        1 RTZ     -0.220000
      2 CAB         4.1480    7.5880   -2.7040 c3        1 RTZ     -0.020000
      3 CAC        -1.5250   -0.0930   -5.3850 c3        1 RTZ     -0.261000
      4 CAD        -1.8960    0.4470   -6.6020 c3        1 RTZ     -0.205000
      5 CAE         4.2760    0.0000    0.0000 DU        1 RTZ     -0.080000
      6 CAF         3.5220    0.0000    1.3340 c3        1 RTZ     -0.286000
      7 CAG         3.5220    0.8760   -1.0030 DU        1 RTZ     -0.681000
      8 CAH        -0.4650    0.4460   -4.6800 c3        1 RTZ     -0.137000
      9 CAI        -1.2070    1.5300   -7.1160 c2        1 RTZ     -0.030000
     10 CAJ         2.7080    5.9750   -4.6670 c3        1 RTZ      0.004000
     11 CAK         2.0420    5.4300   -5.7480 c2        1 RTZ     -0.280000
     12 CAL         1.3300    1.2330   -2.1510 DU        1 RTZ     -0.716000
     13 CAM         2.0940   -0.5020    1.1060 c3        1 RTZ     -0.545000
     14 CAN         1.9920    1.1490   -3.5280 DU        1 RTZ     -0.574000
     15 CAO         2.4270    3.9150   -3.4610 c2        1 RTZ     -0.310000
     16 CAP         2.0940    0.3490   -1.1620 c3        1 RTZ     -0.331000
     17 CAQ         2.9000    5.2180   -3.5200 c2        1 RTZ     -0.111000
     18 CAR         0.2360    1.5350   -5.1890 c2        1 RTZ     -0.307000
     19 CAS         1.7580    3.3620   -4.5480 c2        1 RTZ     -0.127000
     20 CAT        -0.1430    2.0780   -6.4130 c3        1 RTZ     -0.151000
     21 CAU         1.5660    4.1270   -5.6940 c2        1 RTZ     -0.258000
     22 NAV         1.4150    0.3700    0.1390 nx        1 RTZ      0.015000
     23 NAW         1.3030    2.0480   -4.4560 n3        1 RTZ      0.232000
     24 SAY         0.7130    3.4620   -7.0840 ss        1 RTZ      0.311000
     25 HAA         0.5050    0.8970   -0.3380 DU        1 RTZ      0.171000
     26 HAAA       -0.0980   -0.7800   -0.7460 hx        1 RTZ      0.105500
     27 HAAB       -0.3740   -0.3600    0.9510 hx        1 RTZ      0.105500
     28 HAB         3.5500    6.7370   -2.4010 DU        1 RTZ     -0.310000
     29 HABA        3.3840    8.2820   -3.0320 h1        1 RTZ      0.077000
     30 HABB        4.6590    7.9960   -1.8400 h1        1 RTZ      0.077000
     31 HAC        -0.8360    0.7180   -5.1830 DU        1 RTZ      0.281000
     32 HAD        -1.9830   -0.2570   -5.7820 DU        1 RTZ      0.233000
     33 HAE         3.5180    0.0020   -0.7740 DU        1 RTZ      0.267500
     34 HAEA        5.2720    0.3980    0.1490 ha        1 RTZ      0.143000
     35 HAF         3.9320   -0.5120    0.4710 DU        1 RTZ      0.248000
     36 HAFA        3.4910    1.0080    1.7300 hc        1 RTZ      0.049000
     37 HAG         3.6820    0.3940   -0.0470 DU        1 RTZ      0.267500
     38 HAGA        3.4900    1.8960   -0.6390 ha        1 RTZ      0.129000
     39 HAH         0.4600    0.5280   -4.1220 hc        1 RTZ      0.221000
     40 HAI        -0.9170    1.1050   -6.1620 DU        1 RTZ      0.093000
     41 HAJ         2.0320    5.3290   -5.2140 hc        1 RTZ      0.214000
     42 HAK         2.5660    6.2210   -5.2260 DU        1 RTZ      0.171000
     43 HAL         1.4230    2.0200   -2.8890 DU        1 RTZ      0.461500
     44 HALA        1.3470    2.2600   -1.8040 ha        1 RTZ      0.180000
     45 HAM         1.6120   -0.1270    0.2120 hx        1 RTZ      0.170500
     46 HAMA        1.5540   -0.4870    2.0450 hx        1 RTZ      0.170500
     47 HAN         2.0210    0.5720   -2.6110 DU        1 RTZ      0.461500
     48 HANA        1.9290    0.1320   -3.8970 ha        1 RTZ      0.196000
     49 HAO         2.6860    2.8630   -3.4550 ha        1 RTZ      0.243000
     50 HAP         2.2520    1.3180   -1.6190 DU        1 RTZ      0.246000
     51 SAX         3.7450    5.9120   -2.1380 s4        1 RTZ      0.400000
@<TRIPOS>BOND
     1    1   22 1   
     2    1   25 1   
     3    1   26 1   
     4    1   27 1   
     5    2   28 1   
     6    2   29 1   
     7    2   30 1   
     8    2   51 1   
     9    3    4 1   
    10    3    8 1   
    11    3   31 1   
    12    3   32 1   
    13    4    9 1   
    14    4   32 1   
    15    4   40 1   
    16    5    6 1   
    17    5    7 1   
    18    5   33 1   
    19    5   34 1   
    20    5   35 1   
    21    5   37 1   
    22    6   13 1   
    23    6   35 1   
    24    6   36 1   
    25    7   16 1   
    26    7   33 1   
    27    7   37 1   
    28    7   38 1   
    29    8   18 1   
    30    8   31 1   
    31    8   39 1   
    32    9   20 1   
    33    9   40 1   
    34   10   11 1   
    35   10   17 1   
    36   10   41 1   
    37   10   42 1   
    38   11   21 1   
    39   11   42 1   
    40   12   14 1   
    41   12   16 1   
    42   12   43 1   
    43   12   44 1   
    44   12   47 1   
    45   12   50 1   
    46   13   22 1   
    47   13   45 1   
    48   13   46 1   
    49   14   23 1   
    50   14   43 1   
    51   14   47 1   
    52   14   48 1   
    53   15   17 1   
    54   15   19 1   
    55   15   49 1   
    56   16   22 1   
    57   16   50 1   
    58   17   51 1   
    59   18   20 1   
    60   18   23 1   
    61   19   21 1   
    62   19   23 1   
    63   20   24 1   
    64   20   40 1   
    65   21   24 1   
    66   22   25 1   
    67   28   51 1   
@<TRIPOS>SUBSTRUCTURE
     1 RTZ         1 TEMP              0 ****  ****    0 ROOT
