@<TRIPOS>MOLECULE
RTZ
   51    48     1     0     0
SMALL
bcc


@<TRIPOS>ATOM
      1 CAA        -2.0110   -1.1180    3.3150 c3        1 RTZ      0.155100
      2 CAB         4.3850    4.5170   -1.7470 c3        1 RTZ     -0.070000
      3 CAC        -3.7760   -2.0560   -2.1180 c1        1 RTZ     -0.068500
      4 CAD        -4.0090   -1.7310   -3.4810 c1        1 RTZ     -0.068500
      5 CAE         2.0360   -2.1820    3.0790 c3        1 RTZ     -0.078400
      6 CAF         1.4400   -1.9660    4.4270 c3        1 RTZ     -0.078400
      7 CAG         1.5110   -1.2360    2.0720 c3        1 RTZ     -0.078400
      8 CAH        -2.7350   -1.4220   -1.4180 c1        1 RTZ     -0.116500
      9 CAI        -3.2220   -0.8040   -4.1130 c1        1 RTZ     -0.020500
     10 CAJ         1.6880    3.3630   -3.1510 c1        1 RTZ     -0.108500
     11 CAK         0.6830    2.7430   -3.8830 c1        1 RTZ     -0.020500
     12 CAL        -0.4670   -0.1160    1.1460 c3        1 RTZ     -0.117400
     13 CAM        -0.1000   -1.9340    4.3850 c3        1 RTZ      0.171800
     14 CAN        -0.1510   -0.4860   -0.3240 c3        1 RTZ      0.213800
     15 CAO         1.0960    2.0310   -1.2170 c1        1 RTZ     -0.116500
     16 CAP        -0.0150   -1.2120    2.0420 c3        1 RTZ      0.190500
     17 CAQ         1.9000    3.0130   -1.8210 c1        1 RTZ      0.026100
     18 CAR        -1.9390   -0.4840   -2.0600 c1        1 RTZ      0.163800
     19 CAS         0.0870    1.4070   -1.9490 c1        1 RTZ      0.163800
     20 CAT        -2.1770   -0.1690   -3.4110 c1        1 RTZ     -0.071900
     21 CAU        -0.1250    1.7550   -3.2760 c1        1 RTZ     -0.071900
     22 NAV        -0.6110   -1.0040    3.3990 n3        1 RTZ     -0.729600
     23 NAW        -0.9070    0.3840   -1.2150 n3        1 RTZ     -0.504800
     24 SAX         3.0110    4.0350   -0.7970 ss        1 RTZ     -0.162200
     25 SAY        -1.3110    1.0170   -4.1230 ss        1 RTZ     -0.075200
     26 HAA        -2.3940   -0.2380    3.1200 h1        1 RTZ      0.032367
     27 HAAA       -2.3900   -1.4730    4.2210 h1        1 RTZ      0.032367
     28 HAAB       -2.2260   -1.6870    2.6590 h1        1 RTZ      0.032367
     29 HAB         4.1240    5.1430   -2.3630 h1        1 RTZ      0.070700
     30 HABA        4.7620    3.7130   -2.2230 h1        1 RTZ      0.070700
     31 HABB        5.0510    4.8900   -1.1770 h1        1 RTZ      0.070700
     32 HAC        -4.3840   -2.7720   -1.6310 ha        1 RTZ      0.076500
     33 HAD        -4.7130   -2.1590   -3.9590 ha        1 RTZ      0.076500
     34 HAE         1.8230   -3.1290    2.7780 hc        1 RTZ      0.040700
     35 HAEA        3.0050   -2.0760    3.1390 hc        1 RTZ      0.040700
     36 HAF         1.7720   -1.0940    4.7900 hc        1 RTZ      0.048200
     37 HAFA        1.7220   -2.6760    5.0160 hc        1 RTZ      0.048200
     38 HAG         1.8410   -1.5020    1.1870 hc        1 RTZ      0.048200
     39 HAGA        1.8490   -0.3100    2.2850 hc        1 RTZ      0.048200
     40 HAH        -2.5770   -1.6330   -0.5210 ha        1 RTZ      0.085500
     41 HAI        -3.3900   -0.5760   -5.0830 ha        1 RTZ      0.084500
     42 HAJ         2.2620    4.0660   -3.5830 ha        1 RTZ      0.077500
     43 HAK         0.5390    2.9840   -4.7890 ha        1 RTZ      0.084500
     44 HAL        -1.4420    0.0130    1.2490 hc        1 RTZ      0.060700
     45 HALA       -0.0220    0.6800    1.3740 hc        1 RTZ      0.060700
     46 HAM        -0.4070   -2.7790    4.1770 h1        1 RTZ      0.029700
     47 HAMA       -0.4320   -1.6890    5.2520 h1        1 RTZ      0.029700
     48 HAN         0.8610   -0.3670   -0.5030 h1        1 RTZ      0.062200
     49 HANA       -0.3930   -1.3780   -0.4790 h1        1 RTZ      0.062200
     50 HAO         1.2310    1.8070   -0.3580 ha        1 RTZ      0.085500
     51 HAP        -0.3530   -2.1050    1.6620 h1        1 RTZ      0.014700
@<TRIPOS>BOND
     1    1   22 1   
     2    1   26 1   
     3    1   27 1   
     4    1   28 1   
     5    2   24 1   
     6    2   29 1   
     7    2   30 1   
     8    2   31 1   
     9    3    4 3   
    10    3   32 1   
    11    4   33 1   
    12    5    6 1   
    13    5    7 1   
    14    5   34 1   
    15    5   35 1   
    16    6   13 1   
    17    6   36 1   
    18    6   37 1   
    19    7   16 1   
    20    7   38 1   
    21    7   39 1   
    22    8   18 3   
    23    8   40 1   
    24    9   20 3   
    25    9   41 1   
    26   10   17 3   
    27   10   42 1   
    28   11   21 3   
    29   11   43 1   
    30   12   14 1   
    31   12   16 1   
    32   12   44 1   
    33   12   45 1   
    34   13   22 1   
    35   13   46 1   
    36   13   47 1   
    37   14   23 1   
    38   14   48 1   
    39   14   49 1   
    40   15   19 3   
    41   15   50 1   
    42   16   22 1   
    43   16   51 1   
    44   17   24 1   
    45   18   23 1   
    46   19   23 1   
    47   20   25 1   
    48   21   25 1   
@<TRIPOS>SUBSTRUCTURE
     1 RTZ         1 TEMP              0 ****  ****    0 ROOT
