@<TRIPOS>MOLECULE
RTZ
   51    54     1     0     0
SMALL
bcc


@<TRIPOS>ATOM
      1 CAA         3.4830   -1.9050    2.0210 c3        1 RTZ      0.155100
      2 CAB        -1.4050    5.8140    0.8600 c3        1 RTZ     -0.070000
      3 CAC        -1.1350   -4.1120    0.1460 ca        1 RTZ     -0.101000
      4 CAD        -2.5220   -4.2380    0.1840 ca        1 RTZ     -0.151000
      5 CAE         4.9180   -0.5770   -1.7950 c3        1 RTZ     -0.078400
      6 CAF         5.8790   -0.6760   -0.6330 c3        1 RTZ     -0.078400
      7 CAG         3.5600   -0.1100   -1.3200 c3        1 RTZ     -0.078400
      8 CAH        -0.5390   -2.8730   -0.0640 ca        1 RTZ     -0.176000
      9 CAI        -3.3130   -3.1060    0.0130 ca        1 RTZ     -0.087000
     10 CAJ        -2.7500    3.1520    0.3320 ca        1 RTZ     -0.166000
     11 CAK        -3.4680    1.9800    0.1140 ca        1 RTZ     -0.069000
     12 CAL         1.6530   -0.4600    0.2670 c3        1 RTZ     -0.117400
     13 CAM         5.2920   -1.5430    0.4770 c3        1 RTZ      0.171800
     14 CAN         0.6630   -0.4240   -0.9030 c3        1 RTZ      0.036300
     15 CAO        -0.6900    1.9190    0.0410 ca        1 RTZ     -0.172000
     16 CAP         3.0160   -1.0040   -0.1930 c3        1 RTZ      0.190500
     17 CAQ        -1.3550    3.1240    0.2990 ca        1 RTZ      0.027900
     18 CAR        -1.3270   -1.7170   -0.2650 ca        1 RTZ      0.074700
     19 CAS        -1.4020    0.7320   -0.2140 ca        1 RTZ      0.092700
     20 CAT        -2.7370   -1.8560   -0.2180 ca        1 RTZ     -0.021100
     21 CAU        -2.8210    0.7780   -0.1670 ca        1 RTZ     -0.033100
     22 NAV         3.9740   -1.1060    0.9200 n3        1 RTZ     -0.729600
     23 NAW        -0.7430   -0.4660   -0.5630 na        1 RTZ     -0.167100
     24 SAY        -3.8050   -0.5660   -0.4670 ss        1 RTZ     -0.164800
     25 HAA         4.3190   -2.1170    2.7370 h1        1 RTZ      0.032367
     26 HAAA        2.7000   -1.3150    2.5670 h1        1 RTZ      0.032367
     27 HAAB        3.0360   -2.8850    1.6970 h1        1 RTZ      0.032367
     28 HAB        -2.0710    6.0380   -0.0030 h1        1 RTZ      0.070700
     29 HABA       -2.0370    5.6680    1.7650 h1        1 RTZ      0.070700
     30 HABB       -0.7280    6.6850    1.0300 h1        1 RTZ      0.070700
     31 HAC        -0.4980   -4.9980    0.2880 ha        1 RTZ      0.132000
     32 HAD        -2.9880   -5.2190    0.3510 ha        1 RTZ      0.136000
     33 HAE         5.3170    0.1390   -2.5610 hc        1 RTZ      0.040700
     34 HAEA        4.8210   -1.5790   -2.2900 hc        1 RTZ      0.040700
     35 HAF         6.8470   -1.1310   -0.9660 hc        1 RTZ      0.048200
     36 HAFA        6.1010    0.3490   -0.2360 hc        1 RTZ      0.048200
     37 HAG         3.6270    0.9490   -0.9580 hc        1 RTZ      0.048200
     38 HAGA        2.8400   -0.1370   -2.1780 hc        1 RTZ      0.048200
     39 HAH         0.5610   -2.8160   -0.0740 ha        1 RTZ      0.138000
     40 HAI        -4.4110   -3.1900    0.0570 ha        1 RTZ      0.142000
     41 HAJ        -3.2890    4.0880    0.5340 ha        1 RTZ      0.135000
     42 HAK        -4.5690    2.0000    0.1580 ha        1 RTZ      0.142000
     43 HAL         1.7860    0.5680    0.6930 hc        1 RTZ      0.060700
     44 HALA        1.2430   -1.1070    1.0870 hc        1 RTZ      0.060700
     45 HAM         5.2720   -2.6150    0.1190 h1        1 RTZ      0.029700
     46 HAMA        5.9780   -1.4950    1.3700 h1        1 RTZ      0.029700
     47 HAN         0.8380    0.5140   -1.5050 h1        1 RTZ      0.062200
     48 HANA        0.8640   -1.3000   -1.5880 h1        1 RTZ      0.062200
     49 HAO         0.4120    1.9310    0.0420 ha        1 RTZ      0.148000
     50 HAP         2.8360   -2.0350   -0.6340 h1        1 RTZ      0.014700
     51 SAX        -0.3440    4.4580    0.5570 ss        1 RTZ     -0.164000
@<TRIPOS>BOND
     1    1   22 1   
     2    1   25 1   
     3    1   26 1   
     4    1   27 1   
     5    2   28 1   
     6    2   29 1   
     7    2   30 1   
     8    2   51 1   
     9    3    4 ar  
    10    3    8 ar  
    11    3   31 1   
    12    4    9 ar  
    13    4   32 1   
    14    5    6 1   
    15    5    7 1   
    16    5   33 1   
    17    5   34 1   
    18    6   13 1   
    19    6   35 1   
    20    6   36 1   
    21    7   16 1   
    22    7   37 1   
    23    7   38 1   
    24    8   18 ar  
    25    8   39 1   
    26    9   20 ar  
    27    9   40 1   
    28   10   11 ar  
    29   10   17 ar  
    30   10   41 1   
    31   11   21 ar  
    32   11   42 1   
    33   12   14 1   
    34   12   16 1   
    35   12   43 1   
    36   12   44 1   
    37   13   22 1   
    38   13   45 1   
    39   13   46 1   
    40   14   23 1   
    41   14   47 1   
    42   14   48 1   
    43   15   17 ar  
    44   15   19 ar  
    45   15   49 1   
    46   16   22 1   
    47   16   50 1   
    48   17   51 1   
    49   18   20 ar  
    50   18   23 1   
    51   19   21 ar  
    52   19   23 1   
    53   20   24 1   
    54   21   24 1   
@<TRIPOS>SUBSTRUCTURE
     1 RTZ         1 TEMP              0 ****  ****    0 ROOT
