@<TRIPOS>MOLECULE
RTZ
   51    50     1     0     0
SMALL
bcc


@<TRIPOS>ATOM
      1 CAA         0.1030   -0.4990   -0.4500 c3        1 RTZ     -0.134000
      2 CAB         4.4800    7.7170   -3.6400 c3        1 RTZ     -0.395000
      3 CAC        -1.7620    0.3120   -5.3280 c3        1 RTZ     -0.206000
      4 CAD        -1.3120    0.6340   -8.5490 c1        1 RTZ      0.116000
      5 CAE         3.9310    0.0220   -0.4040 c3        1 RTZ     -0.222000
      6 CAF         3.4970   -1.9620    2.7180 c1        1 RTZ     -0.220500
      7 CAG         2.8680    0.9360    0.1450 c3        1 RTZ     -0.195000
      8 CAH        -0.5120    0.8860   -4.8110 c2        1 RTZ     -0.046000
      9 CAI        -0.6600    1.3450   -7.7360 c1        1 RTZ     -0.616000
     10 CAJ         2.7160    6.2020   -5.4680 c3        1 RTZ     -0.184000
     11 CAK         1.8520    5.5240   -6.4230 c1        1 RTZ     -0.075000
     12 CAL         0.8700    2.3410   -0.3070 c3        1 RTZ     -0.209000
     13 CAM         3.3620   -2.6630    3.6770 c1        1 RTZ     -0.220500
     14 CAN         2.3490    1.3410   -4.1620 c1        1 RTZ     -0.112000
     15 CAO         2.8210    4.1060   -4.1540 c2        1 RTZ     -0.188000
     16 CAP         1.7690    1.2500   -0.8850 c3        1 RTZ     -0.038000
     17 CAQ         3.1990    5.4120   -4.3050 c2        1 RTZ     -0.232000
     18 CAR         0.3380    1.6740   -5.5210 c2        1 RTZ     -0.131000
     19 CAS         1.9480    3.4710   -5.1040 c2        1 RTZ      0.236000
     20 CAT         0.0610    2.1080   -6.8950 c2        1 RTZ     -0.029000
     21 CAU         1.4970    4.1860   -6.2150 c2        1 RTZ     -0.510000
     22 NAV         1.0260    0.0970   -1.3800 n3        1 RTZ     -0.306000
     23 NAW         1.5710    2.1150   -4.9010 na        1 RTZ     -0.095000
     24 SAY         0.5670    3.5610   -7.4660 ss        1 RTZ      0.704000
     25 HAA         0.5720   -0.8120    0.5230 h1        1 RTZ      0.070333
     26 HAAA       -0.7140    0.2350   -0.2230 h1        1 RTZ      0.070333
     27 HAAB       -0.3540   -1.4060   -0.9290 h1        1 RTZ      0.070333
     28 HAB         5.1510    8.1540   -2.8620 h1        1 RTZ      0.119000
     29 HABA        4.9840    7.7910   -4.6300 h1        1 RTZ      0.119000
     30 HABB        3.5410    8.3140   -3.6790 h1        1 RTZ      0.119000
     31 HAC        -2.3600    1.0710   -5.8970 hc        1 RTZ      0.108333
     32 HAD        -2.3870   -0.0890   -4.4930 hc        1 RTZ      0.108333
     33 HAE         3.5470   -1.0200   -0.5230 hc        1 RTZ      0.077000
     34 HAEA        4.2850    0.3810   -1.4010 hc        1 RTZ      0.077000
     35 HAF         4.8070   -0.0100    0.2890 hc        1 RTZ      0.077000
     36 HAFA        3.6170   -1.3390    1.8660 ha        1 RTZ      0.220000
     37 HAG         2.4090    0.4820    1.0630 hc        1 RTZ      0.083500
     38 HAGA        3.3360    1.9070    0.4550 hc        1 RTZ      0.083500
     39 HAH        -0.2780    0.6290   -3.7580 ha        1 RTZ      0.155000
     40 HAI        -1.5310   -0.5240   -6.0410 hc        1 RTZ      0.108333
     41 HAJ         2.1470    7.1130   -5.1090 hc        1 RTZ      0.164500
     42 HAK         3.5990    6.5930   -6.0600 hc        1 RTZ      0.164500
     43 HAL         0.0290    2.5780   -1.0020 hc        1 RTZ      0.078000
     44 HALA        0.4440    2.0270    0.6760 hc        1 RTZ      0.078000
     45 HAM         1.6840   -0.5920   -1.7030 hn        1 RTZ      0.155000
     46 HAMA        3.2440   -3.2850    4.5280 ha        1 RTZ      0.220000
     47 HAN         2.2840    1.6750   -1.8060 h1        1 RTZ      0.110000
     48 HANA        2.0370    0.2800   -4.0700 ha        1 RTZ      0.071000
     49 HAO         3.1910    3.4990   -3.3070 ha        1 RTZ      0.184000
     50 HAP         1.4750    3.2660   -0.1520 hc        1 RTZ      0.078000
     51 SAX         4.2090    6.0650   -3.1420 ss        1 RTZ      0.340000
@<TRIPOS>BOND
     1    1   22 1   
     2    1   25 1   
     3    1   26 1   
     4    1   27 1   
     5    2   28 1   
     6    2   29 1   
     7    2   30 1   
     8    2   51 1   
     9    3    8 1   
    10    3   31 1   
    11    3   32 1   
    12    3   40 1   
    13    4    9 1   
    14    5    7 1   
    15    5   33 1   
    16    5   34 1   
    17    5   35 1   
    18    6   13 1   
    19    6   36 1   
    20    7   16 1   
    21    7   37 1   
    22    7   38 1   
    23    8   18 1   
    24    8   39 1   
    25    9   20 1   
    26   10   11 1   
    27   10   17 1   
    28   10   41 1   
    29   10   42 1   
    30   11   21 1   
    31   12   16 1   
    32   12   43 1   
    33   12   44 1   
    34   12   50 1   
    35   13   46 1   
    36   14   23 1   
    37   14   48 1   
    38   15   17 1   
    39   15   19 1   
    40   15   49 1   
    41   16   22 1   
    42   16   47 1   
    43   17   51 1   
    44   18   20 1   
    45   18   23 1   
    46   19   21 1   
    47   19   23 1   
    48   20   24 1   
    49   21   24 1   
    50   22   45 1   
@<TRIPOS>SUBSTRUCTURE
     1 RTZ         1 TEMP              0 ****  ****    0 ROOT
