@<TRIPOS>MOLECULE
RU5
   40    43     1     0     0
SMALL
bcc


@<TRIPOS>ATOM
      1 C1         -7.4510    1.2370   -0.5800 c         1 RU5      0.671700
      2 N1         -8.6580    0.6030   -0.4200 n         1 RU5     -0.673000
      3 O1          3.6260   -1.8360   -0.2310 os        1 RU5     -0.245200
      4 C2         -6.2290    0.5920   -0.0190 ca        1 RU5     -0.128600
      5 C3         -5.0420    0.7550   -0.7290 ca        1 RU5     -0.076000
      6 N3         -2.5670    0.1090   -0.6410 na        1 RU5     -0.275300
      7 C4         -3.8930    0.1530   -0.2060 ca        1 RU5     -0.084200
      8 N4         -2.6440   -1.0950    1.3230 nc        1 RU5     -0.563100
      9 C5         -1.8530   -0.6560    0.3120 cd        1 RU5      0.481400
     10 C6         -3.9290   -0.6060    1.0350 ca        1 RU5      0.086400
     11 C7         -5.1430   -0.7280    1.7270 ca        1 RU5     -0.079000
     12 C8         -6.2730   -0.1300    1.1920 ca        1 RU5     -0.130000
     13 C9         -0.4200   -0.9210    0.1730 ca        1 RU5     -0.143900
     14 CLA         7.9650    2.0970   -0.2680 cl        1 RU5     -0.087400
     15 C10         0.1030   -2.1390    0.6330 ca        1 RU5     -0.073500
     16 C11         1.4620   -2.4090    0.5160 ca        1 RU5     -0.167000
     17 C12         2.3010   -1.4480   -0.0700 ca        1 RU5      0.126100
     18 C13         1.7930   -0.2260   -0.5270 ca        1 RU5     -0.167000
     19 C14         0.4310    0.0330   -0.4010 ca        1 RU5     -0.073500
     20 C15         4.5820   -0.8240   -0.2520 ca        1 RU5      0.097100
     21 C16         4.5650    0.2510    0.6440 ca        1 RU5     -0.144000
     22 C17         5.6200    1.1600    0.6360 ca        1 RU5     -0.104500
     23 C18         6.6790    0.9860   -0.2610 ca        1 RU5      0.001400
     24 C19         6.6930   -0.0920   -1.1530 ca        1 RU5     -0.104500
     25 C20         5.6390   -1.0020   -1.1570 ca        1 RU5     -0.144000
     26 OAB        -7.3980    2.3210   -1.2000 o         1 RU5     -0.614100
     27 HN1        -8.7190   -0.2790    0.0170 hn        1 RU5      0.313500
     28 HN1A       -9.4750    1.0100   -0.8030 hn        1 RU5      0.313500
     29 H3         -5.0220    1.3470   -1.6560 ha        1 RU5      0.160000
     30 HN3        -2.2040    0.5070   -1.4650 hn        1 RU5      0.310700
     31 H7         -5.1870   -1.2840    2.6750 ha        1 RU5      0.152000
     32 H8         -7.2220   -0.2070    1.7450 ha        1 RU5      0.135000
     33 H10        -0.5640   -2.8850    1.0950 ha        1 RU5      0.149500
     34 H11         1.8840   -3.3610    0.8690 ha        1 RU5      0.156000
     35 H13         2.4640    0.5200   -0.9780 ha        1 RU5      0.156000
     36 H14         0.0380    1.0020   -0.7450 ha        1 RU5      0.149500
     37 H16         3.7260    0.3730    1.3460 ha        1 RU5      0.156000
     38 H17         5.6180    2.0080    1.3380 ha        1 RU5      0.153000
     39 H19         7.5310   -0.2240   -1.8540 ha        1 RU5      0.153000
     40 H20         5.6330   -1.8590   -1.8450 ha        1 RU5      0.156000
@<TRIPOS>BOND
     1    1    2 1   
     2    1    4 1   
     3    1   26 2   
     4    2   27 1   
     5    2   28 1   
     6    3   17 1   
     7    3   20 1   
     8    4    5 ar  
     9    4   12 ar  
    10    5    7 ar  
    11    5   29 1   
    12    6    7 1   
    13    6    9 1   
    14    6   30 1   
    15    7   10 ar  
    16    8    9 2   
    17    8   10 1   
    18    9   13 1   
    19   10   11 ar  
    20   11   12 ar  
    21   11   31 1   
    22   12   32 1   
    23   13   15 ar  
    24   13   19 ar  
    25   14   23 1   
    26   15   16 ar  
    27   15   33 1   
    28   16   17 ar  
    29   16   34 1   
    30   17   18 ar  
    31   18   19 ar  
    32   18   35 1   
    33   19   36 1   
    34   20   21 ar  
    35   20   25 ar  
    36   21   22 ar  
    37   21   37 1   
    38   22   23 ar  
    39   22   38 1   
    40   23   24 ar  
    41   24   25 ar  
    42   24   39 1   
    43   25   40 1   
@<TRIPOS>SUBSTRUCTURE
     1 RU5         1 TEMP              0 ****  ****    0 ROOT
