@<TRIPOS>MOLECULE
RU5
   41    44     1     0     0
SMALL
bcc


@<TRIPOS>ATOM
      1 C1         -0.2660    0.3520   -0.1650 c         1 RU5      0.578700
      2 N1          1.2450    0.5240   -0.3010 n4        1 RU5     -0.761400
      3 O1         -8.5320   -0.7360    7.6960 os        1 RU5     -0.234200
      4 C2         -0.7980    0.2400    1.1760 ca        1 RU5     -0.230600
      5 C3         -2.1970    0.0850    1.2630 ca        1 RU5     -0.003000
      6 N3         -4.0660   -0.1860    2.9800 na        1 RU5     -0.262300
      7 C4         -2.7530   -0.0240    2.5290 ca        1 RU5     -0.119200
      8 N4         -2.7320   -0.1160    4.8620 nc        1 RU5     -0.570100
      9 C5         -4.0130   -0.2370    4.3890 cd        1 RU5      0.569400
     10 C6         -1.9270    0.0180    3.7380 ca        1 RU5      0.166400
     11 C7         -0.5320    0.1720    3.6060 ca        1 RU5     -0.075000
     12 C8          0.0080    0.2800    2.3420 ca        1 RU5     -0.112000
     13 C9         -5.2060   -0.3920    5.2130 ca        1 RU5     -0.206900
     14 CLA       -13.4660   -3.5670    6.3030 cl        1 RU5     -0.067400
     15 C10        -5.1920    0.0820    6.5380 ca        1 RU5     -0.048000
     16 C11        -6.3140   -0.0510    7.3430 ca        1 RU5     -0.181500
     17 C12        -7.4660   -0.6720    6.8220 ca        1 RU5      0.173100
     18 C13        -7.4870   -1.1580    5.5070 ca        1 RU5     -0.181500
     19 C14        -6.3580   -1.0160    4.7100 ca        1 RU5     -0.048000
     20 C15        -9.6680   -1.4280    7.2580 ca        1 RU5      0.062100
     21 C16        -9.6680   -2.8260    7.1990 ca        1 RU5     -0.121500
     22 C17       -10.8550   -3.4900    6.9010 ca        1 RU5     -0.114000
     23 C18       -12.0230   -2.7540    6.6670 ca        1 RU5      0.020400
     24 C19       -12.0150   -1.3550    6.7340 ca        1 RU5     -0.114000
     25 C20       -10.8300   -0.6830    7.0270 ca        1 RU5     -0.121500
     26 OAB        -0.8380    0.3310   -1.2480 o         1 RU5     -0.446100
     27 HN1         1.7230   -0.2790    0.1150 hn        1 RU5      0.464467
     28 HN1A        1.5410    1.3750    0.1820 hn        1 RU5      0.464467
     29 H3         -2.8130    0.0530    0.3490 ha        1 RU5      0.171000
     30 HN3        -4.8780   -0.2330    2.4200 hn        1 RU5      0.326700
     31 H7          0.1030    0.2030    4.5060 ha        1 RU5      0.179000
     32 H8          1.0990    0.4000    2.2700 ha        1 RU5      0.117000
     33 H10        -4.2880    0.5640    6.9460 ha        1 RU5      0.148000
     34 H11        -6.3170    0.3190    8.3800 ha        1 RU5      0.167000
     35 H13        -8.3890   -1.6520    5.1140 ha        1 RU5      0.167000
     36 H14        -6.3830   -1.4200    3.6860 ha        1 RU5      0.148000
     37 H16        -8.7440   -3.3890    7.3970 ha        1 RU5      0.156500
     38 H17       -10.8730   -4.5900    6.8580 ha        1 RU5      0.159500
     39 H19       -12.9400   -0.7840    6.5580 ha        1 RU5      0.159500
     40 H20       -10.8070    0.4150    7.0950 ha        1 RU5      0.156500
     41 H131        1.4940    0.5920   -1.2950 hn        1 RU5      0.464467
@<TRIPOS>BOND
     1    1    2 1   
     2    1    4 1   
     3    1   26 2   
     4    2   27 1   
     5    2   28 1   
     6    2   41 1   
     7    3   17 1   
     8    3   20 1   
     9    4    5 ar  
    10    4   12 ar  
    11    5    7 ar  
    12    5   29 1   
    13    6    7 1   
    14    6    9 1   
    15    6   30 1   
    16    7   10 ar  
    17    8    9 2   
    18    8   10 1   
    19    9   13 1   
    20   10   11 ar  
    21   11   12 ar  
    22   11   31 1   
    23   12   32 1   
    24   13   15 ar  
    25   13   19 ar  
    26   14   23 1   
    27   15   16 ar  
    28   15   33 1   
    29   16   17 ar  
    30   16   34 1   
    31   17   18 ar  
    32   18   19 ar  
    33   18   35 1   
    34   19   36 1   
    35   20   21 ar  
    36   20   25 ar  
    37   21   22 ar  
    38   21   37 1   
    39   22   23 ar  
    40   22   38 1   
    41   23   24 ar  
    42   24   25 ar  
    43   24   39 1   
    44   25   40 1   
@<TRIPOS>SUBSTRUCTURE
     1 RU5         1 TEMP              0 ****  ****    0 ROOT
