@<TRIPOS>MOLECULE
RU5
   41    44     1     0     0
SMALL
bcc


@<TRIPOS>ATOM
      1 C1         -0.2800    0.4550   -0.1570 c         1 RU5      0.578700
      2 N1          1.2300    0.6210   -0.2950 nz        1 RU5     -0.761400
      3 O1         -8.5170   -0.8150    7.7080 os        1 RU5     -0.234200
      4 C2         -0.8070    0.3070    1.1820 ca        1 RU5     -0.230600
      5 C3         -2.2070    0.1580    1.2720 ca        1 RU5     -0.003000
      6 N3         -4.0700   -0.1510    2.9890 na        1 RU5     -0.262300
      7 C4         -2.7570    0.0150    2.5360 ca        1 RU5     -0.119200
      8 N4         -2.7270   -0.1470    4.8650 nc        1 RU5     -0.570100
      9 C5         -4.0100   -0.2450    4.3950 cd        1 RU5      0.569400
     10 C6         -1.9260    0.0150    3.7420 ca        1 RU5      0.166400
     11 C7         -0.5310    0.1640    3.6080 ca        1 RU5     -0.075000
     12 C8          0.0040    0.3070    2.3450 ca        1 RU5     -0.112000
     13 C9         -5.2010   -0.4170    5.2200 ca        1 RU5     -0.206900
     14 ClA       -13.4730   -3.5780    6.2570 cl        1 RU5     -0.067400
     15 C10        -5.1770    0.0170    6.5580 ca        1 RU5     -0.048000
     16 C11        -6.2960   -0.1330    7.3650 ca        1 RU5     -0.181500
     17 C12        -7.4550   -0.7310    6.8310 ca        1 RU5      0.173100
     18 C13        -7.4850   -1.1780    5.5020 ca        1 RU5     -0.181500
     19 C14        -6.3590   -1.0190    4.7040 ca        1 RU5     -0.048000
     20 C15        -9.6590   -1.4870    7.2550 ca        1 RU5      0.062100
     21 C16        -9.6650   -2.8830    7.1520 ca        1 RU5     -0.121500
     22 C17       -10.8580   -3.5320    6.8410 ca        1 RU5     -0.114000
     23 C18       -12.0240   -2.7830    6.6380 ca        1 RU5      0.020400
     24 C19       -12.0090   -1.3880    6.7490 ca        1 RU5     -0.114000
     25 C20       -10.8190   -0.7300    7.0560 ca        1 RU5     -0.121500
     26 OAB        -0.8580    0.4710   -1.2370 o         1 RU5     -0.446100
     27 HN1         1.7060   -0.1970    0.0940 hn        1 RU5      0.464467
     28 HN1A        1.5350    1.4560    0.2120 hn        1 RU5      0.464467
     29 H3         -2.8280    0.1590    0.3600 ha        1 RU5      0.171000
     30 HN3        -4.8850   -0.1760    2.4310 hn        1 RU5      0.326700
     31 H7          0.1090    0.1640    4.5050 ha        1 RU5      0.179000
     32 H8          1.0960    0.4220    2.2710 ha        1 RU5      0.117000
     33 H10        -4.2680    0.4800    6.9760 ha        1 RU5      0.148000
     34 H11        -6.2930    0.2050    8.4120 ha        1 RU5      0.167000
     35 H13        -8.3920   -1.6540    5.0990 ha        1 RU5      0.167000
     36 H14        -6.3920   -1.3920    3.6690 ha        1 RU5      0.148000
     37 H16        -8.7430   -3.4570    7.3250 ha        1 RU5      0.156500
     38 H17       -10.8820   -4.6300    6.7630 ha        1 RU5      0.159500
     39 H19       -12.9320   -0.8070    6.5980 ha        1 RU5      0.159500
     40 H20       -10.7910    0.3640    7.1590 ha        1 RU5      0.156500
     41 H131        1.4760    0.7180   -1.2880 hn        1 RU5      0.464467
@<TRIPOS>BOND
     1    1    2 1   
     2    1    4 1   
     3    1   26 2   
     4    2   27 1   
     5    2   28 1   
     6    2   41 1   
     7    3   17 1   
     8    3   20 1   
     9    4    5 ar  
    10    4   12 ar  
    11    5    7 ar  
    12    5   29 1   
    13    6    7 1   
    14    6    9 1   
    15    6   30 1   
    16    7   10 ar  
    17    8    9 2   
    18    8   10 1   
    19    9   13 1   
    20   10   11 ar  
    21   11   12 ar  
    22   11   31 1   
    23   12   32 1   
    24   13   15 ar  
    25   13   19 ar  
    26   14   23 1   
    27   15   16 ar  
    28   15   33 1   
    29   16   17 ar  
    30   16   34 1   
    31   17   18 ar  
    32   18   19 ar  
    33   18   35 1   
    34   19   36 1   
    35   20   21 ar  
    36   20   25 ar  
    37   21   22 ar  
    38   21   37 1   
    39   22   23 ar  
    40   22   38 1   
    41   23   24 ar  
    42   24   25 ar  
    43   24   39 1   
    44   25   40 1   
@<TRIPOS>SUBSTRUCTURE
     1 RU5         1 TEMP              0 ****  ****    0 ROOT
