@<TRIPOS>MOLECULE
RU5
   40    34     1     0     0
SMALL
bcc


@<TRIPOS>ATOM
      1 C1          5.9620    1.6180   -3.5990 c1        1 RU5      0.345000
      2 N1          7.0420    0.8640   -4.1230 n2        1 RU5     -0.433000
      3 O1         -4.0190    0.8130    2.2780 os        1 RU5     -0.155000
      4 C2          4.8460    0.9220   -2.8510 c2        1 RU5     -0.108000
      5 C3          3.8720    1.7610   -2.3340 c1        1 RU5     -0.076000
      6 N3          1.6820    1.7950   -1.0780 n2        1 RU5     -0.184500
      7 C4          2.7500    1.2180   -1.6800 c1        1 RU5     -0.045500
      8 N4          1.4760   -0.3860   -0.8780 n2        1 RU5     -0.184500
      9 C5          0.8930    0.8060   -0.5820 c1        1 RU5      0.072000
     10 C6          2.6220   -0.1350   -1.5560 c1        1 RU5     -0.045500
     11 C7          3.6120   -0.9870   -2.0820 c1        1 RU5     -0.079000
     12 C8          4.7160   -0.4510   -2.7250 c2        1 RU5     -0.130000
     13 C9         -0.3820    0.8180    0.2260 c1        1 RU5     -0.061000
     14 CLA        -5.8600   -4.6420    3.6570 cl        1 RU5     -0.009000
     15 C10        -0.3960    0.8040    1.6110 c2        1 RU5     -0.092000
     16 C11        -1.6020    0.7750    2.2920 c1        1 RU5     -0.149000
     17 C12        -2.7960    0.7620    1.5870 c1        1 RU5      0.081000
     18 C13        -2.7820    0.7770    0.2010 c1        1 RU5     -0.186000
     19 C14        -1.5750    0.8050   -0.4790 c1        1 RU5     -0.054000
     20 C15        -4.4360   -0.4920    2.5890 c2        1 RU5      0.052000
     21 C16        -5.3970   -1.1170    1.8100 c2        1 RU5     -0.128000
     22 C17        -5.8470   -2.3840    2.1480 c1        1 RU5     -0.106000
     23 C18        -5.3370   -3.0260    3.2660 c1        1 RU5     -0.077000
     24 C19        -4.3770   -2.4010    4.0450 c1        1 RU5     -0.103000
     25 C20        -3.9260   -1.1340    3.7070 c1        1 RU5     -0.158000
     26 OAB         5.9570    2.8280   -3.7090 o         1 RU5     -0.375000
     27 HN1         7.0190   -0.0490   -4.0900 hn        1 RU5      0.227000
     28 HN1A        7.7740    1.2910   -4.4660 hn        1 RU5      0.227000
     29 H3          3.9530    2.7280   -2.4420 ha        1 RU5      0.160000
     30 HN3         1.5210    2.6910   -1.0170 DU        1 RU5      0.261000
     31 H7          3.5210   -1.9540   -1.9930 ha        1 RU5      0.152000
     32 H8          5.4150   -1.0410   -3.0680 ha        1 RU5      0.135000
     33 H10         0.4450    0.8130    2.1080 ha        1 RU5      0.137000
     34 H11        -1.6110    0.7650    3.2680 ha        1 RU5      0.157000
     35 H13        -3.6220    0.7670   -0.2950 ha        1 RU5      0.155000
     36 H14        -1.5660    0.8150   -1.4550 ha        1 RU5      0.162000
     37 H16        -5.7560   -0.6660    1.0220 ha        1 RU5      0.157000
     38 H17        -6.5240   -2.8240    1.5990 ha        1 RU5      0.153000
     39 H19        -4.0170   -2.8530    4.8330 ha        1 RU5      0.153000
     40 H20        -3.2490   -0.6940    4.2560 ha        1 RU5      0.155000
@<TRIPOS>BOND
     1    1    4 1   
     2    1   26 1   
     3    2   27 1   
     4    2   28 1   
     5    3   17 1   
     6    3   20 1   
     7    4    5 1   
     8    4   12 1   
     9    5   29 1   
    10    6    7 1   
    11    6    9 1   
    12    7   10 1   
    13    8    9 1   
    14    8   10 1   
    15   11   12 1   
    16   11   31 1   
    17   12   32 1   
    18   13   15 1   
    19   13   19 1   
    20   14   23 1   
    21   15   16 1   
    22   15   33 1   
    23   16   34 1   
    24   17   18 1   
    25   18   35 1   
    26   19   36 1   
    27   20   21 1   
    28   20   25 1   
    29   21   22 1   
    30   21   37 1   
    31   22   38 1   
    32   23   24 1   
    33   24   39 1   
    34   25   40 1   
@<TRIPOS>SUBSTRUCTURE
     1 RU5         1 TEMP              0 ****  ****    0 ROOT
