@<TRIPOS>MOLECULE
RU5
   41    44     1     0     0
SMALL
bcc


@<TRIPOS>ATOM
      1 C1         -0.2770    0.4090   -0.1650 c         1 RU5      0.578700
      2 N1          1.2350    0.5700   -0.3050 n4        1 RU5     -0.761400
      3 O1         -8.5170   -0.7820    7.7070 os        1 RU5     -0.234200
      4 C2         -0.8040    0.2720    1.1750 ca        1 RU5     -0.230600
      5 C3         -2.2040    0.1280    1.2650 ca        1 RU5     -0.003000
      6 N3         -4.0680   -0.1650    2.9840 na        1 RU5     -0.262300
      7 C4         -2.7550   -0.0050    2.5300 ca        1 RU5     -0.119200
      8 N4         -2.7250   -0.1490    4.8600 nc        1 RU5     -0.570100
      9 C5         -4.0090   -0.2480    4.3910 cd        1 RU5      0.569400
     10 C6         -1.9230    0.0020    3.7370 ca        1 RU5      0.166400
     11 C7         -0.5280    0.1470    3.6020 ca        1 RU5     -0.075000
     12 C8          0.0070    0.2790    2.3370 ca        1 RU5     -0.112000
     13 C9         -5.2000   -0.4110    5.2170 ca        1 RU5     -0.206900
     14 CLA       -13.4820   -3.5410    6.2750 cl        1 RU5     -0.067400
     15 C10        -5.1750    0.0320    6.5520 ca        1 RU5     -0.048000
     16 C11        -6.2940   -0.1090    7.3600 ca        1 RU5     -0.181500
     17 C12        -7.4550   -0.7080    6.8300 ca        1 RU5      0.173100
     18 C13        -7.4860   -1.1640    5.5040 ca        1 RU5     -0.181500
     19 C14        -6.3590   -1.0140    4.7050 ca        1 RU5     -0.048000
     20 C15        -9.6610   -1.4550    7.2590 ca        1 RU5      0.062100
     21 C16        -9.6720   -2.8510    7.1660 ca        1 RU5     -0.121500
     22 C17       -10.8660   -3.4980    6.8590 ca        1 RU5     -0.114000
     23 C18       -12.0300   -2.7480    6.6510 ca        1 RU5      0.020400
     24 C19       -12.0100   -1.3520    6.7520 ca        1 RU5     -0.114000
     25 C20       -10.8190   -0.6960    7.0540 ca        1 RU5     -0.121500
     26 OAB        -0.8540    0.4190   -1.2460 o         1 RU5     -0.446100
     27 HN1         1.5410    1.4070    0.1960 hn        1 RU5      0.464467
     28 HN1A        1.7070   -0.2470    0.0900 hn        1 RU5      0.464467
     29 H3         -2.8240    0.1220    0.3530 ha        1 RU5      0.171000
     30 HN3        -4.8830   -0.1920    2.4260 hn        1 RU5      0.326700
     31 H7          0.1120    0.1520    4.4990 ha        1 RU5      0.179000
     32 H8          1.1000    0.3910    2.2630 ha        1 RU5      0.117000
     33 H10        -4.2650    0.4960    6.9670 ha        1 RU5      0.148000
     34 H11        -6.2900    0.2370    8.4050 ha        1 RU5      0.167000
     35 H13        -8.3940   -1.6400    5.1040 ha        1 RU5      0.167000
     36 H14        -6.3930   -1.3930    3.6730 ha        1 RU5      0.148000
     37 H16        -8.7510   -3.4260    7.3440 ha        1 RU5      0.156500
     38 H17       -10.8930   -4.5970    6.7890 ha        1 RU5      0.159500
     39 H19       -12.9320   -0.7690    6.5960 ha        1 RU5      0.159500
     40 H20       -10.7870    0.4000    7.1500 ha        1 RU5      0.156500
     41 H131        1.4800    0.6570   -1.2980 hn        1 RU5      0.464467
@<TRIPOS>BOND
     1    1    2 1   
     2    1    4 1   
     3    1   26 2   
     4    2   27 1   
     5    2   28 1   
     6    2   41 1   
     7    3   17 1   
     8    3   20 1   
     9    4    5 ar  
    10    4   12 ar  
    11    5    7 ar  
    12    5   29 1   
    13    6    7 1   
    14    6    9 1   
    15    6   30 1   
    16    7   10 ar  
    17    8    9 2   
    18    8   10 1   
    19    9   13 1   
    20   10   11 ar  
    21   11   12 ar  
    22   11   31 1   
    23   12   32 1   
    24   13   15 ar  
    25   13   19 ar  
    26   14   23 1   
    27   15   16 ar  
    28   15   33 1   
    29   16   17 ar  
    30   16   34 1   
    31   17   18 ar  
    32   18   19 ar  
    33   18   35 1   
    34   19   36 1   
    35   20   21 ar  
    36   20   25 ar  
    37   21   22 ar  
    38   21   37 1   
    39   22   23 ar  
    40   22   38 1   
    41   23   24 ar  
    42   24   25 ar  
    43   24   39 1   
    44   25   40 1   
@<TRIPOS>SUBSTRUCTURE
     1 RU5         1 TEMP              0 ****  ****    0 ROOT
