@<TRIPOS>MOLECULE
RU9
   42    45     1     0     0
SMALL
bcc


@<TRIPOS>ATOM
      1 C1          0.1200   -0.4150    0.1160 c         1 RU9      0.578700
      2 N1          1.6290   -0.6230    0.2160 nz        1 RU9     -0.761400
      3 O1         -9.3190    0.9630    6.4200 os        1 RU9     -0.237200
      4 C2         -0.6110   -0.2830    1.3570 ca        1 RU9     -0.231600
      5 C3         -2.0030   -0.1030    1.2270 ca        1 RU9     -0.002000
      6 N3         -4.1110    0.2140    2.6320 na        1 RU9     -0.261300
      7 C4         -2.7460    0.0290    2.3910 ca        1 RU9     -0.119200
      8 N4         -3.0840    0.1360    4.6980 nc        1 RU9     -0.572100
      9 C5         -4.2750    0.2720    4.0320 cd        1 RU9      0.570400
     10 C6         -2.1170   -0.0160    3.7140 ca        1 RU9      0.167400
     11 C7         -0.7230   -0.1990    3.7990 ca        1 RU9     -0.076000
     12 C8          0.0040   -0.3290    2.6340 ca        1 RU9     -0.112000
     13 C9         -5.5770    0.4640    4.6610 ca        1 RU9     -0.208900
     14 C10        -5.6420    1.0060    5.9550 ca        1 RU9     -0.047500
     15 C11        -6.8720    1.2000    6.5750 ca        1 RU9     -0.182000
     16 C12        -8.0470    0.8430    5.9000 ca        1 RU9      0.176100
     17 C13        -7.9940    0.2880    4.6040 ca        1 RU9     -0.182000
     18 C14        -6.7620    0.1020    3.9970 ca        1 RU9     -0.047500
     19 C15        -9.4460    1.6200    7.6500 ca        1 RU9      0.107100
     20 C16        -9.1640    2.9840    7.7710 ca        1 RU9     -0.183000
     21 C17        -9.4440    3.6230    8.9800 ca        1 RU9     -0.082000
     22 C18        -9.9920    2.9210   10.0490 ca        1 RU9     -0.151000
     23 C19       -10.2670    1.5490    9.9020 ca        1 RU9      0.144100
     24 C20        -9.9920    0.8780    8.7030 ca        1 RU9     -0.212000
     25 OAB        -0.2770   -0.3900   -1.0430 o         1 RU9     -0.446100
     26 OAC       -10.8050    0.9150   10.9950 oh        1 RU9     -0.485100
     27 H11N        2.0560    0.1720    0.6960 hn        1 RU9      0.464467
     28 H12N        2.0270   -0.7060   -0.7270 hn        1 RU9      0.464467
     29 H3         -2.4710   -0.0700    0.2290 ha        1 RU9      0.171000
     30 H8          1.0910   -0.4690    2.7320 ha        1 RU9      0.117000
     31 HA         -4.8200    0.3040    1.9520 hn        1 RU9      0.326700
     32 H7         -0.2340   -0.2370    4.7870 ha        1 RU9      0.179000
     33 H10        -4.7190    1.2820    6.4920 ha        1 RU9      0.147000
     34 H14        -6.7350   -0.3520    2.9950 ha        1 RU9      0.147000
     35 H11        -6.9220    1.6280    7.5880 ha        1 RU9      0.168000
     36 H13        -8.9300    0.0050    4.0980 ha        1 RU9      0.168000
     37 H16        -8.7410    3.5400    6.9230 ha        1 RU9      0.148000
     38 H20       -10.2130   -0.1910    8.5780 ha        1 RU9      0.156000
     39 H17        -9.2330    4.6980    9.0870 ha        1 RU9      0.147000
     40 H18       -10.2180    3.4170   11.0040 ha        1 RU9      0.163000
     41 HAC       -10.9860   -0.0060   10.7550 ho        1 RU9      0.427000
     42 H131        1.8260   -1.4760    0.7440 hn        1 RU9      0.464467
@<TRIPOS>BOND
     1    1    2 1   
     2    1    4 1   
     3    1   25 2   
     4    2   27 1   
     5    2   28 1   
     6    2   42 1   
     7    3   16 1   
     8    3   19 1   
     9    4    5 ar  
    10    4   12 ar  
    11    5    7 ar  
    12    5   29 1   
    13    6    7 1   
    14    6    9 1   
    15    6   31 1   
    16    7   10 ar  
    17    8    9 2   
    18    8   10 1   
    19    9   13 1   
    20   10   11 ar  
    21   11   12 ar  
    22   11   32 1   
    23   12   30 1   
    24   13   14 ar  
    25   13   18 ar  
    26   14   15 ar  
    27   14   33 1   
    28   15   16 ar  
    29   15   35 1   
    30   16   17 ar  
    31   17   18 ar  
    32   17   36 1   
    33   18   34 1   
    34   19   20 ar  
    35   19   24 ar  
    36   20   21 ar  
    37   20   37 1   
    38   21   22 ar  
    39   21   39 1   
    40   22   23 ar  
    41   22   40 1   
    42   23   24 ar  
    43   23   26 1   
    44   24   38 1   
    45   26   41 1   
@<TRIPOS>SUBSTRUCTURE
     1 RU9         1 TEMP              0 ****  ****    0 ROOT
