@<TRIPOS>MOLECULE
RU9
   41    44     1     0     0
SMALL
bcc


@<TRIPOS>ATOM
      1 C1         -7.3410   -0.0370    0.6220 c         1 RU9      0.671700
      2 N1         -8.3890    0.2070   -0.2320 n         1 RU9     -0.673000
      3 O1          4.0370   -1.3640   -0.2820 os        1 RU9     -0.245200
      4 C2         -5.9610    0.3050    0.1690 ca        1 RU9     -0.129600
      5 C3         -4.9290   -0.5280    0.5930 ca        1 RU9     -0.076000
      6 N3         -2.3950   -0.8170    0.3900 na        1 RU9     -0.276300
      7 C4         -3.6340   -0.2100    0.1740 ca        1 RU9     -0.084200
      8 N4         -1.9910    1.0290   -0.9290 nc        1 RU9     -0.565100
      9 C5         -1.4340   -0.0280   -0.2880 cd        1 RU9      0.484400
     10 C6         -3.3680    0.9500   -0.6620 ca        1 RU9      0.087400
     11 C7         -4.4360    1.7710   -1.0530 ca        1 RU9     -0.079000
     12 C8         -5.7140    1.4380   -0.6330 ca        1 RU9     -0.130000
     13 C9         -0.0080   -0.3600   -0.2680 ca        1 RU9     -0.146900
     14 C10         0.9390    0.6710   -0.3440 ca        1 RU9     -0.073000
     15 C11         2.3000    0.3770   -0.3250 ca        1 RU9     -0.168000
     16 C12         2.7110   -0.9580   -0.2300 ca        1 RU9      0.131100
     17 C13         1.7720   -2.0010   -0.1610 ca        1 RU9     -0.168000
     18 C14         0.4170   -1.6940   -0.1860 ca        1 RU9     -0.073000
     19 C15         4.9960   -0.4540    0.1600 ca        1 RU9      0.129100
     20 C16         4.8410    0.2900    1.3370 ca        1 RU9     -0.202000
     21 C17         5.8960    1.0880    1.7750 ca        1 RU9     -0.070000
     22 C18         7.0890    1.1470    1.0590 ca        1 RU9     -0.227000
     23 C19         7.2240    0.3930   -0.1170 ca        1 RU9      0.143100
     24 C20         6.1780   -0.4150   -0.5890 ca        1 RU9     -0.165000
     25 OAB        -7.5600   -0.5490    1.7400 o         1 RU9     -0.615100
     26 OAC         8.3710    0.4020   -0.8750 oh        1 RU9     -0.492100
     27 H11N       -8.2360    0.5570   -1.1420 hn        1 RU9      0.313500
     28 H12N       -9.3070   -0.0330    0.0450 hn        1 RU9      0.313500
     29 H3         -5.1380   -1.3920    1.2420 ha        1 RU9      0.160000
     30 H8         -6.5510    2.0940   -0.9210 ha        1 RU9      0.134000
     31 HA         -2.2130   -1.5930    0.9670 hn        1 RU9      0.309700
     32 H7         -4.2540    2.6580   -1.6760 ha        1 RU9      0.152000
     33 H10         0.6100    1.7200   -0.4270 ha        1 RU9      0.148500
     34 H14        -0.3150   -2.5150   -0.1560 ha        1 RU9      0.148500
     35 H11         3.0460    1.1830   -0.3870 ha        1 RU9      0.156500
     36 H13         2.1190   -3.0430   -0.1010 ha        1 RU9      0.156500
     37 H16         3.8990    0.2380    1.9010 ha        1 RU9      0.150000
     38 H20         6.2910   -1.0040   -1.5080 ha        1 RU9      0.170000
     39 H17         5.7860    1.6750    2.6990 ha        1 RU9      0.139000
     40 H18         7.9180    1.7760    1.4110 ha        1 RU9      0.138000
     41 HAC         9.0090    0.9910   -0.4460 ho        1 RU9      0.422000
@<TRIPOS>BOND
     1    1    2 1   
     2    1    4 1   
     3    1   25 2   
     4    2   27 1   
     5    2   28 1   
     6    3   16 1   
     7    3   19 1   
     8    4    5 ar  
     9    4   12 ar  
    10    5    7 ar  
    11    5   29 1   
    12    6    7 1   
    13    6    9 1   
    14    6   31 1   
    15    7   10 ar  
    16    8    9 2   
    17    8   10 1   
    18    9   13 1   
    19   10   11 ar  
    20   11   12 ar  
    21   11   32 1   
    22   12   30 1   
    23   13   14 ar  
    24   13   18 ar  
    25   14   15 ar  
    26   14   33 1   
    27   15   16 ar  
    28   15   35 1   
    29   16   17 ar  
    30   17   18 ar  
    31   17   36 1   
    32   18   34 1   
    33   19   20 ar  
    34   19   24 ar  
    35   20   21 ar  
    36   20   37 1   
    37   21   22 ar  
    38   21   39 1   
    39   22   23 ar  
    40   22   40 1   
    41   23   24 ar  
    42   23   26 1   
    43   24   38 1   
    44   26   41 1   
@<TRIPOS>SUBSTRUCTURE
     1 RU9         1 TEMP              0 ****  ****    0 ROOT
