@<TRIPOS>MOLECULE
RU9
   42    45     1     0     0
SMALL
bcc


@<TRIPOS>ATOM
      1 C1          0.0970   -0.4260    0.0980 c         1 RU9      0.578700
      2 N1          1.6140   -0.5800    0.1770 n4        1 RU9     -0.761400
      3 O1         -9.2740    0.8750    6.5160 os        1 RU9     -0.237200
      4 C2         -0.6170   -0.2750    1.3470 ca        1 RU9     -0.231600
      5 C3         -2.0160   -0.1420    1.2340 ca        1 RU9     -0.002000
      6 N3         -4.1090    0.1570    2.6650 na        1 RU9     -0.261300
      7 C4         -2.7430    0.0060    2.4060 ca        1 RU9     -0.119200
      8 N4         -3.0460    0.1820    4.7140 nc        1 RU9     -0.572100
      9 C5         -4.2520    0.2580    4.0650 cd        1 RU9      0.570400
     10 C6         -2.0910    0.0260    3.7190 ca        1 RU9      0.167400
     11 C7         -0.6910   -0.1100    3.7860 ca        1 RU9     -0.076000
     12 C8          0.0210   -0.2570    2.6130 ca        1 RU9     -0.112000
     13 C9         -5.5480    0.4320    4.7100 ca        1 RU9     -0.208900
     14 C10        -5.6090    1.0150    5.9860 ca        1 RU9     -0.047500
     15 C11        -6.8340    1.1930    6.6200 ca        1 RU9     -0.182000
     16 C12        -8.0080    0.7760    5.9790 ca        1 RU9      0.176100
     17 C13        -7.9590    0.1780    4.7010 ca        1 RU9     -0.182000
     18 C14        -6.7330    0.0100    4.0800 ca        1 RU9     -0.047500
     19 C15        -9.4020    1.5730    7.7230 ca        1 RU9      0.107100
     20 C16        -9.1590    2.9480    7.7900 ca        1 RU9     -0.183000
     21 C17        -9.4400    3.6230    8.9800 ca        1 RU9     -0.082000
     22 C18        -9.9500    2.9450   10.0820 ca        1 RU9     -0.151000
     23 C19       -10.1870    1.5610    9.9900 ca        1 RU9      0.144100
     24 C20        -9.9100    0.8550    8.8110 ca        1 RU9     -0.212000
     25 OAB        -0.3190   -0.4530   -1.0540 o         1 RU9     -0.446100
     26 OAC       -10.6890    0.9530   11.1130 oh        1 RU9     -0.485100
     27 H11N        1.8480   -1.4080    0.7300 hn        1 RU9      0.464467
     28 H12N        2.0220    0.2450    0.6230 hn        1 RU9      0.464467
     29 H3         -2.5010   -0.1590    0.2440 ha        1 RU9      0.171000
     30 H8          1.1130   -0.3600    2.6970 ha        1 RU9      0.117000
     31 HA         -4.8320    0.2010    1.9940 hn        1 RU9      0.326700
     32 H7         -0.1850   -0.0990    4.7650 ha        1 RU9      0.179000
     33 H10        -4.6860    1.3380    6.4960 ha        1 RU9      0.147000
     34 H14        -6.7070   -0.4770    3.0930 ha        1 RU9      0.147000
     35 H11        -6.8810    1.6540    7.6190 ha        1 RU9      0.168000
     36 H13        -8.8940   -0.1500    4.2220 ha        1 RU9      0.168000
     37 H16        -8.7660    3.4850    6.9160 ha        1 RU9      0.148000
     38 H20       -10.1010   -0.2240    8.7280 ha        1 RU9      0.156000
     39 H17        -9.2590    4.7070    9.0440 ha        1 RU9      0.147000
     40 H18       -10.1770    3.4690   11.0220 ha        1 RU9      0.163000
     41 HAC       -10.8470    0.0180   10.9090 ho        1 RU9      0.427000
     42 H131        1.9990   -0.6820   -0.7690 hn        1 RU9      0.464467
@<TRIPOS>BOND
     1    1    2 1   
     2    1    4 1   
     3    1   25 2   
     4    2   27 1   
     5    2   28 1   
     6    2   42 1   
     7    3   16 1   
     8    3   19 1   
     9    4    5 ar  
    10    4   12 ar  
    11    5    7 ar  
    12    5   29 1   
    13    6    7 1   
    14    6    9 1   
    15    6   31 1   
    16    7   10 ar  
    17    8    9 2   
    18    8   10 1   
    19    9   13 1   
    20   10   11 ar  
    21   11   12 ar  
    22   11   32 1   
    23   12   30 1   
    24   13   14 ar  
    25   13   18 ar  
    26   14   15 ar  
    27   14   33 1   
    28   15   16 ar  
    29   15   35 1   
    30   16   17 ar  
    31   17   18 ar  
    32   17   36 1   
    33   18   34 1   
    34   19   20 ar  
    35   19   24 ar  
    36   20   21 ar  
    37   20   37 1   
    38   21   22 ar  
    39   21   39 1   
    40   22   23 ar  
    41   22   40 1   
    42   23   24 ar  
    43   23   26 1   
    44   24   38 1   
    45   26   41 1   
@<TRIPOS>SUBSTRUCTURE
     1 RU9         1 TEMP              0 ****  ****    0 ROOT
