@<TRIPOS>MOLECULE
RU9
   42    45     1     0     0
SMALL
bcc


@<TRIPOS>ATOM
      1 C1          0.0950   -0.4180    0.0900 c         1 RU9      0.578700
      2 N1          1.6020   -0.6430    0.1830 n4        1 RU9     -0.761400
      3 O1         -9.3120    0.9940    6.4330 os        1 RU9     -0.237200
      4 C2         -0.6310   -0.2930    1.3340 ca        1 RU9     -0.231600
      5 C3         -2.0220   -0.0950    1.2090 ca        1 RU9     -0.002000
      6 N3         -4.1220    0.2300    2.6240 na        1 RU9     -0.261300
      7 C4         -2.7600    0.0320    2.3770 ca        1 RU9     -0.119200
      8 N4         -3.0920    0.1150    4.6860 nc        1 RU9     -0.572100
      9 C5         -4.2820    0.2730    4.0250 cd        1 RU9      0.570400
     10 C6         -2.1290   -0.0370    3.6970 ca        1 RU9      0.167400
     11 C7         -0.7370   -0.2370    3.7770 ca        1 RU9     -0.076000
     12 C8         -0.0140   -0.3610    2.6090 ca        1 RU9     -0.112000
     13 C9         -5.5800    0.4730    4.6590 ca        1 RU9     -0.208900
     14 C10        -5.6360    0.9990    5.9600 ca        1 RU9     -0.047500
     15 C11        -6.8620    1.2000    6.5850 ca        1 RU9     -0.182000
     16 C12        -8.0430    0.8650    5.9090 ca        1 RU9      0.176100
     17 C13        -8.0000    0.3250    4.6060 ca        1 RU9     -0.182000
     18 C14        -6.7720    0.1330    3.9940 ca        1 RU9     -0.047500
     19 C15        -9.4280    1.6370    7.6720 ca        1 RU9      0.107100
     20 C16        -9.1310    2.9960    7.8090 ca        1 RU9     -0.183000
     21 C17        -9.4010    3.6230    9.0270 ca        1 RU9     -0.082000
     22 C18        -9.9530    2.9140   10.0880 ca        1 RU9     -0.151000
     23 C19       -10.2430    1.5460    9.9260 ca        1 RU9      0.144100
     24 C20        -9.9790    0.8880    8.7170 ca        1 RU9     -0.212000
     25 OAB        -0.3040   -0.3730   -1.0680 o         1 RU9     -0.446100
     26 OAC       -10.7840    0.9050   11.0120 oh        1 RU9     -0.485100
     27 H11N        2.0390    0.1420    0.6720 hn        1 RU9      0.464467
     28 H12N        1.9970   -0.7180   -0.7620 hn        1 RU9      0.464467
     29 H3         -2.4910   -0.0440    0.2130 ha        1 RU9      0.171000
     30 H8          1.0720   -0.5150    2.7030 ha        1 RU9      0.117000
     31 HA         -4.8320    0.3360    1.9460 hn        1 RU9      0.326700
     32 H7         -0.2460   -0.2930    4.7630 ha        1 RU9      0.179000
     33 H10        -4.7080    1.2580    6.4970 ha        1 RU9      0.147000
     34 H14        -6.7520   -0.3090    2.9860 ha        1 RU9      0.147000
     35 H11        -6.9050    1.6160    7.6040 ha        1 RU9      0.168000
     36 H13        -8.9400    0.0600    4.0990 ha        1 RU9      0.168000
     37 H16        -8.7050    3.5580    6.9660 ha        1 RU9      0.148000
     38 H20       -10.2110   -0.1770    8.5790 ha        1 RU9      0.156000
     39 H17        -9.1780    4.6950    9.1460 ha        1 RU9      0.147000
     40 H18       -10.1710    3.4010   11.0500 ha        1 RU9      0.163000
     41 HAC       -10.9760   -0.0110   10.7610 ho        1 RU9      0.427000
     42 H131        1.7910   -1.5050    0.7000 hn        1 RU9      0.464467
@<TRIPOS>BOND
     1    1    2 1   
     2    1    4 1   
     3    1   25 2   
     4    2   27 1   
     5    2   28 1   
     6    2   42 1   
     7    3   16 1   
     8    3   19 1   
     9    4    5 ar  
    10    4   12 ar  
    11    5    7 ar  
    12    5   29 1   
    13    6    7 1   
    14    6    9 1   
    15    6   31 1   
    16    7   10 ar  
    17    8    9 2   
    18    8   10 1   
    19    9   13 1   
    20   10   11 ar  
    21   11   12 ar  
    22   11   32 1   
    23   12   30 1   
    24   13   14 ar  
    25   13   18 ar  
    26   14   15 ar  
    27   14   33 1   
    28   15   16 ar  
    29   15   35 1   
    30   16   17 ar  
    31   17   18 ar  
    32   17   36 1   
    33   18   34 1   
    34   19   20 ar  
    35   19   24 ar  
    36   20   21 ar  
    37   20   37 1   
    38   21   22 ar  
    39   21   39 1   
    40   22   23 ar  
    41   22   40 1   
    42   23   24 ar  
    43   23   26 1   
    44   24   38 1   
    45   26   41 1   
@<TRIPOS>SUBSTRUCTURE
     1 RU9         1 TEMP              0 ****  ****    0 ROOT
