@<TRIPOS>MOLECULE
RUB
   26    25     1     0     0
SMALL
bcc


@<TRIPOS>ATOM
      1 C1          0.0350   -0.0380   -2.5500 c3        1 RUB      0.135400
      2 C2         -0.7960    0.3020   -1.3260 c         1 RUB      0.539100
      3 C3         -0.5210   -0.5600   -0.0780 c3        1 RUB      0.023100
      4 C4         -0.0310    0.2570    1.1410 c3        1 RUB      0.094100
      5 C5         -0.3470   -0.4510    2.4890 c3        1 RUB      0.185400
      6 O1         -0.2590    0.7200   -3.6520 os        1 RUB     -0.559200
      7 O2         -1.6850    1.1600   -1.2560 o         1 RUB     -0.594100
      8 O3         -1.7200   -1.2570    0.2450 oh        1 RUB     -0.610800
      9 O4          1.3660    0.4560    0.9800 oh        1 RUB     -0.645800
     10 O5          0.5380   -0.0330    3.4550 os        1 RUB     -0.585200
     11 P1         -0.1160   -0.0790   -5.1910 p5        1 RUB      1.321900
     12 P2         -0.0690    0.0790    5.0800 p5        1 RUB      1.326900
     13 O1P        -0.5670   -1.4870   -4.8910 o         1 RUB     -0.941500
     14 O2P        -1.0290    0.7220   -6.0830 o         1 RUB     -0.941500
     15 O3P         1.3540    0.0540   -5.5040 o         1 RUB     -0.941500
     16 O4P         0.0340   -1.3380    5.5850 o         1 RUB     -0.941500
     17 O5P         0.9030    1.0480    5.7020 o         1 RUB     -0.941500
     18 O6P        -1.4760    0.5860    4.9000 o         1 RUB     -0.941500
     19 H11         1.1070    0.1270   -2.2130 h1        1 RUB      0.030200
     20 H12        -0.1180   -1.1370   -2.7740 h1        1 RUB      0.030200
     21 H3          0.2230   -1.3660   -0.3200 h1        1 RUB      0.075700
     22 H4         -0.5260    1.2680    1.1230 h1        1 RUB      0.031700
     23 H51        -1.4060   -0.2210    2.7920 h1        1 RUB      0.008700
     24 H52        -0.2460   -1.5620    2.3060 h1        1 RUB      0.008700
     25 HO3        -2.3350   -0.5900    0.5740 ho        1 RUB      0.399000
     26 HO4         1.7460    0.4520    1.8730 ho        1 RUB      0.434000
@<TRIPOS>BOND
     1    1    2 1   
     2    1    6 1   
     3    1   19 1   
     4    1   20 1   
     5    2    3 1   
     6    2    7 2   
     7    3    4 1   
     8    3    8 1   
     9    3   21 1   
    10    4    5 1   
    11    4    9 1   
    12    4   22 1   
    13    5   10 1   
    14    5   23 1   
    15    5   24 1   
    16    6   11 1   
    17    8   25 1   
    18    9   26 1   
    19   10   12 1   
    20   11   13 1   
    21   11   14 1   
    22   11   15 1   
    23   12   16 1   
    24   12   17 1   
    25   12   18 1   
@<TRIPOS>SUBSTRUCTURE
     1 RUB         1 TEMP              0 ****  ****    0 ROOT
