@<TRIPOS>MOLECULE
RUF
   48    51     1     0     0
SMALL
bcc


@<TRIPOS>ATOM
      1 C1         -3.3440   -3.2790    0.5410 c3        1 RUF      0.090300
      2 N2         -3.1220   -1.9260    0.1030 n         1 RUF     -0.419300
      3 C3         -1.8370   -1.4630   -0.1430 cc        1 RUF      0.498200
      4 N4         -0.6250   -2.1420   -0.0150 nc        1 RUF     -0.711000
      5 C5          0.3370   -1.2190   -0.3920 cd        1 RUF      0.640400
      6 N6          1.7430   -1.4510   -0.4950 nh        1 RUF     -0.702300
      7 C7          2.0720   -2.8000   -0.9540 c3        1 RUF      0.133300
      8 C8          3.6010   -2.9950   -1.0720 c3        1 RUF      0.150300
      9 N9          4.3530   -2.6210    0.1080 n3        1 RUF     -0.796200
     10 C10         3.9820   -1.3060    0.5880 c3        1 RUF      0.150300
     11 C11         2.4610   -1.0610    0.7180 c3        1 RUF      0.133300
     12 N12        -0.2310    0.0210   -0.7600 na        1 RUF     -0.131900
     13 C13         0.4440    1.2150   -1.1970 c3        1 RUF      0.074600
     14 C14         0.9300    2.1160   -0.0950 ca        1 RUF     -0.108300
     15 C15         0.0050    2.6040    0.8380 ca        1 RUF     -0.097000
     16 C16         0.4030    3.4700    1.8530 ca        1 RUF     -0.129000
     17 C17         1.7360    3.8720    1.9420 ca        1 RUF     -0.113000
     18 C18         2.6650    3.4140    1.0120 ca        1 RUF     -0.132000
     19 C19         2.2640    2.5390   -0.0060 ca        1 RUF      0.026400
     20 CL20        3.4420    2.0360   -1.1290 cl        1 RUF     -0.089400
     21 C21        -1.6130   -0.1220   -0.5900 cd        1 RUF     -0.361200
     22 C22        -2.7000    0.8090   -0.8260 c         1 RUF      0.762100
     23 O23        -2.5590    1.9850   -1.2130 o         1 RUF     -0.636500
     24 N24        -3.9830    0.2780   -0.5740 n         1 RUF     -0.484400
     25 C25        -5.1580    1.0920   -0.7820 c3        1 RUF      0.080300
     26 C26        -4.2090   -1.0490   -0.1260 c         1 RUF      0.813500
     27 O27        -5.3790   -1.4450    0.0730 o         1 RUF     -0.638500
     28 H1         -2.7880   -3.4560    1.5000 h1        1 RUF      0.062700
     29 H1A        -4.4410   -3.4490    0.7040 h1        1 RUF      0.062700
     30 H1B        -2.9640   -3.9940   -0.2380 h1        1 RUF      0.062700
     31 H7          1.6590   -3.5940   -0.2680 h1        1 RUF      0.054200
     32 H7A         1.6080   -2.9390   -1.9680 h1        1 RUF      0.054200
     33 H8          3.7920   -4.0790   -1.3030 h1        1 RUF      0.064200
     34 H8A         3.9860   -2.3780   -1.9320 h1        1 RUF      0.064200
     35 HN9         4.2150   -3.3030    0.8330 hn        1 RUF      0.351800
     36 H10         4.4450   -1.1370    1.5980 h1        1 RUF      0.064200
     37 H10A        4.4100   -0.5490   -0.1290 h1        1 RUF      0.064200
     38 H11         2.2890    0.0410    0.8770 h1        1 RUF      0.054200
     39 H11A        2.0750   -1.6140    1.6220 h1        1 RUF      0.054200
     40 H13         1.3050    0.8970   -1.8550 h1        1 RUF      0.102700
     41 H13A       -0.2950    1.8070   -1.8220 h1        1 RUF      0.102700
     42 H15        -1.0540    2.3090    0.7460 ha        1 RUF      0.155000
     43 H16        -0.3350    3.8410    2.5790 ha        1 RUF      0.141000
     44 H17         2.0550    4.5560    2.7420 ha        1 RUF      0.140000
     45 H18         3.7150    3.7420    1.0730 ha        1 RUF      0.149000
     46 H25        -5.8290    0.5970   -1.5340 h1        1 RUF      0.063700
     47 H25A       -5.7190    1.1930    0.1850 h1        1 RUF      0.063700
     48 H25B       -4.8520    2.1050   -1.1530 h1        1 RUF      0.063700
@<TRIPOS>BOND
     1    1    2 1   
     2    1   28 1   
     3    1   29 1   
     4    1   30 1   
     5    2    3 1   
     6    2   26 1   
     7    3    4 1   
     8    3   21 2   
     9    4    5 2   
    10    5    6 1   
    11    5   12 1   
    12    6    7 1   
    13    6   11 1   
    14    7    8 1   
    15    7   31 1   
    16    7   32 1   
    17    8    9 1   
    18    8   33 1   
    19    8   34 1   
    20    9   10 1   
    21    9   35 1   
    22   10   11 1   
    23   10   36 1   
    24   10   37 1   
    25   11   38 1   
    26   11   39 1   
    27   12   13 1   
    28   12   21 1   
    29   13   14 1   
    30   13   40 1   
    31   13   41 1   
    32   14   15 ar  
    33   14   19 ar  
    34   15   16 ar  
    35   15   42 1   
    36   16   17 ar  
    37   16   43 1   
    38   17   18 ar  
    39   17   44 1   
    40   18   19 ar  
    41   18   45 1   
    42   19   20 1   
    43   21   22 1   
    44   22   23 2   
    45   22   24 1   
    46   24   25 1   
    47   24   26 1   
    48   25   46 1   
    49   25   47 1   
    50   25   48 1   
    51   26   27 2   
@<TRIPOS>SUBSTRUCTURE
     1 RUF         1 TEMP              0 ****  ****    0 ROOT
