@<TRIPOS>MOLECULE
RUF
   48    51     1     0     0
SMALL
bcc


@<TRIPOS>ATOM
      1 C1          0.0180   -0.3570   -0.1550 c3        1 RUF      0.090300
      2 N2          1.4530   -0.2510   -0.1590 n         1 RUF     -0.418300
      3 C3          2.1610   -0.1810    1.0330 cc        1 RUF      0.496200
      4 N4          1.6730   -0.1950    2.3410 nc        1 RUF     -0.705000
      5 C5          2.8010   -0.1030    3.1360 cd        1 RUF      0.639400
      6 N6          2.8400   -0.0530    4.5660 nh        1 RUF     -0.704300
      7 C7          2.8690   -1.3880    5.1640 c3        1 RUF      0.172800
      8 C8          2.9670   -1.3170    6.7020 c3        1 RUF      0.161300
      9 N9          1.9640   -0.4520    7.2910 n3        1 RUF     -0.820200
     10 C10         1.9050    0.8590    6.6750 c3        1 RUF      0.161300
     11 C11         1.7920    0.7920    5.1380 c3        1 RUF      0.172800
     12 N12         3.9890   -0.0480    2.3740 na        1 RUF     -0.131900
     13 C13         5.3450    0.0760    2.8470 c3        1 RUF      0.082600
     14 C14         5.7770    1.4840    3.1460 ca        1 RUF     -0.105300
     15 C15         5.9290    2.3740    2.0740 ca        1 RUF     -0.097000
     16 C16         6.3500    3.6830    2.2880 ca        1 RUF     -0.132000
     17 C17         6.6330    4.1200    3.5820 ca        1 RUF     -0.111000
     18 C18         6.5020    3.2460    4.6570 ca        1 RUF     -0.135000
     19 C19         6.0760    1.9290    4.4410 ca        1 RUF      0.043400
     20 CL20        5.9580    0.9020    5.7940 cl        1 RUF     -0.095400
     21 C21         3.5890   -0.0910    1.0350 cd        1 RUF     -0.357200
     22 C22         4.3670   -0.0850   -0.1900 c         1 RUF      0.763100
     23 O23         5.6100   -0.0070   -0.2440 o         1 RUF     -0.640500
     24 N24         3.5960   -0.1710   -1.3670 n         1 RUF     -0.483400
     25 C25         4.2420   -0.1810   -2.6590 c3        1 RUF      0.080300
     26 C26         2.1790   -0.2550   -1.3740 c         1 RUF      0.813500
     27 O27         1.5680   -0.3300   -2.4630 o         1 RUF     -0.638500
     28 H1         -0.4190    0.5210    0.3910 h1        1 RUF      0.063367
     29 H1A        -0.2890   -1.3020    0.3680 h1        1 RUF      0.063367
     30 H1B        -0.3630   -0.3710   -1.2110 h1        1 RUF      0.063367
     31 H7          1.9580   -1.9900    4.8830 h1        1 RUF      0.055450
     32 H7A         3.7800   -1.9240    4.7780 h1        1 RUF      0.055450
     33 H8          4.0180   -1.0020    6.9740 h1        1 RUF      0.039450
     34 H8A         2.8010   -2.3560    7.1040 h1        1 RUF      0.039450
     35 HN9         2.1220   -0.3640    8.2770 hn        1 RUF      0.367800
     36 H10         2.7990    1.4970    6.9400 h1        1 RUF      0.039450
     37 H10A        0.9830    1.3760    7.0620 h1        1 RUF      0.039450
     38 H11         0.7600    0.4280    4.8670 h1        1 RUF      0.055450
     39 H11A        1.9230    1.8300    4.7250 h1        1 RUF      0.055450
     40 H13         6.0210   -0.3330    2.0350 h1        1 RUF      0.094700
     41 H13A        5.4490   -0.5710    3.7660 h1        1 RUF      0.094700
     42 H15         5.7220    2.0160    1.0500 ha        1 RUF      0.158000
     43 H16         6.4620    4.3700    1.4360 ha        1 RUF      0.140000
     44 H17         6.9650    5.1550    3.7560 ha        1 RUF      0.138000
     45 H18         6.7340    3.5880    5.6780 ha        1 RUF      0.147000
     46 H25         3.9560   -1.1140   -3.2140 h1        1 RUF      0.063367
     47 H25A        5.3550   -0.1450   -2.5230 h1        1 RUF      0.063367
     48 H25B        3.9030    0.7080   -3.2550 h1        1 RUF      0.063367
@<TRIPOS>BOND
     1    1    2 1   
     2    1   28 1   
     3    1   29 1   
     4    1   30 1   
     5    2    3 1   
     6    2   26 1   
     7    3    4 1   
     8    3   21 2   
     9    4    5 2   
    10    5    6 1   
    11    5   12 1   
    12    6    7 1   
    13    6   11 1   
    14    7    8 1   
    15    7   31 1   
    16    7   32 1   
    17    8    9 1   
    18    8   33 1   
    19    8   34 1   
    20    9   10 1   
    21    9   35 1   
    22   10   11 1   
    23   10   36 1   
    24   10   37 1   
    25   11   38 1   
    26   11   39 1   
    27   12   13 1   
    28   12   21 1   
    29   13   14 1   
    30   13   40 1   
    31   13   41 1   
    32   14   15 ar  
    33   14   19 ar  
    34   15   16 ar  
    35   15   42 1   
    36   16   17 ar  
    37   16   43 1   
    38   17   18 ar  
    39   17   44 1   
    40   18   19 ar  
    41   18   45 1   
    42   19   20 1   
    43   21   22 1   
    44   22   23 2   
    45   22   24 1   
    46   24   25 1   
    47   24   26 1   
    48   25   46 1   
    49   25   47 1   
    50   25   48 1   
    51   26   27 2   
@<TRIPOS>SUBSTRUCTURE
     1 RUF         1 TEMP              0 ****  ****    0 ROOT
