@<TRIPOS>MOLECULE
RUF
   48    51     1     0     0
SMALL
bcc


@<TRIPOS>ATOM
      1 C1          0.0060   -0.3320   -0.1480 c3        1 RUF      0.090300
      2 N2          1.4420   -0.2370   -0.1540 n         1 RUF     -0.418300
      3 C3          2.1520   -0.1720    1.0360 cc        1 RUF      0.496200
      4 N4          1.6670   -0.1810    2.3450 nc        1 RUF     -0.705000
      5 C5          2.7970   -0.0970    3.1390 cd        1 RUF      0.639400
      6 N6          2.8390   -0.0460    4.5680 nh        1 RUF     -0.704300
      7 C7          2.8590   -1.3800    5.1680 c3        1 RUF      0.172800
      8 C8          2.9610   -1.3080    6.7050 c3        1 RUF      0.161300
      9 N9          1.9650   -0.4350    7.2950 n3        1 RUF     -0.820200
     10 C10         1.9160    0.8760    6.6780 c3        1 RUF      0.161300
     11 C11         1.7990    0.8080    5.1410 c3        1 RUF      0.172800
     12 N12         3.9840   -0.0520    2.3740 na        1 RUF     -0.131900
     13 C13         5.3410    0.0620    2.8450 c3        1 RUF      0.082600
     14 C14         5.7860    1.4670    3.1410 ca        1 RUF     -0.105300
     15 C15         5.9420    2.3540    2.0670 ca        1 RUF     -0.097000
     16 C16         6.3730    3.6610    2.2790 ca        1 RUF     -0.132000
     17 C17         6.6630    4.0970    3.5720 ca        1 RUF     -0.111000
     18 C18         6.5270    3.2250    4.6490 ca        1 RUF     -0.135000
     19 C19         6.0910    1.9110    4.4340 ca        1 RUF      0.043400
     20 CL20        5.9670    0.8860    5.7890 cl        1 RUF     -0.095400
     21 C21         3.5820   -0.0930    1.0350 cd        1 RUF     -0.357200
     22 C22         4.3570   -0.0950   -0.1910 c         1 RUF      0.763100
     23 O23         5.6010   -0.0270   -0.2470 o         1 RUF     -0.640500
     24 N24         3.5830   -0.1760   -1.3670 n         1 RUF     -0.483400
     25 C25         4.2270   -0.1930   -2.6600 c3        1 RUF      0.080300
     26 C26         2.1660   -0.2490   -1.3700 c         1 RUF      0.813500
     27 O27         1.5520   -0.3200   -2.4580 o         1 RUF     -0.638500
     28 H1         -0.3080   -1.2730    0.3780 h1        1 RUF      0.063367
     29 H1A        -0.3780   -0.3440   -1.2030 h1        1 RUF      0.063367
     30 H1B        -0.4230    0.5510    0.3980 h1        1 RUF      0.063367
     31 H7          3.7650   -1.9230    4.7800 h1        1 RUF      0.055450
     32 H7A         1.9420   -1.9750    4.8890 h1        1 RUF      0.055450
     33 H8          2.7880   -2.3450    7.1090 h1        1 RUF      0.039450
     34 H8A         4.0140   -1.0000    6.9750 h1        1 RUF      0.039450
     35 HN9         2.1260   -0.3460    8.2810 hn        1 RUF      0.367800
     36 H10         0.9980    1.4010    7.0660 h1        1 RUF      0.039450
     37 H10A        2.8150    1.5080    6.9400 h1        1 RUF      0.039450
     38 H11         0.7640    0.4520    4.8720 h1        1 RUF      0.055450
     39 H11A        1.9370    1.8450    4.7270 h1        1 RUF      0.055450
     40 H13         5.4420   -0.5850    3.7640 h1        1 RUF      0.094700
     41 H13A        6.0130   -0.3530    2.0310 h1        1 RUF      0.094700
     42 H15         5.7300    1.9970    1.0440 ha        1 RUF      0.158000
     43 H16         6.4890    4.3460    1.4260 ha        1 RUF      0.140000
     44 H17         7.0030    5.1290    3.7440 ha        1 RUF      0.138000
     45 H18         6.7640    3.5660    5.6680 ha        1 RUF      0.147000
     46 H25         5.3410   -0.1700   -2.5250 h1        1 RUF      0.063033
     47 H25A        3.8970    0.7000   -3.2540 h1        1 RUF      0.063033
     48 H25B        3.9290   -1.1220   -3.2150 h1        1 RUF      0.063033
@<TRIPOS>BOND
     1    1    2 1   
     2    1   28 1   
     3    1   29 1   
     4    1   30 1   
     5    2    3 1   
     6    2   26 1   
     7    3    4 1   
     8    3   21 2   
     9    4    5 2   
    10    5    6 1   
    11    5   12 1   
    12    6    7 1   
    13    6   11 1   
    14    7    8 1   
    15    7   31 1   
    16    7   32 1   
    17    8    9 1   
    18    8   33 1   
    19    8   34 1   
    20    9   10 1   
    21    9   35 1   
    22   10   11 1   
    23   10   36 1   
    24   10   37 1   
    25   11   38 1   
    26   11   39 1   
    27   12   13 1   
    28   12   21 1   
    29   13   14 1   
    30   13   40 1   
    31   13   41 1   
    32   14   15 ar  
    33   14   19 ar  
    34   15   16 ar  
    35   15   42 1   
    36   16   17 ar  
    37   16   43 1   
    38   17   18 ar  
    39   17   44 1   
    40   18   19 ar  
    41   18   45 1   
    42   19   20 1   
    43   21   22 1   
    44   22   23 2   
    45   22   24 1   
    46   24   25 1   
    47   24   26 1   
    48   25   46 1   
    49   25   47 1   
    50   25   48 1   
    51   26   27 2   
@<TRIPOS>SUBSTRUCTURE
     1 RUF         1 TEMP              0 ****  ****    0 ROOT
