@<TRIPOS>MOLECULE
RUF
   48    51     1     0     0
SMALL
bcc


@<TRIPOS>ATOM
      1 C1          0.0570   -0.4060   -0.1880 c3        1 RUF      0.090300
      2 N2          1.4910   -0.2860   -0.1770 n         1 RUF     -0.418300
      3 C3          2.1850   -0.2040    1.0220 cc        1 RUF      0.496200
      4 N4          1.6840   -0.2160    2.3250 nc        1 RUF     -0.705000
      5 C5          2.8030   -0.1090    3.1310 cd        1 RUF      0.639400
      6 N6          2.8260   -0.0520    4.5610 nh        1 RUF     -0.704300
      7 C7          2.8630   -1.3840    5.1660 c3        1 RUF      0.172800
      8 C8          2.9440   -1.3040    6.7050 c3        1 RUF      0.161300
      9 N9          1.9260   -0.4470    7.2780 n7        1 RUF     -0.820200
     10 C10         1.8600    0.8610    6.6560 c3        1 RUF      0.161300
     11 C11         1.7640    0.7850    5.1180 c3        1 RUF      0.172800
     12 N12         3.9980   -0.0450    2.3810 na        1 RUF     -0.131900
     13 C13         5.3470    0.0950    2.8680 c3        1 RUF      0.082600
     14 C14         5.7630    1.5090    3.1640 ca        1 RUF     -0.105300
     15 C15         5.9160    2.3950    2.0900 ca        1 RUF     -0.097000
     16 C16         6.3220    3.7100    2.3020 ca        1 RUF     -0.132000
     17 C17         6.5870    4.1550    3.5970 ca        1 RUF     -0.111000
     18 C18         6.4540    3.2850    4.6750 ca        1 RUF     -0.135000
     19 C19         6.0430    1.9630    4.4600 ca        1 RUF      0.043400
     20 Cl20        5.9210    0.9410    5.8170 cl        1 RUF     -0.095400
     21 C21         3.6130   -0.0980    1.0380 cd        1 RUF     -0.357200
     22 C22         4.4040   -0.0900   -0.1790 c         1 RUF      0.763100
     23 O23         5.6460    0.0000   -0.2200 o         1 RUF     -0.640500
     24 N24         3.6450   -0.1900   -1.3640 n         1 RUF     -0.483400
     25 C25         4.3050   -0.1990   -2.6490 c3        1 RUF      0.080300
     26 C26         2.2290   -0.2880   -1.3840 c         1 RUF      0.813500
     27 O27         1.6310   -0.3740   -2.4790 o         1 RUF     -0.638500
     28 H1         -0.2460   -1.3520    0.3370 h1        1 RUF      0.063367
     29 H1A        -0.3130   -0.4290   -1.2480 h1        1 RUF      0.063367
     30 H1B        -0.3950    0.4700    0.3500 h1        1 RUF      0.063367
     31 H7          3.7830   -1.9110    4.7920 h1        1 RUF      0.055450
     32 H7A         1.9600   -1.9960    4.8780 h1        1 RUF      0.055450
     33 H8          3.9880   -0.9770    6.9860 h1        1 RUF      0.039450
     34 H8A         2.7850   -2.3430    7.1090 h1        1 RUF      0.039450
     35 HN9         2.0730   -0.3520    8.2660 hn        1 RUF      0.367800
     36 H10         0.9290    1.3700    7.0300 h1        1 RUF      0.039450
     37 H10A        2.7450    1.5090    6.9270 h1        1 RUF      0.039450
     38 H11         0.7390    0.4090    4.8380 h1        1 RUF      0.055450
     39 H11A        1.8890    1.8230    4.7020 h1        1 RUF      0.055450
     40 H13         5.4480   -0.5460    3.7910 h1        1 RUF      0.094700
     41 H13A        6.0360   -0.3110    2.0640 h1        1 RUF      0.094700
     42 H15         5.7240    2.0300    1.0660 ha        1 RUF      0.158000
     43 H16         6.4350    4.3940    1.4480 ha        1 RUF      0.140000
     44 H17         6.9070    5.1940    3.7700 ha        1 RUF      0.138000
     45 H18         6.6710    3.6340    5.6960 ha        1 RUF      0.147000
     46 H25         5.4160   -0.1520   -2.5010 h1        1 RUF      0.063367
     47 H25A        3.9630    0.6840   -3.2520 h1        1 RUF      0.063367
     48 H25B        4.0340   -1.1370   -3.2020 h1        1 RUF      0.063367
@<TRIPOS>BOND
     1    1    2 1   
     2    1   28 1   
     3    1   29 1   
     4    1   30 1   
     5    2    3 1   
     6    2   26 1   
     7    3    4 1   
     8    3   21 2   
     9    4    5 2   
    10    5    6 1   
    11    5   12 1   
    12    6    7 1   
    13    6   11 1   
    14    7    8 1   
    15    7   31 1   
    16    7   32 1   
    17    8    9 1   
    18    8   33 1   
    19    8   34 1   
    20    9   10 1   
    21    9   35 1   
    22   10   11 1   
    23   10   36 1   
    24   10   37 1   
    25   11   38 1   
    26   11   39 1   
    27   12   13 1   
    28   12   21 1   
    29   13   14 1   
    30   13   40 1   
    31   13   41 1   
    32   14   15 ar  
    33   14   19 ar  
    34   15   16 ar  
    35   15   42 1   
    36   16   17 ar  
    37   16   43 1   
    38   17   18 ar  
    39   17   44 1   
    40   18   19 ar  
    41   18   45 1   
    42   19   20 1   
    43   21   22 1   
    44   22   23 2   
    45   22   24 1   
    46   24   25 1   
    47   24   26 1   
    48   25   46 1   
    49   25   47 1   
    50   25   48 1   
    51   26   27 2   
@<TRIPOS>SUBSTRUCTURE
     1 RUF         1 TEMP              0 ****  ****    0 ROOT
