@<TRIPOS>MOLECULE
RUF
   48    46     1     0     0
SMALL
bcc


@<TRIPOS>ATOM
      1 C1         -3.5580   -0.3480   -2.6640 c3        1 RUF     -0.064000
      2 N2         -2.1180   -0.2860   -2.5850 n         1 RUF     -0.234000
      3 C3         -1.4600   -0.2020   -1.2770 c2        1 RUF      0.071000
      4 N4         -1.9540   -0.1300   -0.0090 n2        1 RUF     -0.132000
      5 C5         -0.8980   -0.0690    0.8530 c1        1 RUF      0.107000
      6 N6         -2.2730   -0.2990    1.2460 n2        1 RUF     -0.226000
      7 C7         -2.8220    0.9590    1.9770 c3        1 RUF     -0.049500
      8 C8         -1.9170    1.4250    3.1040 c3        1 RUF     -0.100500
      9 N9         -1.1300    0.4930    3.4820 n3        1 RUF     -0.307000
     10 C10        -1.4090   -0.7460    3.6130 c3        1 RUF     -0.100500
     11 C11        -2.3100   -1.2300    2.4900 c3        1 RUF     -0.049500
     12 N12         0.2530   -0.1020    0.1170 n2        1 RUF     -0.122000
     13 C13         1.2600   -0.6730    1.0010 c2        1 RUF      0.017000
     14 C14         2.6480   -0.0710    0.6620 c2        1 RUF     -0.094000
     15 C15         3.6540   -0.8880    0.1570 c2        1 RUF     -0.077000
     16 C16         4.9370   -0.3780   -0.0320 c1        1 RUF     -0.130000
     17 C17         5.2130    0.9470    0.2840 c1        1 RUF     -0.121000
     18 C18         4.2060    1.7670    0.7910 c1        1 RUF     -0.121000
     19 C19         2.9250    1.2590    0.9790 c1        1 RUF     -0.043000
     20 CL20        1.6620    2.2900    1.5990 cl        1 RUF     -0.022000
     21 C21        -0.0920   -0.1840   -1.1980 c1        1 RUF     -0.223000
     22 C22         0.7390   -0.2520   -2.4620 c1        1 RUF      0.401000
     23 O23         1.9540   -0.2580   -2.3920 o         1 RUF     -0.355000
     24 N24         0.1050   -0.3320   -3.7150 n         1 RUF     -0.314000
     25 C25         0.8940   -0.3740   -4.9180 c3        1 RUF     -0.073000
     26 C26        -1.3230   -0.3510   -3.7950 c2        1 RUF      0.405000
     27 O27        -1.8720   -0.4010   -4.8810 o         1 RUF     -0.368000
     28 H1         -3.9440    0.4590   -2.2560 h1        1 RUF      0.101333
     29 H1A        -3.8790   -1.1440   -2.1830 h1        1 RUF      0.101333
     30 H1B        -3.8320   -0.4020   -3.6070 h1        1 RUF      0.101333
     31 H7         -2.9170    1.6890    1.3240 h1        1 RUF      0.099000
     32 H7A        -3.7100    0.7480    2.3490 h1        1 RUF      0.099000
     33 H8         -1.3840    2.1920    2.7930 h1        1 RUF      0.084500
     34 H8A        -2.4730    1.7070    3.8690 h1        1 RUF      0.084500
     35 HN9        -0.6440    0.7780    4.2130 hn        1 RUF      0.165000
     36 H10        -1.8660   -0.8850    4.4760 h1        1 RUF      0.084500
     37 H10A       -0.5750   -1.2660    3.6030 h1        1 RUF      0.084500
     38 H11        -2.0230   -2.1310    2.2190 h1        1 RUF      0.099000
     39 H11A       -3.2350   -1.2770    2.8230 h1        1 RUF      0.099000
     40 H13         1.0320   -0.4660    1.9350 ha        1 RUF      0.122000
     41 H13A        1.2880   -1.6490    0.8790 ha        1 RUF      0.122000
     42 H15         3.4600   -1.8230   -0.0670 ha        1 RUF      0.150000
     43 H16         5.6480   -0.9560   -0.3890 ha        1 RUF      0.140000
     44 H17         6.1190    1.3070    0.1510 ha        1 RUF      0.143500
     45 H18         4.4010    2.7030    1.0140 ha        1 RUF      0.143500
     46 H25         1.4390   -1.1910   -4.9240 h1        1 RUF      0.101000
     47 H25A        1.4820    0.4130   -4.9520 h1        1 RUF      0.101000
     48 H25B        0.2980   -0.3710   -5.7000 h1        1 RUF      0.101000
@<TRIPOS>BOND
     1    1    2 1   
     2    1   28 1   
     3    1   29 1   
     4    1   30 1   
     5    2    3 1   
     6    2   26 1   
     7    3    4 1   
     8    3   21 1   
     9    4    5 1   
    10    5   12 1   
    11    6    7 1   
    12    6   11 1   
    13    7    8 1   
    14    7   31 1   
    15    7   32 1   
    16    8    9 1   
    17    8   33 1   
    18    8   34 1   
    19    9   10 1   
    20    9   35 1   
    21   10   11 1   
    22   10   36 1   
    23   10   37 1   
    24   11   38 1   
    25   11   39 1   
    26   12   21 1   
    27   13   14 1   
    28   13   40 1   
    29   13   41 1   
    30   14   15 1   
    31   14   19 1   
    32   15   16 1   
    33   15   42 1   
    34   16   43 1   
    35   17   18 1   
    36   17   44 1   
    37   18   45 1   
    38   19   20 1   
    39   22   23 1   
    40   22   24 1   
    41   24   25 1   
    42   24   26 1   
    43   25   46 1   
    44   25   47 1   
    45   25   48 1   
    46   26   27 1   
@<TRIPOS>SUBSTRUCTURE
     1 RUF         1 TEMP              0 ****  ****    0 ROOT
