@<TRIPOS>MOLECULE
RUG
   33    34     1     0     0
SMALL
bcc


@<TRIPOS>ATOM
      1 O2          0.0520   -0.4330    0.4400 oh        1 RUG     -0.600800
      2 C2          1.4390   -0.2630    0.2270 c3        1 RUG      0.090100
      3 C3          2.0740   -0.1650    1.6250 c3        1 RUG      0.105100
      4 O3          1.9670   -1.4000    2.3100 oh        1 RUG     -0.602800
      5 C4          3.5780    0.1320    1.4920 c3        1 RUG      0.121100
      6 O4          4.1420    0.3980    2.7630 oh        1 RUG     -0.593800
      7 C5          3.7820    1.3920    0.6380 c3        1 RUG      0.104100
      8 C6          5.2680    1.6110    0.3330 c3        1 RUG      0.141400
      9 O6          5.4730    2.8330   -0.3380 oh        1 RUG     -0.592800
     10 O5          3.1500    1.2380   -0.6360 os        1 RUG     -0.435600
     11 C1          1.7240    1.0670   -0.5230 c3        1 RUG      0.240800
     12 N1          1.1800    1.1140   -1.8690 na        1 RUG      0.030400
     13 C7          1.0140    2.2940   -2.6170 cc        1 RUG     -0.162600
     14 N2          0.9750    0.0360   -2.6730 nc        1 RUG     -0.174800
     15 N3          0.6450    0.4160   -3.8340 nd        1 RUG     -0.339000
     16 C8          0.6500    1.8380   -3.8930 cd        1 RUG      0.244600
     17 C9          0.3120    2.6120   -5.1070 c3        1 RUG      0.119100
     18 O9          0.3590    3.9920   -4.7640 oh        1 RUG     -0.606800
     19 HO2        -0.3300   -0.7620   -0.3840 ho        1 RUG      0.430000
     20 H2          1.8770   -1.1340   -0.3310 h1        1 RUG      0.088700
     21 H3          1.5660    0.6430    2.2220 h1        1 RUG      0.064700
     22 HO3         1.0260   -1.6190    2.3390 ho        1 RUG      0.429000
     23 H4          4.0930   -0.7500    1.0200 h1        1 RUG      0.066700
     24 HO4         3.9380   -0.3690    3.3170 ho        1 RUG      0.427000
     25 H5          3.3580    2.2910    1.1650 h1        1 RUG      0.071700
     26 H6          5.6640    0.7530   -0.2730 h1        1 RUG      0.067700
     27 H6A         5.8260    1.6980    1.3040 h1        1 RUG      0.067700
     28 HO6         5.0140    2.7720   -1.1850 ho        1 RUG      0.411000
     29 H1          1.2830    1.9380    0.0490 h2        1 RUG      0.077700
     30 H7          1.1410    3.2970   -2.2130 h4        1 RUG      0.207000
     31 H9          1.0560    2.3950   -5.9240 h1        1 RUG      0.045700
     32 H9A        -0.7200    2.3440   -5.4680 h1        1 RUG      0.045700
     33 HO9         0.1610    4.4760   -5.5740 ho        1 RUG      0.409000
@<TRIPOS>BOND
     1    1    2 1   
     2    1   19 1   
     3    2    3 1   
     4    2   11 1   
     5    2   20 1   
     6    3    4 1   
     7    3    5 1   
     8    3   21 1   
     9    4   22 1   
    10    5    6 1   
    11    5    7 1   
    12    5   23 1   
    13    6   24 1   
    14    7    8 1   
    15    7   10 1   
    16    7   25 1   
    17    8    9 1   
    18    8   26 1   
    19    8   27 1   
    20    9   28 1   
    21   10   11 1   
    22   11   12 1   
    23   11   29 1   
    24   12   13 1   
    25   12   14 1   
    26   13   16 2   
    27   13   30 1   
    28   14   15 2   
    29   15   16 1   
    30   16   17 1   
    31   17   18 1   
    32   17   31 1   
    33   17   32 1   
    34   18   33 1   
@<TRIPOS>SUBSTRUCTURE
     1 RUG         1 TEMP              0 ****  ****    0 ROOT
