@<TRIPOS>MOLECULE
RUG
   33    34     1     0     0
SMALL
bcc


@<TRIPOS>ATOM
      1 O2          0.0680   -0.4520    0.4430 oh        1 RUG     -0.600800
      2 C2          1.4520   -0.2730    0.2230 c3        1 RUG      0.090100
      3 C3          2.0950   -0.1790    1.6180 c3        1 RUG      0.105100
      4 O3          1.9980   -1.4180    2.2970 oh        1 RUG     -0.602800
      5 C4          3.5960    0.1270    1.4790 c3        1 RUG      0.121100
      6 O4          4.1660    0.3880    2.7480 oh        1 RUG     -0.593800
      7 C5          3.7880    1.3930    0.6310 c3        1 RUG      0.104100
      8 C6          5.2710    1.6210    0.3190 c3        1 RUG      0.141400
      9 O6          5.4670    2.8480   -0.3460 oh        1 RUG     -0.592800
     10 O5          3.1500    1.2420   -0.6400 os        1 RUG     -0.435600
     11 C1          1.7260    1.0630   -0.5210 c3        1 RUG      0.240800
     12 N1          1.1750    1.1150   -1.8630 na        1 RUG      0.030400
     13 C7          0.9970    2.2980   -2.6030 cc        1 RUG     -0.162600
     14 N2          0.9720    0.0400   -2.6730 nc        1 RUG     -0.174800
     15 N3          0.6340    0.4250   -3.8300 nd        1 RUG     -0.339000
     16 C8          0.6290    1.8470   -3.8810 cd        1 RUG      0.244600
     17 C9          0.2800    2.6260   -5.0890 c3        1 RUG      0.119100
     18 O9          0.3190    4.0040   -4.7370 oh        1 RUG     -0.606800
     19 HO2        -0.3170   -0.7780   -0.3810 ho        1 RUG      0.430000
     20 H2          1.8920   -1.1390   -0.3430 h1        1 RUG      0.088700
     21 H3          1.5860    0.6220    2.2230 h1        1 RUG      0.064700
     22 HO3         1.0580   -1.6430    2.3300 ho        1 RUG      0.429000
     23 H4          4.1130   -0.7500    0.9990 h1        1 RUG      0.066700
     24 HO4         3.9690   -0.3830    3.2990 ho        1 RUG      0.427000
     25 H5          3.3620    2.2860    1.1650 h1        1 RUG      0.071700
     26 H6          5.8350    1.7060    1.2870 h1        1 RUG      0.067700
     27 H6A         5.6690    0.7690   -0.2940 h1        1 RUG      0.067700
     28 HO6         5.0030    2.7900   -1.1910 ho        1 RUG      0.411000
     29 H1          1.2830    1.9280    0.0580 h2        1 RUG      0.077700
     30 H7          1.1200    3.2990   -2.1940 h4        1 RUG      0.207000
     31 H9         -0.7510    2.3530   -5.4460 h1        1 RUG      0.045700
     32 H9A         1.0220    2.4190   -5.9100 h1        1 RUG      0.045700
     33 HO9         0.1140    4.4920   -5.5430 ho        1 RUG      0.409000
@<TRIPOS>BOND
     1    1    2 1   
     2    1   19 1   
     3    2    3 1   
     4    2   11 1   
     5    2   20 1   
     6    3    4 1   
     7    3    5 1   
     8    3   21 1   
     9    4   22 1   
    10    5    6 1   
    11    5    7 1   
    12    5   23 1   
    13    6   24 1   
    14    7    8 1   
    15    7   10 1   
    16    7   25 1   
    17    8    9 1   
    18    8   26 1   
    19    8   27 1   
    20    9   28 1   
    21   10   11 1   
    22   11   12 1   
    23   11   29 1   
    24   12   13 1   
    25   12   14 1   
    26   13   16 2   
    27   13   30 1   
    28   14   15 2   
    29   15   16 1   
    30   16   17 1   
    31   17   18 1   
    32   17   31 1   
    33   17   32 1   
    34   18   33 1   
@<TRIPOS>SUBSTRUCTURE
     1 RUG         1 TEMP              0 ****  ****    0 ROOT
