@<TRIPOS>MOLECULE
RUG
   33    34     1     0     0
SMALL
bcc


@<TRIPOS>ATOM
      1 O2          0.4680    2.8790   -0.3010 oh        1 RUG     -0.600800
      2 C2          0.9440    1.6490    0.2070 c3        1 RUG      0.090100
      3 C3          2.3930    1.5160   -0.2910 c3        1 RUG      0.105100
      4 O3          3.2200    2.4950    0.3110 oh        1 RUG     -0.602800
      5 C4          2.9610    0.1480    0.1260 c3        1 RUG      0.121100
      6 O4          4.2280   -0.0620   -0.4710 oh        1 RUG     -0.593800
      7 C5          2.0370   -0.9700   -0.3770 c3        1 RUG      0.104100
      8 C6          2.4730   -2.3310    0.1770 c3        1 RUG      0.141400
      9 O6          1.7110   -3.3750   -0.3840 oh        1 RUG     -0.592800
     10 O5          0.7060   -0.7710    0.1070 os        1 RUG     -0.435600
     11 C1          0.1280    0.4590   -0.3680 c3        1 RUG      0.240800
     12 N1         -1.2700    0.4560    0.0260 na        1 RUG      0.030400
     13 C7         -2.2720   -0.3000   -0.6090 cc        1 RUG     -0.162600
     14 N2         -1.7630    0.9840    1.1790 nc        1 RUG     -0.174800
     15 N3         -2.9850    0.6820    1.3080 nd        1 RUG     -0.339000
     16 C8         -3.3940   -0.1390    0.2190 cd        1 RUG      0.244600
     17 C9         -4.7650   -0.6710    0.0600 c3        1 RUG      0.119100
     18 O9         -4.8090   -1.3820   -1.1720 oh        1 RUG     -0.606800
     19 HO2        -0.3210    3.1160    0.2030 ho        1 RUG      0.430000
     20 H2          0.9230    1.6360    1.3310 h1        1 RUG      0.088700
     21 H3          2.4270    1.6300   -1.4100 h1        1 RUG      0.064700
     22 HO3         2.8280    3.3540    0.1020 ho        1 RUG      0.429000
     23 H4          3.0540    0.1070    1.2470 h1        1 RUG      0.066700
     24 HO4         4.7790    0.6900   -0.2130 ho        1 RUG      0.427000
     25 H5          2.0310   -0.9930   -1.5020 h1        1 RUG      0.071700
     26 H6          3.5340   -2.5250   -0.1390 h1        1 RUG      0.067700
     27 H6A         2.3890   -2.3340    1.2950 h1        1 RUG      0.067700
     28 HO6         0.7950   -3.2360   -0.1100 ho        1 RUG      0.411000
     29 H1          0.1570    0.4790   -1.4990 h2        1 RUG      0.077700
     30 H7         -2.1300   -0.8430   -1.5410 h4        1 RUG      0.207000
     31 H9         -5.0120   -1.3650    0.9110 h1        1 RUG      0.045700
     32 H9A        -5.5120    0.1700    0.0410 h1        1 RUG      0.045700
     33 HO9        -5.7010   -1.7410   -1.2420 ho        1 RUG      0.409000
@<TRIPOS>BOND
     1    1    2 1   
     2    1   19 1   
     3    2    3 1   
     4    2   11 1   
     5    2   20 1   
     6    3    4 1   
     7    3    5 1   
     8    3   21 1   
     9    4   22 1   
    10    5    6 1   
    11    5    7 1   
    12    5   23 1   
    13    6   24 1   
    14    7    8 1   
    15    7   10 1   
    16    7   25 1   
    17    8    9 1   
    18    8   26 1   
    19    8   27 1   
    20    9   28 1   
    21   10   11 1   
    22   11   12 1   
    23   11   29 1   
    24   12   13 1   
    25   12   14 1   
    26   13   16 2   
    27   13   30 1   
    28   14   15 2   
    29   15   16 1   
    30   16   17 1   
    31   17   18 1   
    32   17   31 1   
    33   17   32 1   
    34   18   33 1   
@<TRIPOS>SUBSTRUCTURE
     1 RUG         1 TEMP              0 ****  ****    0 ROOT
