@<TRIPOS>MOLECULE
RUG
   33    32     1     0     0
SMALL
bcc


@<TRIPOS>ATOM
      1 O2         -3.3320   -1.1760    0.0610 oh        1 RUG     -0.317000
      2 C2         -1.8080   -1.2000    0.0310 c3        1 RUG     -0.028000
      3 C3         -1.3350   -1.1940    1.3650 c3        1 RUG      0.003000
      4 O3          0.1500   -1.4630    1.3450 oh        1 RUG     -0.313000
      5 C4         -1.5790    0.1000    2.0820 c3        1 RUG      0.020000
      6 O4         -2.9530    0.2620    2.2500 oh        1 RUG     -0.311000
      7 C5         -1.0010    1.3960    1.3220 c3        1 RUG     -0.009000
      8 C6          0.2980    1.3900    1.3020 c3        1 RUG     -0.050000
      9 O6          0.8020    2.2150    2.3890 oh        1 RUG     -0.328000
     10 O5         -1.5960    1.2330   -0.1370 os        1 RUG     -0.262000
     11 C1         -1.3550   -0.0860   -0.7660 c3        1 RUG      0.147000
     12 N1          0.0710   -0.2360   -1.0050 n3        1 RUG     -0.198000
     13 C7          0.7750    0.3640   -1.9810 c1        1 RUG     -0.101000
     14 N2          0.9130   -1.0690   -0.3330 n2        1 RUG     -0.003000
     15 N3          2.1610   -0.9750   -0.9130 n2        1 RUG     -0.089000
     16 C8          2.0850   -0.1050   -1.9170 c1        1 RUG     -0.214000
     17 C9          3.1990    0.2370   -2.8810 c2        1 RUG      0.065000
     18 O9          4.1760   -0.7720   -2.8490 oh        1 RUG     -0.320000
     19 HO2        -3.6370   -1.8300   -0.3980 ho        1 RUG      0.213000
     20 H2         -1.5070   -2.0590   -0.4150 h1        1 RUG      0.112000
     21 H3         -1.7910   -1.9350    1.8710 h1        1 RUG      0.115000
     22 HO3         0.3540   -2.0960    1.9670 ho        1 RUG      0.218000
     23 H4         -1.1620    0.0490    2.9620 h1        1 RUG      0.155000
     24 HO4        -3.1390    0.4260    3.1380 ho        1 RUG      0.218000
     25 H5         -1.3370    2.2170    1.7390 h1        1 RUG      0.155000
     26 H6          0.6210    0.4800    1.4080 h1        1 RUG      0.088500
     27 H6A         0.6110    1.7500    0.4490 h1        1 RUG      0.088500
     28 HO6         1.6100    2.5140    2.1840 ho        1 RUG      0.209000
     29 H1         -1.8400   -0.1110   -1.6660 h2        1 RUG      0.128000
     30 H7          0.4290    1.0140   -2.6230 DU        1 RUG      0.203000
     31 H9          2.8440    0.3070   -3.7630 h4        1 RUG      0.096000
     32 H9A         3.5970    1.0770   -2.6270 h4        1 RUG      0.096000
     33 HO9         4.6760   -0.7260   -3.5920 ho        1 RUG      0.213000
@<TRIPOS>BOND
     1    1    2 1   
     2    1   19 1   
     3    2    3 1   
     4    2   11 1   
     5    2   20 1   
     6    3    4 1   
     7    3    5 1   
     8    3   21 1   
     9    4   22 1   
    10    5    6 1   
    11    5    7 1   
    12    5   23 1   
    13    6   24 1   
    14    7    8 1   
    15    7   10 1   
    16    7   25 1   
    17    8    9 1   
    18    8   26 1   
    19    8   27 1   
    20    9   28 1   
    21   10   11 1   
    22   11   12 1   
    23   11   29 1   
    24   12   13 1   
    25   12   14 1   
    26   13   16 1   
    27   14   15 1   
    28   15   16 1   
    29   17   18 1   
    30   17   31 1   
    31   17   32 1   
    32   18   33 1   
@<TRIPOS>SUBSTRUCTURE
     1 RUG         1 TEMP              0 ****  ****    0 ROOT
