@<TRIPOS>MOLECULE
RUJ
   27    26     1     0     0
SMALL
bcc


@<TRIPOS>ATOM
      1 O4         -0.6330   -0.7590   -1.6550 o         1 RUJ     -0.823800
      2 C5          0.3410   -0.7060   -0.8330 c         1 RUJ      0.907600
      3 O7          0.2720   -1.0560    0.3660 o         1 RUJ     -0.823800
      4 C6          1.6980   -0.2060   -1.3680 c3        1 RUJ     -0.226400
      5 C3          1.5270    0.8630   -2.4340 c3        1 RUJ      0.142800
      6 N2          1.9420    0.4820   -3.8120 n3        1 RUJ     -0.477400
      7 C21         2.2780    1.6960   -4.5660 c3        1 RUJ      0.096100
      8 N1          1.0090   -0.3920   -4.5220 n4        1 RUJ     -0.375600
      9 C8         -0.4270    0.0660   -4.5120 c3        1 RUJ      0.073767
     10 C9          1.4100   -0.5310   -5.9720 c3        1 RUJ      0.073767
     11 C10         1.0480   -1.7900   -3.9420 c3        1 RUJ      0.073767
     12 H61C        2.2660    0.2400   -0.5110 hc        1 RUJ      0.057700
     13 H62C        2.2870   -1.0860   -1.7280 hc        1 RUJ      0.057700
     14 H31C        2.1940    1.7310   -2.1580 h1        1 RUJ      0.070200
     15 H32C        0.4610    1.2380   -2.4060 h1        1 RUJ      0.070200
     16 H211        2.8160    1.4310   -5.5140 h1        1 RUJ      0.062367
     17 H212        3.0010    2.2840   -3.9390 h1        1 RUJ      0.062367
     18 H213        1.3970    2.3490   -4.8040 h1        1 RUJ      0.062367
     19 H81C       -0.8370    0.0100   -3.4510 hx        1 RUJ      0.101922
     20 H82C       -1.0240   -0.6240   -5.1610 hx        1 RUJ      0.101922
     21 H83C       -0.4930    1.1120   -4.9040 hx        1 RUJ      0.101922
     22 H91C        1.2210    0.4280   -6.5200 hx        1 RUJ      0.101922
     23 H92C        2.4920   -0.8160   -6.0450 hx        1 RUJ      0.101922
     24 H93C        0.7830   -1.3370   -6.4370 hx        1 RUJ      0.101922
     25 H101        2.1110   -2.1180   -3.8170 hx        1 RUJ      0.101922
     26 H102        0.5060   -1.7980   -2.9450 hx        1 RUJ      0.101922
     27 H103        0.5120   -2.4710   -4.6510 hx        1 RUJ      0.101922
@<TRIPOS>BOND
     1    1    2 1   
     2    2    3 1   
     3    2    4 1   
     4    4    5 1   
     5    4   12 1   
     6    4   13 1   
     7    5    6 1   
     8    5   14 1   
     9    5   15 1   
    10    6    7 1   
    11    6    8 1   
    12    7   16 1   
    13    7   17 1   
    14    7   18 1   
    15    8    9 1   
    16    8   10 1   
    17    8   11 1   
    18    9   19 1   
    19    9   20 1   
    20    9   21 1   
    21   10   22 1   
    22   10   23 1   
    23   10   24 1   
    24   11   25 1   
    25   11   26 1   
    26   11   27 1   
@<TRIPOS>SUBSTRUCTURE
     1 RUJ         1 TEMP              0 ****  ****    0 ROOT
