@<TRIPOS>MOLECULE
RUM
   43    45     1     0     0
SMALL
bcc


@<TRIPOS>ATOM
      1 N17        -0.9500    1.1260   -2.0660 n1        1 RUM     -0.421800
      2 C16        -0.4050    0.7340   -1.1160 cg        1 RUM      0.271800
      3 C15         0.2900    0.2420    0.0220 ca        1 RUM     -0.020000
      4 C14         1.6810    0.0820   -0.0680 ca        1 RUM     -0.092000
      5 C13         2.4010   -0.4030    1.0230 ca        1 RUM     -0.114000
      6 C12         1.7360   -0.7300    2.2040 ca        1 RUM     -0.099000
      7 C11         0.3540   -0.5700    2.2980 ca        1 RUM     -0.102000
      8 C10        -0.3830   -0.0800    1.2140 ca        1 RUM     -0.085300
      9 C9         -1.8610    0.1490    1.3850 c3        1 RUM      0.125300
     10 N2         -2.7010   -0.9760    0.9920 n         1 RUM     -0.362300
     11 C3         -3.5300   -0.9690   -0.1370 cc        1 RUM      0.652800
     12 N4         -4.1870   -2.0580   -0.5800 nd        1 RUM     -0.719300
     13 C5         -4.0360   -3.2350    0.1080 cd        1 RUM      0.160600
     14 C6         -3.3230   -3.3500    1.2740 cc        1 RUM     -0.209500
     15 Br7        -3.1840   -4.9660    2.1710 br        1 RUM      0.021300
     16 C1         -2.6590   -2.1540    1.8130 c         1 RUM      0.707700
     17 O8         -2.0890   -2.0740    2.9100 o         1 RUM     -0.572500
     18 N18        -3.6810    0.2880   -0.8600 nh        1 RUM     -0.669600
     19 C23        -3.8340    0.1720   -2.2910 c3        1 RUM      0.183800
     20 C22        -5.2940   -0.1080   -2.7620 c3        1 RUM      0.065500
     21 N24        -5.3510   -0.1520   -4.2630 nz        1 RUM     -0.834600
     22 C21        -6.2270    0.9630   -2.1930 c3        1 RUM     -0.101400
     23 C20        -6.0980    0.9790   -0.6820 c3        1 RUM     -0.109400
     24 C19        -4.6490    1.1950   -0.2500 c3        1 RUM      0.157800
     25 H14         2.2040    0.3420   -1.0020 ha        1 RUM      0.150000
     26 H13         3.4920   -0.5260    0.9480 ha        1 RUM      0.153000
     27 H12         2.3010   -1.1170    3.0670 ha        1 RUM      0.155000
     28 H11        -0.1690   -0.8420    3.2320 ha        1 RUM      0.172000
     29 H9         -2.1500    1.0770    0.8170 h1        1 RUM      0.087700
     30 H9A        -2.0660    0.3340    2.4840 h1        1 RUM      0.087700
     31 H5         -4.5640   -4.0940   -0.3510 h4        1 RUM      0.184000
     32 H23        -3.5130    1.1690   -2.7170 h1        1 RUM      0.091200
     33 H23A       -3.1480   -0.6320   -2.6780 h1        1 RUM      0.091200
     34 H22        -5.6300   -1.1290   -2.4050 hx        1 RUM      0.141700
     35 HN24       -6.3130   -0.3250   -4.5670 hn        1 RUM      0.458800
     36 HN2A       -5.0320    0.7400   -4.6540 hn        1 RUM      0.458800
     37 H21        -5.9550    1.9730   -2.6010 hc        1 RUM      0.067700
     38 H21A       -7.2910    0.7480   -2.4740 hc        1 RUM      0.067700
     39 H20        -6.7240    1.8130   -0.2690 hc        1 RUM      0.083200
     40 H20A       -6.4890    0.0170   -0.2560 hc        1 RUM      0.083200
     41 H19        -4.3230    2.2350   -0.5440 h1        1 RUM      0.086200
     42 H19A       -4.5820    1.1150    0.8710 h1        1 RUM      0.086200
     43 H243       -4.7430   -0.9020   -4.6060 hn        1 RUM      0.458800
@<TRIPOS>BOND
     1    1    2 3   
     2    2    3 1   
     3    3    4 ar  
     4    3    8 ar  
     5    4    5 ar  
     6    4   25 1   
     7    5    6 ar  
     8    5   26 1   
     9    6    7 ar  
    10    6   27 1   
    11    7    8 ar  
    12    7   28 1   
    13    8    9 1   
    14    9   10 1   
    15    9   29 1   
    16    9   30 1   
    17   10   11 1   
    18   10   16 1   
    19   11   12 2   
    20   11   18 1   
    21   12   13 1   
    22   13   14 2   
    23   13   31 1   
    24   14   15 1   
    25   14   16 1   
    26   16   17 2   
    27   18   19 1   
    28   18   24 1   
    29   19   20 1   
    30   19   32 1   
    31   19   33 1   
    32   20   21 1   
    33   20   22 1   
    34   20   34 1   
    35   21   35 1   
    36   21   36 1   
    37   21   43 1   
    38   22   23 1   
    39   22   37 1   
    40   22   38 1   
    41   23   24 1   
    42   23   39 1   
    43   23   40 1   
    44   24   41 1   
    45   24   42 1   
@<TRIPOS>SUBSTRUCTURE
     1 RUM         1 TEMP              0 ****  ****    0 ROOT
