@<TRIPOS>MOLECULE
RUM
   43    45     1     0     0
SMALL
bcc


@<TRIPOS>ATOM
      1 N17        -0.9490    1.1220   -2.0670 n1        1 RUM     -0.421800
      2 C16        -0.4050    0.7310   -1.1150 cg        1 RUM      0.271800
      3 C15         0.2900    0.2410    0.0240 ca        1 RUM     -0.020000
      4 C14         1.6810    0.0790   -0.0650 ca        1 RUM     -0.092000
      5 C13         2.3990   -0.4040    1.0260 ca        1 RUM     -0.114000
      6 C12         1.7340   -0.7290    2.2080 ca        1 RUM     -0.099000
      7 C11         0.3520   -0.5680    2.3010 ca        1 RUM     -0.102000
      8 C10        -0.3840   -0.0800    1.2160 ca        1 RUM     -0.085300
      9 C9         -1.8620    0.1500    1.3850 c3        1 RUM      0.125300
     10 N2         -2.7030   -0.9750    0.9930 n         1 RUM     -0.362300
     11 C3         -3.5310   -0.9690   -0.1370 cc        1 RUM      0.652800
     12 N4         -4.1880   -2.0580   -0.5790 nd        1 RUM     -0.719300
     13 C5         -4.0380   -3.2350    0.1110 cd        1 RUM      0.160600
     14 C6         -3.3250   -3.3480    1.2770 cc        1 RUM     -0.209500
     15 BR7        -3.1880   -4.9630    2.1750 br        1 RUM      0.021300
     16 C1         -2.6610   -2.1520    1.8150 c         1 RUM      0.707700
     17 O8         -2.0920   -2.0720    2.9120 o         1 RUM     -0.572500
     18 N18        -3.6810    0.2880   -0.8610 nh        1 RUM     -0.669600
     19 C23        -3.8340    0.1700   -2.2920 c3        1 RUM      0.183800
     20 C22        -5.2930   -0.1100   -2.7630 c3        1 RUM      0.065500
     21 N24        -5.3500   -0.1550   -4.2640 n4        1 RUM     -0.834600
     22 C21        -6.2260    0.9620   -2.1960 c3        1 RUM     -0.101400
     23 C20        -6.0980    0.9790   -0.6850 c3        1 RUM     -0.109400
     24 C19        -4.6490    1.1960   -0.2520 c3        1 RUM      0.157800
     25 H14         2.2040    0.3380   -0.9990 ha        1 RUM      0.150000
     26 H13         3.4910   -0.5280    0.9530 ha        1 RUM      0.153000
     27 H12         2.2980   -1.1150    3.0720 ha        1 RUM      0.155000
     28 H11        -0.1720   -0.8390    3.2350 ha        1 RUM      0.172000
     29 H9         -2.0680    0.3370    2.4840 h1        1 RUM      0.087700
     30 H9A        -2.1500    1.0770    0.8160 h1        1 RUM      0.087700
     31 H5         -4.5660   -4.0940   -0.3480 h4        1 RUM      0.184000
     32 H23        -3.5110    1.1660   -2.7180 h1        1 RUM      0.091200
     33 H23A       -3.1480   -0.6340   -2.6780 h1        1 RUM      0.091200
     34 H22        -5.6300   -1.1310   -2.4050 hx        1 RUM      0.141700
     35 HN24       -5.0300    0.7370   -4.6560 hn        1 RUM      0.458800
     36 HN2A       -6.3110   -0.3280   -4.5690 hn        1 RUM      0.458800
     37 H21        -7.2910    0.7470   -2.4760 hc        1 RUM      0.067700
     38 H21A       -5.9540    1.9720   -2.6040 hc        1 RUM      0.067700
     39 H20        -6.7240    1.8140   -0.2720 hc        1 RUM      0.083200
     40 H20A       -6.4900    0.0180   -0.2580 hc        1 RUM      0.083200
     41 H19        -4.5830    1.1170    0.8690 h1        1 RUM      0.086200
     42 H19A       -4.3220    2.2350   -0.5470 h1        1 RUM      0.086200
     43 H243       -4.7420   -0.9060   -4.6060 hn        1 RUM      0.458800
@<TRIPOS>BOND
     1    1    2 3   
     2    2    3 1   
     3    3    4 ar  
     4    3    8 ar  
     5    4    5 ar  
     6    4   25 1   
     7    5    6 ar  
     8    5   26 1   
     9    6    7 ar  
    10    6   27 1   
    11    7    8 ar  
    12    7   28 1   
    13    8    9 1   
    14    9   10 1   
    15    9   29 1   
    16    9   30 1   
    17   10   11 1   
    18   10   16 1   
    19   11   12 2   
    20   11   18 1   
    21   12   13 1   
    22   13   14 2   
    23   13   31 1   
    24   14   15 1   
    25   14   16 1   
    26   16   17 2   
    27   18   19 1   
    28   18   24 1   
    29   19   20 1   
    30   19   32 1   
    31   19   33 1   
    32   20   21 1   
    33   20   22 1   
    34   20   34 1   
    35   21   35 1   
    36   21   36 1   
    37   21   43 1   
    38   22   23 1   
    39   22   37 1   
    40   22   38 1   
    41   23   24 1   
    42   23   39 1   
    43   23   40 1   
    44   24   41 1   
    45   24   42 1   
@<TRIPOS>SUBSTRUCTURE
     1 RUM         1 TEMP              0 ****  ****    0 ROOT
