@<TRIPOS>MOLECULE
RUM
   42    44     1     0     0
SMALL
bcc


@<TRIPOS>ATOM
      1 N17        -2.9290   -3.6870   -0.8890 n1        1 RUM     -0.378800
      2 C16        -1.8600   -3.5480   -0.4500 cg        1 RUM      0.246800
      3 C15        -0.5590   -3.4000    0.1060 ca        1 RUM     -0.005000
      4 C14        -0.2000   -4.2200    1.1880 ca        1 RUM     -0.098000
      5 C13         1.0660   -4.1130    1.7570 ca        1 RUM     -0.129000
      6 C12         1.9840   -3.1950    1.2450 ca        1 RUM     -0.107000
      7 C11         1.6340   -2.3830    0.1690 ca        1 RUM     -0.120000
      8 C10         0.3600   -2.4680   -0.4060 ca        1 RUM     -0.062300
      9 C9          0.0320   -1.6040   -1.5920 c3        1 RUM      0.124300
     10 N2          0.1420   -0.1730   -1.3510 n         1 RUM     -0.362300
     11 C3         -0.9070    0.5780   -0.7880 cc        1 RUM      0.668800
     12 N4         -0.8070    1.8990   -0.5470 nd        1 RUM     -0.672300
     13 C5          0.3710    2.5310   -0.8330 cd        1 RUM      0.177600
     14 C6          1.4650    1.9020   -1.3770 cc        1 RUM     -0.239500
     15 BR7         3.0290    2.8340   -1.7420 br        1 RUM     -0.017700
     16 C1          1.3840    0.4660   -1.6580 c         1 RUM      0.704700
     17 O8          2.2970   -0.2280   -2.1390 o         1 RUM     -0.613500
     18 N18        -2.1300   -0.1440   -0.4660 nh        1 RUM     -0.688600
     19 C23        -2.6710    0.1300    0.8550 c3        1 RUM      0.184800
     20 C22        -3.6320    1.3440    0.9710 c3        1 RUM      0.133500
     21 N24        -4.1580    1.4440    2.3190 n3        1 RUM     -0.899800
     22 C21        -4.7010    1.2440   -0.1310 c3        1 RUM     -0.117400
     23 C20        -4.0530    1.1290   -1.4920 c3        1 RUM     -0.103400
     24 C19        -3.1170   -0.0760   -1.5380 c3        1 RUM      0.165800
     25 H14        -0.9240   -4.9480    1.5840 ha        1 RUM      0.145000
     26 H13         1.3410   -4.7550    2.6070 ha        1 RUM      0.141000
     27 H12         2.9890   -3.1140    1.6880 ha        1 RUM      0.142000
     28 H11         2.3680   -1.6730   -0.2510 ha        1 RUM      0.163000
     29 H9          0.7640   -1.8650   -2.4170 h1        1 RUM      0.090700
     30 H9A        -1.0030   -1.8340   -1.9750 h1        1 RUM      0.090700
     31 H5          0.3670    3.6120   -0.5920 h4        1 RUM      0.180000
     32 H23        -3.2330   -0.8090    1.1330 h1        1 RUM      0.069700
     33 H23A       -1.8240    0.2650    1.5820 h1        1 RUM      0.069700
     34 H22        -3.0370    2.2890    0.7910 h1        1 RUM      0.085700
     35 HN24       -4.7380    2.2560    2.3990 hn        1 RUM      0.347800
     36 HN2A       -4.6990    0.6350    2.5520 hn        1 RUM      0.347800
     37 H21        -5.3530    0.3500    0.0520 hc        1 RUM      0.043200
     38 H21A       -5.3560    2.1530   -0.1040 hc        1 RUM      0.043200
     39 H20        -4.8380    1.0010   -2.2800 hc        1 RUM      0.056200
     40 H20A       -3.4850    2.0680   -1.7230 hc        1 RUM      0.056200
     41 H19        -2.5910   -0.1020   -2.5330 h1        1 RUM      0.066200
     42 H19A       -3.7290   -1.0190   -1.4420 h1        1 RUM      0.066200
@<TRIPOS>BOND
     1    1    2 3   
     2    2    3 1   
     3    3    4 ar  
     4    3    8 ar  
     5    4    5 ar  
     6    4   25 1   
     7    5    6 ar  
     8    5   26 1   
     9    6    7 ar  
    10    6   27 1   
    11    7    8 ar  
    12    7   28 1   
    13    8    9 1   
    14    9   10 1   
    15    9   29 1   
    16    9   30 1   
    17   10   11 1   
    18   10   16 1   
    19   11   12 2   
    20   11   18 1   
    21   12   13 1   
    22   13   14 2   
    23   13   31 1   
    24   14   15 1   
    25   14   16 1   
    26   16   17 2   
    27   18   19 1   
    28   18   24 1   
    29   19   20 1   
    30   19   32 1   
    31   19   33 1   
    32   20   21 1   
    33   20   22 1   
    34   20   34 1   
    35   21   35 1   
    36   21   36 1   
    37   22   23 1   
    38   22   37 1   
    39   22   38 1   
    40   23   24 1   
    41   23   39 1   
    42   23   40 1   
    43   24   41 1   
    44   24   42 1   
@<TRIPOS>SUBSTRUCTURE
     1 RUM         1 TEMP              0 ****  ****    0 ROOT
