@<TRIPOS>MOLECULE
RUM
   43    45     1     0     0
SMALL
bcc


@<TRIPOS>ATOM
      1 N17        -0.9490    1.1300   -2.0610 n1        1 RUM     -0.421800
      2 C16        -0.4050    0.7360   -1.1100 cg        1 RUM      0.270800
      3 C15         0.2890    0.2410    0.0270 ca        1 RUM     -0.020000
      4 C14         1.6800    0.0800   -0.0620 ca        1 RUM     -0.092000
      5 C13         2.3980   -0.4070    1.0280 ca        1 RUM     -0.114000
      6 C12         1.7330   -0.7370    2.2080 ca        1 RUM     -0.099000
      7 C11         0.3500   -0.5760    2.3010 ca        1 RUM     -0.102000
      8 C10        -0.3850   -0.0840    1.2180 ca        1 RUM     -0.085300
      9 C9         -1.8630    0.1450    1.3880 c3        1 RUM      0.125300
     10 N2         -2.7040   -0.9790    0.9910 n         1 RUM     -0.362300
     11 C3         -3.5310   -0.9690   -0.1390 cc        1 RUM      0.652800
     12 N4         -4.1870   -2.0570   -0.5850 nd        1 RUM     -0.719300
     13 C5         -4.0380   -3.2360    0.1020 cd        1 RUM      0.160600
     14 C6         -3.3260   -3.3530    1.2680 cc        1 RUM     -0.209500
     15 BR7        -3.1890   -4.9700    2.1620 br        1 RUM      0.021300
     16 C1         -2.6630   -2.1580    1.8100 c         1 RUM      0.707700
     17 O8         -2.0940   -2.0810    2.9080 o         1 RUM     -0.572500
     18 N18        -3.6810    0.2890   -0.8600 nh        1 RUM     -0.669600
     19 C23        -3.8320    0.1760   -2.2910 c3        1 RUM      0.183800
     20 C22        -5.2910   -0.1030   -2.7640 c3        1 RUM      0.065500
     21 N24        -5.3470   -0.1440   -4.2650 n4        1 RUM     -0.834600
     22 C21        -6.2250    0.9670   -2.1940 c3        1 RUM     -0.101400
     23 C20        -6.0980    0.9800   -0.6830 c3        1 RUM     -0.109400
     24 C19        -4.6490    1.1950   -0.2490 c3        1 RUM      0.157800
     25 H14         2.2040    0.3420   -0.9950 ha        1 RUM      0.150000
     26 H13         3.4900   -0.5310    0.9550 ha        1 RUM      0.153000
     27 H12         2.2960   -1.1260    3.0710 ha        1 RUM      0.155000
     28 H11        -0.1730   -0.8510    3.2340 ha        1 RUM      0.172000
     29 H9         -2.1520    1.0740    0.8210 h1        1 RUM      0.087700
     30 H9A        -2.0700    0.3290    2.4870 h1        1 RUM      0.087700
     31 H5         -4.5660   -4.0940   -0.3600 h4        1 RUM      0.184000
     32 H23        -3.1460   -0.6270   -2.6790 h1        1 RUM      0.091200
     33 H23A       -3.5100    1.1730   -2.7140 h1        1 RUM      0.091200
     34 H22        -5.6280   -1.1250   -2.4090 hx        1 RUM      0.141700
     35 HN24       -6.3090   -0.3160   -4.5710 hn        1 RUM      0.458800
     36 HN2A       -5.0270    0.7480   -4.6540 hn        1 RUM      0.458800
     37 H21        -5.9520    1.9780   -2.6000 hc        1 RUM      0.067700
     38 H21A       -7.2890    0.7530   -2.4760 hc        1 RUM      0.067700
     39 H20        -6.4900    0.0180   -0.2590 hc        1 RUM      0.083200
     40 H20A       -6.7240    1.8140   -0.2690 hc        1 RUM      0.083200
     41 H19        -4.3220    2.2360   -0.5410 h1        1 RUM      0.086200
     42 H19A       -4.5840    1.1130    0.8720 h1        1 RUM      0.086200
     43 H243       -4.7390   -0.8940   -4.6090 hn        1 RUM      0.458800
@<TRIPOS>BOND
     1    1    2 3   
     2    2    3 1   
     3    3    4 ar  
     4    3    8 ar  
     5    4    5 ar  
     6    4   25 1   
     7    5    6 ar  
     8    5   26 1   
     9    6    7 ar  
    10    6   27 1   
    11    7    8 ar  
    12    7   28 1   
    13    8    9 1   
    14    9   10 1   
    15    9   29 1   
    16    9   30 1   
    17   10   11 1   
    18   10   16 1   
    19   11   12 2   
    20   11   18 1   
    21   12   13 1   
    22   13   14 2   
    23   13   31 1   
    24   14   15 1   
    25   14   16 1   
    26   16   17 2   
    27   18   19 1   
    28   18   24 1   
    29   19   20 1   
    30   19   32 1   
    31   19   33 1   
    32   20   21 1   
    33   20   22 1   
    34   20   34 1   
    35   21   35 1   
    36   21   36 1   
    37   21   43 1   
    38   22   23 1   
    39   22   37 1   
    40   22   38 1   
    41   23   24 1   
    42   23   39 1   
    43   23   40 1   
    44   24   41 1   
    45   24   42 1   
@<TRIPOS>SUBSTRUCTURE
     1 RUM         1 TEMP              0 ****  ****    0 ROOT
