@<TRIPOS>MOLECULE
RUN
   95    98     1     0     0
SMALL
bcc


@<TRIPOS>ATOM
      1 C1'        -2.1300    0.0840   -0.6230 c         1 RUN      0.603700
      2 O1'        -1.5680    1.1600   -0.3930 o         1 RUN     -0.517100
      3 C2D        -2.7800   -0.7480    0.4570 c3        1 RUN     -0.140700
      4 C3'        -1.7410   -1.1290    1.4950 c3        1 RUN     -0.094100
      5 C4D        -3.9090    0.0400    1.0930 c3        1 RUN     -0.094100
      6 N1'        -1.5500    0.1840   -3.0730 na        1 RUN     -0.245900
      7 C2'        -1.8210   -0.5640   -4.2160 cc        1 RUN      0.387800
      8 N3'        -2.6050   -1.6450   -3.9080 nd        1 RUN     -0.757000
      9 C4'        -2.8360   -1.5780   -2.5470 cd        1 RUN      0.345200
     10 C5'        -2.1890   -0.4430   -1.9980 cc        1 RUN     -0.271200
     11 C1         -1.2830   -0.2080   -5.5700 c3        1 RUN     -0.082000
     12 C2         -1.9430   -1.0350   -6.6690 c3        1 RUN     -0.103400
     13 C3         -1.5470   -2.5110   -6.6130 c3        1 RUN      0.128100
     14 O3         -0.8640   -2.8630   -7.8150 oh        1 RUN     -0.669800
     15 C4         -2.7720   -3.4530   -6.4690 c3        1 RUN      0.137500
     16 N5         -3.3350   -3.8930   -7.8160 ny        1 RUN     -0.655800
     17 C6         -4.1000   -2.8440   -8.5240 c         1 RUN      0.536100
     18 O6         -4.8810   -2.1300   -7.9080 o         1 RUN     -0.397100
     19 C7         -3.8560   -2.7230  -10.0390 c3        1 RUN      0.062500
     20 N8         -5.1420   -2.3940  -10.7370 ny        1 RUN     -0.656800
     21 C9         -6.1130   -3.5590  -10.6920 c         1 RUN      0.646100
     22 O9         -5.9730   -4.4210   -9.8320 o         1 RUN     -0.477000
     23 C10        -2.7600   -1.6610  -10.2990 c3        1 RUN     -0.091700
     24 C11        -2.2580   -1.7680  -11.7230 c3        1 RUN     -0.128600
     25 C12        -3.2270   -0.2580   -9.9880 c3        1 RUN     -0.128600
     26 CA         -1.4770    1.2810   -5.8690 c3        1 RUN     -0.033100
     27 C1A        -0.4830    2.1480   -5.1790 ca        1 RUN     -0.129300
     28 C2A         0.8790    2.0490   -5.4890 ca        1 RUN     -0.135500
     29 C3A         1.8040    2.8880   -4.8710 ca        1 RUN     -0.112500
     30 C4A         1.3770    3.8370   -3.9410 ca        1 RUN     -0.106000
     31 C5A         0.0210    3.9460   -3.6340 ca        1 RUN     -0.112500
     32 C6A        -0.9070    3.1070   -4.2510 ca        1 RUN     -0.135500
     33 CB         -2.3830   -4.6990   -5.6580 c3        1 RUN     -0.059100
     34 C1B        -3.4870   -5.6920   -5.5860 ca        1 RUN     -0.168300
     35 C2B        -3.4870   -6.8100   -6.4320 ca        1 RUN     -0.135500
     36 C3B        -4.4910   -7.7690   -6.3250 ca        1 RUN     -0.114000
     37 C4B        -5.5040   -7.6200   -5.3750 ca        1 RUN     -0.096000
     38 C5B        -5.5080   -6.5090   -4.5310 ca        1 RUN     -0.114000
     39 C6B        -4.5030   -5.5470   -4.6330 ca        1 RUN     -0.135500
     40 OC         -6.9860   -3.4760  -11.6840 os        1 RUN     -0.390900
     41 CC         -8.1530   -4.4090  -11.6740 c3        1 RUN      0.228700
     42 C1C        -9.2370   -3.8490  -10.8470 ca        1 RUN     -0.205300
     43 C2C       -10.0620   -2.8390  -11.3630 ca        1 RUN     -0.087000
     44 C3C       -11.1310   -2.3590  -10.6090 ca        1 RUN     -0.128500
     45 C4C       -11.3860   -2.8870   -9.3420 ca        1 RUN     -0.067000
     46 C5C       -10.5670   -3.8930   -8.8240 ca        1 RUN     -0.128500
     47 C6C        -9.4950   -4.3730   -9.5710 ca        1 RUN     -0.087000
     48 H2'        -3.2020   -1.6890    0.0070 hc        1 RUN      0.052700
     49 H3'1       -0.9430   -1.7620    1.0400 hc        1 RUN      0.052533
     50 H3'2       -1.2700   -0.2120    1.9260 hc        1 RUN      0.052533
     51 H3'3       -2.2260   -1.7040    2.3210 hc        1 RUN      0.052533
     52 H4'1       -4.7020    0.2680    0.3410 hc        1 RUN      0.052533
     53 H4'2       -4.3630   -0.5530    1.9230 hc        1 RUN      0.052533
     54 H4'3       -3.5230    1.0020    1.5100 hc        1 RUN      0.052533
     55 H1         -0.1750   -0.4300   -5.5660 hc        1 RUN      0.076700
     56 H21        -1.6260   -0.6210   -7.6660 hc        1 RUN      0.059200
     57 H22        -3.0560   -0.9180   -6.5960 hc        1 RUN      0.059200
     58 H3         -0.8850   -2.7020   -5.7190 h1        1 RUN      0.115700
     59 HO3         0.0820   -2.7340   -7.6670 ho        1 RUN      0.459000
     60 H4         -3.6080   -2.9080   -5.9310 hx        1 RUN      0.154700
     61 HN5        -2.5410   -4.2070   -8.3930 hn        1 RUN      0.487800
     62 H7         -3.5070   -3.7160  -10.4640 hx        1 RUN      0.136700
     63 HN8        -4.9380   -2.1480  -11.7190 hn        1 RUN      0.493800
     64 H10        -1.9080   -1.9280   -9.5970 hc        1 RUN      0.121700
     65 H111       -1.9470   -2.8130  -11.9690 hc        1 RUN      0.071200
     66 H112       -1.3630   -1.1050  -11.8460 hc        1 RUN      0.071200
     67 H113       -3.0260   -1.4320  -12.4620 hc        1 RUN      0.071200
     68 H121       -2.3400    0.4270   -9.9580 hc        1 RUN      0.071200
     69 H122       -3.9200    0.1340  -10.7710 hc        1 RUN      0.071200
     70 H123       -3.7320   -0.2100   -8.9900 hc        1 RUN      0.071200
     71 HA1        -2.5210    1.5820   -5.5860 hc        1 RUN      0.056700
     72 HA2        -1.3720    1.4440   -6.9770 hc        1 RUN      0.056700
     73 H2A         1.2210    1.3130   -6.2310 ha        1 RUN      0.129500
     74 H3A         2.8730    2.8050   -5.1210 ha        1 RUN      0.151500
     75 H4A         2.1080    4.5000   -3.4540 ha        1 RUN      0.155000
     76 H5A        -0.3210    4.6970   -2.9040 ha        1 RUN      0.151500
     77 H6A        -1.9770    3.2110   -4.0130 ha        1 RUN      0.129500
     78 HB1        -1.4560   -5.1630   -6.0900 hc        1 RUN      0.104200
     79 HB2        -2.1290   -4.3340   -4.6210 hc        1 RUN      0.104200
     80 H2B        -2.6600   -6.9650   -7.1420 ha        1 RUN      0.139500
     81 H3B        -4.4730   -8.6600   -6.9740 ha        1 RUN      0.158500
     82 H4B        -6.2870   -8.3890   -5.2790 ha        1 RUN      0.162000
     83 H5B        -6.2960   -6.3990   -3.7680 ha        1 RUN      0.158500
     84 H6B        -4.4950   -4.6840   -3.9490 ha        1 RUN      0.139500
     85 HC1        -8.3860   -4.4030  -12.7770 h1        1 RUN      0.109700
     86 HC2        -7.7910   -5.4090  -11.3240 h1        1 RUN      0.109700
     87 H2C        -9.8750   -2.4360  -12.3710 ha        1 RUN      0.141000
     88 H3C       -11.7850   -1.5740  -11.0210 ha        1 RUN      0.161000
     89 H4C       -12.2420   -2.5160   -8.7530 ha        1 RUN      0.164000
     90 H5C       -10.7790   -4.3170   -7.8300 ha        1 RUN      0.161000
     91 H6C        -8.8610   -5.1800   -9.1690 ha        1 RUN      0.141000
     92 HN1        -1.0220    1.0250   -3.0180 hn        1 RUN      0.342700
     93 H52        -3.9660   -4.7020   -7.6380 hn        1 RUN      0.487800
     94 H82        -5.5880   -1.5780  -10.2860 hn        1 RUN      0.493800
     95 H4'        -3.4410   -2.3240   -2.0310 h4        1 RUN      0.050100
@<TRIPOS>BOND
     1    1    2 2   
     2    1    3 1   
     3    1   10 1   
     4    3    4 1   
     5    3    5 1   
     6    3   48 1   
     7    4   49 1   
     8    4   50 1   
     9    4   51 1   
    10    5   52 1   
    11    5   53 1   
    12    5   54 1   
    13    6    7 1   
    14    6   10 1   
    15    6   92 1   
    16    7    8 2   
    17    7   11 1   
    18    8    9 1   
    19    9   10 2   
    20    9   95 1   
    21   11   12 1   
    22   11   26 1   
    23   11   55 1   
    24   12   13 1   
    25   12   56 1   
    26   12   57 1   
    27   13   14 1   
    28   13   15 1   
    29   13   58 1   
    30   14   59 1   
    31   15   16 1   
    32   15   33 1   
    33   15   60 1   
    34   16   17 1   
    35   16   61 1   
    36   16   93 1   
    37   17   18 2   
    38   17   19 1   
    39   19   20 1   
    40   19   23 1   
    41   19   62 1   
    42   20   21 1   
    43   20   63 1   
    44   20   94 1   
    45   21   22 2   
    46   21   40 1   
    47   23   24 1   
    48   23   25 1   
    49   23   64 1   
    50   24   65 1   
    51   24   66 1   
    52   24   67 1   
    53   25   68 1   
    54   25   69 1   
    55   25   70 1   
    56   26   27 1   
    57   26   71 1   
    58   26   72 1   
    59   27   28 ar  
    60   27   32 ar  
    61   28   29 ar  
    62   28   73 1   
    63   29   30 ar  
    64   29   74 1   
    65   30   31 ar  
    66   30   75 1   
    67   31   32 ar  
    68   31   76 1   
    69   32   77 1   
    70   33   34 1   
    71   33   78 1   
    72   33   79 1   
    73   34   35 ar  
    74   34   39 ar  
    75   35   36 ar  
    76   35   80 1   
    77   36   37 ar  
    78   36   81 1   
    79   37   38 ar  
    80   37   82 1   
    81   38   39 ar  
    82   38   83 1   
    83   39   84 1   
    84   40   41 1   
    85   41   42 1   
    86   41   85 1   
    87   41   86 1   
    88   42   43 ar  
    89   42   47 ar  
    90   43   44 ar  
    91   43   87 1   
    92   44   45 ar  
    93   44   88 1   
    94   45   46 ar  
    95   45   89 1   
    96   46   47 ar  
    97   46   90 1   
    98   47   91 1   
@<TRIPOS>SUBSTRUCTURE
     1 RUN         1 TEMP              0 ****  ****    0 ROOT
