@<TRIPOS>MOLECULE
RUN
   95    98     1     0     0
SMALL
bcc


@<TRIPOS>ATOM
      1 C1'        -2.1710    0.0930   -0.6170 c         1 RUN      0.603700
      2 O1'        -1.6360    1.1830   -0.3840 o         1 RUN     -0.517100
      3 C2D        -2.7970   -0.7600    0.4610 c3        1 RUN     -0.140700
      4 C3'        -1.7470   -1.1200    1.4940 c3        1 RUN     -0.094100
      5 C4D        -3.9450   -0.0040    1.1020 c3        1 RUN     -0.094100
      6 N1'        -1.5980    0.2180   -3.0680 na        1 RUN     -0.245900
      7 C2'        -1.8520   -0.5310   -4.2130 cc        1 RUN      0.387800
      8 N3'        -2.6070   -1.6330   -3.9090 nd        1 RUN     -0.757000
      9 C4'        -2.8370   -1.5780   -2.5470 cd        1 RUN      0.345200
     10 C5'        -2.2190   -0.4290   -1.9940 cc        1 RUN     -0.271200
     11 C1         -1.3250   -0.1560   -5.5670 c3        1 RUN     -0.082000
     12 C2         -1.9660   -0.9950   -6.6680 c3        1 RUN     -0.103400
     13 C3         -1.5340   -2.4610   -6.6190 c3        1 RUN      0.128100
     14 O3         -0.8430   -2.7910   -7.8250 oh        1 RUN     -0.669800
     15 C4         -2.7330   -3.4350   -6.4780 c3        1 RUN      0.137500
     16 N5         -3.2880   -3.8820   -7.8250 n4        1 RUN     -0.655800
     17 C6         -4.0810   -2.8490   -8.5260 c         1 RUN      0.536100
     18 O6         -4.8780   -2.1580   -7.9050 o         1 RUN     -0.397100
     19 C7         -3.8450   -2.7150  -10.0410 c3        1 RUN      0.062500
     20 N8         -5.1400   -2.4140  -10.7350 n4        1 RUN     -0.656800
     21 C9         -6.0820   -3.6020  -10.6940 c         1 RUN      0.646100
     22 O9         -5.9200   -4.4650   -9.8400 o         1 RUN     -0.477000
     23 C10        -2.7740   -1.6270  -10.3000 c3        1 RUN     -0.091700
     24 C11        -2.2740   -1.7150  -11.7250 c3        1 RUN     -0.128600
     25 C12        -3.2750   -0.2360   -9.9800 c3        1 RUN     -0.128600
     26 CA         -1.5580    1.3280   -5.8590 c3        1 RUN     -0.033100
     27 C1A        -0.5840    2.2170   -5.1670 ca        1 RUN     -0.129300
     28 C2A         0.7790    2.1540   -5.4800 ca        1 RUN     -0.135500
     29 C3A         1.6840    3.0130   -4.8600 ca        1 RUN     -0.112500
     30 C4A         1.2340    3.9470   -3.9250 ca        1 RUN     -0.106000
     31 C5A        -0.1240    4.0210   -3.6150 ca        1 RUN     -0.112500
     32 C6A        -1.0310    3.1610   -4.2340 ca        1 RUN     -0.135500
     33 CB         -2.3110   -4.6740   -5.6730 c3        1 RUN     -0.059100
     34 C1B        -3.3900   -5.6950   -5.6040 ca        1 RUN     -0.168300
     35 C2B        -3.3620   -6.8080   -6.4560 ca        1 RUN     -0.135500
     36 C3B        -4.3420   -7.7940   -6.3520 ca        1 RUN     -0.114000
     37 C4B        -5.3560   -7.6750   -5.3990 ca        1 RUN     -0.096000
     38 C5B        -5.3870   -6.5690   -4.5490 ca        1 RUN     -0.114000
     39 C6B        -4.4070   -5.5810   -4.6490 ca        1 RUN     -0.135500
     40 OC         -6.9590   -3.5340  -11.6840 os        1 RUN     -0.391900
     41 CC         -8.1040   -4.4950  -11.6750 c3        1 RUN      0.228700
     42 C1C        -9.1990   -3.9650  -10.8430 ca        1 RUN     -0.205300
     43 C2C       -10.0490   -2.9720  -11.3520 ca        1 RUN     -0.087000
     44 C3C       -11.1270   -2.5220  -10.5940 ca        1 RUN     -0.128500
     45 C4C       -11.3670   -3.0610   -9.3290 ca        1 RUN     -0.067000
     46 C5C       -10.5230   -4.0510   -8.8180 ca        1 RUN     -0.128500
     47 C6C        -9.4410   -4.5020   -9.5700 ca        1 RUN     -0.087000
     48 H2'        -3.1970   -1.7090    0.0070 hc        1 RUN      0.052700
     49 H3'1       -0.9340   -1.7300    1.0340 hc        1 RUN      0.052533
     50 H3'2       -2.2150   -1.7100    2.3180 hc        1 RUN      0.052533
     51 H3'3       -1.2970   -0.1930    1.9280 hc        1 RUN      0.052533
     52 H4'1       -3.5810    0.9660    1.5230 hc        1 RUN      0.052533
     53 H4'2       -4.3810   -0.6120    1.9310 hc        1 RUN      0.052533
     54 H4'3       -4.7440    0.2080    0.3530 hc        1 RUN      0.052533
     55 H1         -0.2120   -0.3510   -5.5660 hc        1 RUN      0.076700
     56 H21        -3.0820   -0.9060   -6.5930 hc        1 RUN      0.059200
     57 H22        -1.6620   -0.5690   -7.6650 hc        1 RUN      0.059200
     58 H3         -0.8650   -2.6390   -5.7270 h1        1 RUN      0.115700
     59 HO3         0.0990   -2.6380   -7.6770 ho        1 RUN      0.459000
     60 H4         -3.5820   -2.9130   -5.9350 hx        1 RUN      0.154700
     61 HN5        -3.8980   -4.7080   -7.6500 hn        1 RUN      0.487800
     62 H7         -3.4730   -3.6980  -10.4720 hx        1 RUN      0.136700
     63 HN8        -4.9440   -2.1580  -11.7160 hn        1 RUN      0.493800
     64 H10        -1.9150   -1.8760   -9.6010 hc        1 RUN      0.121700
     65 H111       -1.9380   -2.7510  -11.9760 hc        1 RUN      0.071200
     66 H112       -1.3950   -1.0300  -11.8470 hc        1 RUN      0.071200
     67 H113       -3.0510   -1.3940  -12.4600 hc        1 RUN      0.071200
     68 H121       -2.4040    0.4690   -9.9500 hc        1 RUN      0.071200
     69 H122       -3.7780   -0.2050   -8.9820 hc        1 RUN      0.071200
     70 H123       -3.9790    0.1420  -10.7610 hc        1 RUN      0.071200
     71 HA1        -2.6080    1.6020   -5.5730 hc        1 RUN      0.056700
     72 HA2        -1.4590    1.4980   -6.9670 hc        1 RUN      0.056700
     73 H2A         1.1390    1.4290   -6.2250 ha        1 RUN      0.129500
     74 H3A         2.7550    2.9580   -5.1110 ha        1 RUN      0.151500
     75 H4A         1.9500    4.6270   -3.4360 ha        1 RUN      0.155000
     76 H5A        -0.4830    4.7600   -2.8810 ha        1 RUN      0.151500
     77 H6A        -2.1030    3.2380   -3.9950 ha        1 RUN      0.129500
     78 HB1        -1.3740   -5.1120   -6.1090 hc        1 RUN      0.104200
     79 HB2        -2.0650   -4.3070   -4.6350 hc        1 RUN      0.104200
     80 H2B        -2.5330   -6.9380   -7.1680 ha        1 RUN      0.139500
     81 H3B        -4.3020   -8.6800   -7.0050 ha        1 RUN      0.158500
     82 H4B        -6.1190   -8.4650   -5.3060 ha        1 RUN      0.162000
     83 H5B        -6.1750   -6.4830   -3.7840 ha        1 RUN      0.158500
     84 H6B        -4.4200   -4.7210   -3.9600 ha        1 RUN      0.139500
     85 HC1        -8.3400   -4.4890  -12.7780 h1        1 RUN      0.109700
     86 HC2        -7.7180   -5.4870  -11.3320 h1        1 RUN      0.109700
     87 H2C        -9.8730   -2.5600  -12.3580 ha        1 RUN      0.141000
     88 H3C       -11.8000   -1.7490  -11.0010 ha        1 RUN      0.161000
     89 H4C       -12.2290   -2.7140   -8.7360 ha        1 RUN      0.164000
     90 H5C       -10.7220   -4.4850   -7.8260 ha        1 RUN      0.161000
     91 H6C        -8.7890   -5.2950   -9.1740 ha        1 RUN      0.141000
     92 HN1        -1.0910    1.0720   -3.0100 hn        1 RUN      0.342700
     93 H52        -2.4880   -4.1730   -8.4060 hn        1 RUN      0.487800
     94 H82        -5.6040   -1.6110  -10.2790 hn        1 RUN      0.493800
     95 H4'        -3.4230   -2.3410   -2.0330 h4        1 RUN      0.050100
@<TRIPOS>BOND
     1    1    2 2   
     2    1    3 1   
     3    1   10 1   
     4    3    4 1   
     5    3    5 1   
     6    3   48 1   
     7    4   49 1   
     8    4   50 1   
     9    4   51 1   
    10    5   52 1   
    11    5   53 1   
    12    5   54 1   
    13    6    7 1   
    14    6   10 1   
    15    6   92 1   
    16    7    8 2   
    17    7   11 1   
    18    8    9 1   
    19    9   10 2   
    20    9   95 1   
    21   11   12 1   
    22   11   26 1   
    23   11   55 1   
    24   12   13 1   
    25   12   56 1   
    26   12   57 1   
    27   13   14 1   
    28   13   15 1   
    29   13   58 1   
    30   14   59 1   
    31   15   16 1   
    32   15   33 1   
    33   15   60 1   
    34   16   17 1   
    35   16   61 1   
    36   16   93 1   
    37   17   18 2   
    38   17   19 1   
    39   19   20 1   
    40   19   23 1   
    41   19   62 1   
    42   20   21 1   
    43   20   63 1   
    44   20   94 1   
    45   21   22 2   
    46   21   40 1   
    47   23   24 1   
    48   23   25 1   
    49   23   64 1   
    50   24   65 1   
    51   24   66 1   
    52   24   67 1   
    53   25   68 1   
    54   25   69 1   
    55   25   70 1   
    56   26   27 1   
    57   26   71 1   
    58   26   72 1   
    59   27   28 ar  
    60   27   32 ar  
    61   28   29 ar  
    62   28   73 1   
    63   29   30 ar  
    64   29   74 1   
    65   30   31 ar  
    66   30   75 1   
    67   31   32 ar  
    68   31   76 1   
    69   32   77 1   
    70   33   34 1   
    71   33   78 1   
    72   33   79 1   
    73   34   35 ar  
    74   34   39 ar  
    75   35   36 ar  
    76   35   80 1   
    77   36   37 ar  
    78   36   81 1   
    79   37   38 ar  
    80   37   82 1   
    81   38   39 ar  
    82   38   83 1   
    83   39   84 1   
    84   40   41 1   
    85   41   42 1   
    86   41   85 1   
    87   41   86 1   
    88   42   43 ar  
    89   42   47 ar  
    90   43   44 ar  
    91   43   87 1   
    92   44   45 ar  
    93   44   88 1   
    94   45   46 ar  
    95   45   89 1   
    96   46   47 ar  
    97   46   90 1   
    98   47   91 1   
@<TRIPOS>SUBSTRUCTURE
     1 RUN         1 TEMP              0 ****  ****    0 ROOT
