@<TRIPOS>MOLECULE
RUN
   93    96     1     0     0
SMALL
bcc


@<TRIPOS>ATOM
      1 C1'        -2.1370    0.2440    6.8980 c         1 RUN      0.611700
      2 O1'        -1.7060   -0.7200    7.5450 o         1 RUN     -0.548100
      3 C2D        -3.3330    1.0570    7.3400 c3        1 RUN     -0.149700
      4 C3'        -4.2270    0.2450    8.2540 c3        1 RUN     -0.089100
      5 C4D        -2.8620    2.3210    8.0310 c3        1 RUN     -0.089100
      6 N1'        -0.3990    0.0260    5.0820 na        1 RUN     -0.263900
      7 C2'        -0.0790    0.7050    3.9070 cc        1 RUN      0.429800
      8 N3'        -0.9420    1.7500    3.7020 nd        1 RUN     -0.683000
      9 C4'        -1.8210    1.7340    4.7660 cd        1 RUN      0.354200
     10 C5'        -1.5100    0.6680    5.6480 cc        1 RUN     -0.321200
     11 C1          1.0660    0.3170    3.0190 c3        1 RUN     -0.081000
     12 C2          0.5820    0.0700    1.5950 c3        1 RUN     -0.107400
     13 C3         -0.3430   -1.1370    1.5170 c3        1 RUN      0.128100
     14 O3          0.3020   -2.3300    1.9250 oh        1 RUN     -0.599800
     15 C4         -0.9660   -1.2690    0.0980 c3        1 RUN      0.069700
     16 N5          0.0040   -1.6410   -0.9110 n         1 RUN     -0.552900
     17 C6          0.6270   -0.6940   -1.6980 c         1 RUN      0.620100
     18 O6          0.5380    0.5260   -1.4550 o         1 RUN     -0.608100
     19 C7          1.5230   -1.2190   -2.8530 c3        1 RUN      0.030700
     20 N8          1.6250   -0.2580   -3.9290 n         1 RUN     -0.498900
     21 C9          0.8210   -0.4240   -5.0480 c         1 RUN      0.728100
     22 O9          0.2680   -1.4630   -5.4470 o         1 RUN     -0.586000
     23 C10         2.9000   -1.5810   -2.2470 c3        1 RUN     -0.058700
     24 C11         3.7190   -2.3850   -3.2320 c3        1 RUN     -0.097600
     25 C12         3.6640   -0.3610   -1.7810 c3        1 RUN     -0.097600
     26 CA          2.1400    1.4030    3.0250 c3        1 RUN     -0.034100
     27 C1A         2.8960    1.4550    4.3060 ca        1 RUN     -0.086300
     28 C2A         3.7590    0.4100    4.6590 ca        1 RUN     -0.126000
     29 C3A         4.4830    0.4660    5.8480 ca        1 RUN     -0.128500
     30 C4A         4.3550    1.5670    6.6950 ca        1 RUN     -0.129000
     31 C5A         3.5000    2.6120    6.3470 ca        1 RUN     -0.128500
     32 C6A         2.7740    2.5590    5.1590 ca        1 RUN     -0.126000
     33 CB         -2.1300   -2.2740    0.1940 c3        1 RUN     -0.054100
     34 C1B        -2.7640   -2.5450   -1.1230 ca        1 RUN     -0.092300
     35 C2B        -2.4760   -3.7260   -1.8180 ca        1 RUN     -0.129500
     36 C3B        -3.0780   -3.9820   -3.0490 ca        1 RUN     -0.123000
     37 C4B        -3.9710   -3.0610   -3.5960 ca        1 RUN     -0.124000
     38 C5B        -4.2640   -1.8840   -2.9060 ca        1 RUN     -0.123000
     39 C6B        -3.6650   -1.6260   -1.6750 ca        1 RUN     -0.129500
     40 OC          0.7270    0.7200   -5.8110 os        1 RUN     -0.434900
     41 CC          0.0260    0.5530   -7.0610 c3        1 RUN      0.196700
     42 C1C         0.0130    1.8750   -7.7510 ca        1 RUN     -0.096300
     43 C2C         1.0730    2.7770   -7.6200 ca        1 RUN     -0.111500
     44 C3C         1.0470    3.9900   -8.3070 ca        1 RUN     -0.131500
     45 C4C        -0.0330    4.3060   -9.1300 ca        1 RUN     -0.124000
     46 C5C        -1.0930    3.4080   -9.2620 ca        1 RUN     -0.131500
     47 C6C        -1.0750    2.1970   -8.5720 ca        1 RUN     -0.111500
     48 H2'        -3.9200    1.3420    6.4210 hc        1 RUN      0.064700
     49 H3'1       -5.0920    0.8650    8.5910 hc        1 RUN      0.044533
     50 H3'2       -4.6140   -0.6550    7.7180 hc        1 RUN      0.044533
     51 H3'3       -3.6560   -0.1000    9.1490 hc        1 RUN      0.044533
     52 H4'1       -2.2700    2.0720    8.9440 hc        1 RUN      0.044533
     53 H4'2       -2.2230    2.9260    7.3420 hc        1 RUN      0.044533
     54 H4'3       -3.7430    2.9360    8.3360 hc        1 RUN      0.044533
     55 H4'        -2.6220    2.4690    4.8590 h4        1 RUN      0.044100
     56 H1          1.5200   -0.6440    3.4020 hc        1 RUN      0.065700
     57 H21         1.4730   -0.0970    0.9320 hc        1 RUN      0.073700
     58 H22         0.0470    0.9740    1.2020 hc        1 RUN      0.073700
     59 H3         -1.1880   -1.0220    2.2570 h1        1 RUN      0.085700
     60 HO3         1.0920   -2.4370    1.3820 ho        1 RUN      0.400000
     61 H4         -1.3860   -0.2520   -0.1710 h1        1 RUN      0.085700
     62 HN5        -0.0590   -2.5730   -1.2550 hn        1 RUN      0.314500
     63 H7          1.0710   -2.1670   -3.2810 h1        1 RUN      0.100700
     64 HN8         1.8140    0.6830   -3.6480 hn        1 RUN      0.332500
     65 H10         2.6850   -2.2320   -1.3510 hc        1 RUN      0.050700
     66 H111        4.6740   -2.7090   -2.7540 hc        1 RUN      0.044200
     67 H112        3.1580   -3.2940   -3.5610 hc        1 RUN      0.044200
     68 H113        3.9660   -1.7770   -4.1360 hc        1 RUN      0.044200
     69 H121        4.0550    0.2230   -2.6490 hc        1 RUN      0.044200
     70 H122        3.0040    0.3050   -1.1720 hc        1 RUN      0.044200
     71 H123        4.5340   -0.6750   -1.1550 hc        1 RUN      0.044200
     72 HA1         2.8630    1.1900    2.1900 hc        1 RUN      0.064700
     73 HA2         1.6650    2.3970    2.8080 hc        1 RUN      0.064700
     74 H2A         3.8670   -0.4570    3.9900 ha        1 RUN      0.133000
     75 H3A         5.1590   -0.3600    6.1180 ha        1 RUN      0.131500
     76 H4A         4.9270    1.6100    7.6330 ha        1 RUN      0.132000
     77 H5A         3.3980    3.4830    7.0120 ha        1 RUN      0.131500
     78 H6A         2.0990    3.3860    4.8890 ha        1 RUN      0.133000
     79 HB1        -1.7510   -3.2270    0.6530 hc        1 RUN      0.067200
     80 HB2        -2.8900   -1.8410    0.8970 hc        1 RUN      0.067200
     81 H2B        -1.7790   -4.4590   -1.3850 ha        1 RUN      0.131000
     82 H3B        -2.8440   -4.9100   -3.5900 ha        1 RUN      0.134000
     83 H4B        -4.4420   -3.2620   -4.5690 ha        1 RUN      0.134000
     84 H5B        -4.9690   -1.1560   -3.3350 ha        1 RUN      0.134000
     85 H6B        -3.8960   -0.6970   -1.1340 ha        1 RUN      0.131000
     86 HC1         0.5700   -0.2160   -7.6730 h1        1 RUN      0.064700
     87 HC2        -1.0120    0.1850   -6.8410 h1        1 RUN      0.064700
     88 H2C         1.9210    2.5260   -6.9640 ha        1 RUN      0.138500
     89 H3C         1.8820    4.6980   -8.1980 ha        1 RUN      0.133000
     90 H4C        -0.0520    5.2610   -9.6730 ha        1 RUN      0.132000
     91 H5C        -1.9470    3.6550   -9.9090 ha        1 RUN      0.133000
     92 H6C        -1.9150    1.4940   -8.6720 ha        1 RUN      0.138500
     93 HN1         0.0640   -0.7550    5.4720 hn        1 RUN      0.321700
@<TRIPOS>BOND
     1    1    2 2   
     2    1    3 1   
     3    1   10 1   
     4    3    4 1   
     5    3    5 1   
     6    3   48 1   
     7    4   49 1   
     8    4   50 1   
     9    4   51 1   
    10    5   52 1   
    11    5   53 1   
    12    5   54 1   
    13    6    7 1   
    14    6   10 1   
    15    6   93 1   
    16    7    8 2   
    17    7   11 1   
    18    8    9 1   
    19    9   10 2   
    20    9   55 1   
    21   11   12 1   
    22   11   26 1   
    23   11   56 1   
    24   12   13 1   
    25   12   57 1   
    26   12   58 1   
    27   13   14 1   
    28   13   15 1   
    29   13   59 1   
    30   14   60 1   
    31   15   16 1   
    32   15   33 1   
    33   15   61 1   
    34   16   17 1   
    35   16   62 1   
    36   17   18 2   
    37   17   19 1   
    38   19   20 1   
    39   19   23 1   
    40   19   63 1   
    41   20   21 1   
    42   20   64 1   
    43   21   22 2   
    44   21   40 1   
    45   23   24 1   
    46   23   25 1   
    47   23   65 1   
    48   24   66 1   
    49   24   67 1   
    50   24   68 1   
    51   25   69 1   
    52   25   70 1   
    53   25   71 1   
    54   26   27 1   
    55   26   72 1   
    56   26   73 1   
    57   27   28 ar  
    58   27   32 ar  
    59   28   29 ar  
    60   28   74 1   
    61   29   30 ar  
    62   29   75 1   
    63   30   31 ar  
    64   30   76 1   
    65   31   32 ar  
    66   31   77 1   
    67   32   78 1   
    68   33   34 1   
    69   33   79 1   
    70   33   80 1   
    71   34   35 ar  
    72   34   39 ar  
    73   35   36 ar  
    74   35   81 1   
    75   36   37 ar  
    76   36   82 1   
    77   37   38 ar  
    78   37   83 1   
    79   38   39 ar  
    80   38   84 1   
    81   39   85 1   
    82   40   41 1   
    83   41   42 1   
    84   41   86 1   
    85   41   87 1   
    86   42   43 ar  
    87   42   47 ar  
    88   43   44 ar  
    89   43   88 1   
    90   44   45 ar  
    91   44   89 1   
    92   45   46 ar  
    93   45   90 1   
    94   46   47 ar  
    95   46   91 1   
    96   47   92 1   
@<TRIPOS>SUBSTRUCTURE
     1 RUN         1 TEMP              0 ****  ****    0 ROOT
