@<TRIPOS>MOLECULE
RUN
   95    98     1     0     0
SMALL
bcc


@<TRIPOS>ATOM
      1 C1'        -2.1640    0.1060   -0.6280 c         1 RUN      0.603700
      2 O1'        -1.6170    1.1910   -0.3980 o         1 RUN     -0.517100
      3 C2D        -2.8010   -0.7350    0.4530 c3        1 RUN     -0.140700
      4 C3'        -1.7530   -1.1120    1.4830 c3        1 RUN     -0.094100
      5 C4D        -3.9330    0.0410    1.0980 c3        1 RUN     -0.094100
      6 N1'        -1.5870    0.2150   -3.0790 na        1 RUN     -0.245900
      7 C2'        -1.8470   -0.5370   -4.2210 cc        1 RUN      0.387800
      8 N3'        -2.6120   -1.6310   -3.9120 nd        1 RUN     -0.757000
      9 C4'        -2.8430   -1.5670   -2.5510 cd        1 RUN      0.345200
     10 C5'        -2.2150   -0.4220   -2.0020 cc        1 RUN     -0.271200
     11 C1         -1.3150   -0.1730   -5.5750 c3        1 RUN     -0.082000
     12 C2         -1.9610   -1.0120   -6.6730 c3        1 RUN     -0.103400
     13 C3         -1.5410   -2.4810   -6.6170 c3        1 RUN      0.128100
     14 O3         -0.8510   -2.8230   -7.8190 oh        1 RUN     -0.669800
     15 C4         -2.7490   -3.4440   -6.4730 c3        1 RUN      0.137500
     16 N5         -3.3050   -3.8930   -7.8190 n4        1 RUN     -0.655800
     17 C6         -4.0870   -2.8570   -8.5270 c         1 RUN      0.536100
     18 O6         -4.8800   -2.1560   -7.9120 o         1 RUN     -0.397100
     19 C7         -3.8460   -2.7320  -10.0420 c3        1 RUN      0.062500
     20 N8         -5.1370   -2.4250  -10.7410 n4        1 RUN     -0.656800
     21 C9         -6.0890   -3.6050  -10.6950 c         1 RUN      0.646100
     22 O9         -5.9350   -4.4650   -9.8350 o         1 RUN     -0.477000
     23 C10        -2.7670   -1.6540  -10.3040 c3        1 RUN     -0.091700
     24 C11        -2.2640   -1.7530  -11.7280 c3        1 RUN     -0.128600
     25 C12        -3.2570   -0.2580   -9.9930 c3        1 RUN     -0.128600
     26 CA         -1.5360    1.3120   -5.8750 c3        1 RUN     -0.033100
     27 C1A        -0.5560    2.1970   -5.1860 ca        1 RUN     -0.129300
     28 C2A         0.8070    2.1210   -5.4970 ca        1 RUN     -0.135500
     29 C3A         1.7180    2.9770   -4.8800 ca        1 RUN     -0.112500
     30 C4A         1.2740    3.9180   -3.9500 ca        1 RUN     -0.106000
     31 C5A        -0.0840    4.0030   -3.6420 ca        1 RUN     -0.112500
     32 C6A        -0.9970    3.1480   -4.2580 ca        1 RUN     -0.135500
     33 CB         -2.3390   -4.6830   -5.6610 c3        1 RUN     -0.059100
     34 C1B        -3.4270   -5.6940   -5.5890 ca        1 RUN     -0.168300
     35 C2B        -3.4060   -6.8120   -6.4360 ca        1 RUN     -0.135500
     36 C3B        -4.3940   -7.7890   -6.3300 ca        1 RUN     -0.114000
     37 C4B        -5.4090   -7.6570   -5.3800 ca        1 RUN     -0.096000
     38 C5B        -5.4330   -6.5470   -4.5350 ca        1 RUN     -0.114000
     39 C6B        -4.4440   -5.5680   -4.6370 ca        1 RUN     -0.135500
     40 OC         -6.9630   -3.5360  -11.6860 os        1 RUN     -0.390900
     41 CC         -8.1160   -4.4870  -11.6750 c3        1 RUN      0.228700
     42 C1C        -9.2080   -3.9450  -10.8480 ca        1 RUN     -0.205300
     43 C2C       -10.0490   -2.9480  -11.3640 ca        1 RUN     -0.087000
     44 C3C       -11.1250   -2.4850  -10.6110 ca        1 RUN     -0.128500
     45 C4C       -11.3720   -3.0160   -9.3430 ca        1 RUN     -0.067000
     46 C5C       -10.5370   -4.0100   -8.8260 ca        1 RUN     -0.128500
     47 C6C        -9.4570   -4.4730   -9.5730 ca        1 RUN     -0.087000
     48 H2'        -3.2180   -1.6780    0.0020 hc        1 RUN      0.052700
     49 H3'1       -2.2280   -1.6940    2.3090 hc        1 RUN      0.052533
     50 H3'2       -0.9520   -1.7360    1.0200 hc        1 RUN      0.052533
     51 H3'3       -1.2860   -0.1920    1.9150 hc        1 RUN      0.052533
     52 H4'1       -4.7320    0.2660    0.3520 hc        1 RUN      0.052533
     53 H4'2       -3.5510    1.0050    1.5160 hc        1 RUN      0.052533
     54 H4'3       -4.3760   -0.5580    1.9290 hc        1 RUN      0.052533
     55 H1         -0.2030   -0.3760   -5.5720 hc        1 RUN      0.076700
     56 H21        -1.6520   -0.5930   -7.6710 hc        1 RUN      0.059200
     57 H22        -3.0760   -0.9140   -6.6010 hc        1 RUN      0.059200
     58 H3         -0.8750   -2.6600   -5.7220 h1        1 RUN      0.115700
     59 HO3         0.0930   -2.6770   -7.6700 ho        1 RUN      0.459000
     60 H4         -3.5940   -2.9120   -5.9350 hx        1 RUN      0.154700
     61 HN5        -2.5060   -4.1940   -8.3960 hn        1 RUN      0.487800
     62 H7         -3.4810   -3.7200  -10.4670 hx        1 RUN      0.136700
     63 HN8        -4.9370   -2.1760  -11.7230 hn        1 RUN      0.493800
     64 H10        -1.9110   -1.9060   -9.6020 hc        1 RUN      0.121700
     65 H111       -3.0370   -1.4300  -12.4660 hc        1 RUN      0.071200
     66 H112       -1.3790   -1.0750  -11.8510 hc        1 RUN      0.071200
     67 H113       -1.9350   -2.7920  -11.9730 hc        1 RUN      0.071200
     68 H121       -3.7620   -0.2180   -8.9950 hc        1 RUN      0.071200
     69 H122       -3.9560    0.1220  -10.7770 hc        1 RUN      0.071200
     70 H123       -2.3810    0.4410   -9.9630 hc        1 RUN      0.071200
     71 HA1        -1.4340    1.4760   -6.9830 hc        1 RUN      0.056700
     72 HA2        -2.5840    1.5950   -5.5920 hc        1 RUN      0.056700
     73 H2A         1.1620    1.3910   -6.2390 ha        1 RUN      0.129500
     74 H3A         2.7880    2.9130   -5.1300 ha        1 RUN      0.151500
     75 H4A         1.9940    4.5950   -3.4630 ha        1 RUN      0.155000
     76 H5A        -0.4380    4.7480   -2.9110 ha        1 RUN      0.151500
     77 H6A        -2.0680    3.2330   -4.0200 ha        1 RUN      0.129500
     78 HB1        -1.4050   -5.1310   -6.0930 hc        1 RUN      0.104200
     79 HB2        -2.0930   -4.3130   -4.6240 hc        1 RUN      0.104200
     80 H2B        -2.5770   -6.9520   -7.1460 ha        1 RUN      0.139500
     81 H3B        -4.3610   -8.6780   -6.9800 ha        1 RUN      0.158500
     82 H4B        -6.1790   -8.4400   -5.2850 ha        1 RUN      0.162000
     83 H5B        -6.2220   -6.4520   -3.7720 ha        1 RUN      0.158500
     84 H6B        -4.4510   -4.7050   -3.9520 ha        1 RUN      0.139500
     85 HC1        -7.7380   -5.4820  -11.3260 h1        1 RUN      0.109700
     86 HC2        -8.3500   -4.4860  -12.7780 h1        1 RUN      0.109700
     87 H2C        -9.8680   -2.5420  -12.3720 ha        1 RUN      0.141000
     88 H3C       -11.7910   -1.7090  -11.0230 ha        1 RUN      0.161000
     89 H4C       -12.2330   -2.6590   -8.7540 ha        1 RUN      0.164000
     90 H5C       -10.7420   -4.4370   -7.8310 ha        1 RUN      0.161000
     91 H6C        -8.8120   -5.2700   -9.1710 ha        1 RUN      0.141000
     92 HN1        -1.0730    1.0650   -3.0230 hn        1 RUN      0.342700
     93 H52        -3.9220   -4.7130   -7.6410 hn        1 RUN      0.487800
     94 H82        -5.5950   -1.6160  -10.2900 hn        1 RUN      0.493800
     95 H4'        -3.4360   -2.3230   -2.0340 h4        1 RUN      0.050100
@<TRIPOS>BOND
     1    1    2 2   
     2    1    3 1   
     3    1   10 1   
     4    3    4 1   
     5    3    5 1   
     6    3   48 1   
     7    4   49 1   
     8    4   50 1   
     9    4   51 1   
    10    5   52 1   
    11    5   53 1   
    12    5   54 1   
    13    6    7 1   
    14    6   10 1   
    15    6   92 1   
    16    7    8 2   
    17    7   11 1   
    18    8    9 1   
    19    9   10 2   
    20    9   95 1   
    21   11   12 1   
    22   11   26 1   
    23   11   55 1   
    24   12   13 1   
    25   12   56 1   
    26   12   57 1   
    27   13   14 1   
    28   13   15 1   
    29   13   58 1   
    30   14   59 1   
    31   15   16 1   
    32   15   33 1   
    33   15   60 1   
    34   16   17 1   
    35   16   61 1   
    36   16   93 1   
    37   17   18 2   
    38   17   19 1   
    39   19   20 1   
    40   19   23 1   
    41   19   62 1   
    42   20   21 1   
    43   20   63 1   
    44   20   94 1   
    45   21   22 2   
    46   21   40 1   
    47   23   24 1   
    48   23   25 1   
    49   23   64 1   
    50   24   65 1   
    51   24   66 1   
    52   24   67 1   
    53   25   68 1   
    54   25   69 1   
    55   25   70 1   
    56   26   27 1   
    57   26   71 1   
    58   26   72 1   
    59   27   28 ar  
    60   27   32 ar  
    61   28   29 ar  
    62   28   73 1   
    63   29   30 ar  
    64   29   74 1   
    65   30   31 ar  
    66   30   75 1   
    67   31   32 ar  
    68   31   76 1   
    69   32   77 1   
    70   33   34 1   
    71   33   78 1   
    72   33   79 1   
    73   34   35 ar  
    74   34   39 ar  
    75   35   36 ar  
    76   35   80 1   
    77   36   37 ar  
    78   36   81 1   
    79   37   38 ar  
    80   37   82 1   
    81   38   39 ar  
    82   38   83 1   
    83   39   84 1   
    84   40   41 1   
    85   41   42 1   
    86   41   85 1   
    87   41   86 1   
    88   42   43 ar  
    89   42   47 ar  
    90   43   44 ar  
    91   43   87 1   
    92   44   45 ar  
    93   44   88 1   
    94   45   46 ar  
    95   45   89 1   
    96   46   47 ar  
    97   46   90 1   
    98   47   91 1   
@<TRIPOS>SUBSTRUCTURE
     1 RUN         1 TEMP              0 ****  ****    0 ROOT
