@<TRIPOS>MOLECULE
RUP
   73    77     1     0     0
SMALL
bcc


@<TRIPOS>ATOM
      1 C1         -3.4290    0.9580    5.0340 c3        1 RUP     -0.059033
      2 C6         -2.5780    1.5490    3.9180 c3        1 RUP     -0.084400
      3 C9         -1.9670    0.4150    3.0510 c3        1 RUP      0.124400
      4 N10        -1.1700    1.0150    1.9770 n         1 RUP     -0.537900
      5 C12        -0.4010    0.2190    1.1150 c         1 RUP      0.745100
      6 O17        -0.5840   -1.0170    0.9990 o         1 RUP     -0.642100
      7 N13         0.6200    0.8560    0.3580 n         1 RUP     -0.529900
      8 C14         1.1580    0.1440   -0.7790 c3        1 RUP      0.028700
      9 C26         0.4130    0.5280   -2.0880 c         1 RUP      0.624100
     10 O31         0.2280    1.7300   -2.3710 o         1 RUP     -0.621100
     11 N27        -0.0170   -0.4930   -2.8970 n         1 RUP     -0.560900
     12 C28        -0.7000   -0.2720   -4.1420 c3        1 RUP      0.089000
     13 C29         0.0840   -0.7510   -5.3720 c3        1 RUP     -0.057100
     14 C30        -0.6930   -0.4860   -6.6120 ca        1 RUP     -0.083300
     15 C36        -0.8340    0.8240   -7.0870 ca        1 RUP     -0.125500
     16 C35        -1.5510    1.0750   -8.2550 ca        1 RUP     -0.128000
     17 C34        -2.1330    0.0200   -8.9590 ca        1 RUP     -0.129000
     18 C33        -1.9960   -1.2860   -8.4920 ca        1 RUP     -0.128000
     19 C32        -1.2790   -1.5400   -7.3230 ca        1 RUP     -0.125500
     20 C15         2.6430    0.4750   -1.0300 c3        1 RUP     -0.035100
     21 C16         3.5220   -0.0400    0.0520 ca        1 RUP     -0.079300
     22 C22         4.1140   -1.3040   -0.0600 ca        1 RUP     -0.113000
     23 C21         4.9500   -1.7820    0.9470 ca        1 RUP     -0.134000
     24 C20         5.2020   -1.0060    2.0790 ca        1 RUP     -0.094000
     25 C19         4.6140    0.2560    2.1970 ca        1 RUP     -0.198900
     26 C23         4.8810    1.1160    3.3940 ce        1 RUP      0.640800
     27 N25         4.7530    0.4470    4.6300 nh        1 RUP     -0.894800
     28 N24         5.2580    2.3600    3.3310 n2        1 RUP     -0.838100
     29 C18         3.7800    0.7400    1.1840 ca        1 RUP     -0.094000
     30 C8         -3.1300   -0.4280    2.4740 c3        1 RUP     -0.084400
     31 C11        -1.1200   -0.4920    3.9780 c3        1 RUP     -0.084400
     32 C4         -1.9840   -1.0640    5.0930 c3        1 RUP     -0.059033
     33 C5         -2.5680    0.0710    5.9250 c3        1 RUP     -0.072400
     34 C3         -3.1140   -1.8910    4.4920 c3        1 RUP     -0.072400
     35 C2         -4.5630    0.1340    4.4350 c3        1 RUP     -0.072400
     36 C7         -3.9750   -1.0000    3.6040 c3        1 RUP     -0.059033
     37 H1         -3.8590    1.7970    5.6440 hc        1 RUP      0.051367
     38 H61        -1.7600    2.1700    4.3670 hc        1 RUP      0.054033
     39 H62        -3.2120    2.2140    3.2770 hc        1 RUP      0.054033
     40 H10        -0.8170    1.9210    2.1960 hn        1 RUP      0.297500
     41 H13         0.5260    1.8380    0.1990 hn        1 RUP      0.304500
     42 H14         1.0670   -0.9650   -0.5730 h1        1 RUP      0.105700
     43 H27         0.1260   -1.4320   -2.6140 hn        1 RUP      0.316500
     44 H281       -1.6870   -0.8190   -4.1100 h1        1 RUP      0.067200
     45 H282       -0.9130    0.8310   -4.2530 h1        1 RUP      0.067200
     46 H291        1.0680   -0.2120   -5.4280 hc        1 RUP      0.051700
     47 H292        0.3070   -1.8470   -5.2800 hc        1 RUP      0.051700
     48 H36        -0.3740    1.6560   -6.5320 ha        1 RUP      0.133500
     49 H35        -1.6580    2.1060   -8.6210 ha        1 RUP      0.132000
     50 H34        -2.6990    0.2190   -9.8810 ha        1 RUP      0.132000
     51 H33        -2.4530   -2.1190   -9.0450 ha        1 RUP      0.132000
     52 H32        -1.1730   -2.5730   -6.9600 ha        1 RUP      0.133500
     53 H151        2.7680    1.5860   -1.1400 hc        1 RUP      0.065700
     54 H152        2.9290    0.0070   -2.0100 hc        1 RUP      0.065700
     55 H22         3.9180   -1.9230   -0.9490 ha        1 RUP      0.132000
     56 H21         5.4130   -2.7750    0.8510 ha        1 RUP      0.137000
     57 H20         5.8650   -1.3840    2.8720 ha        1 RUP      0.149000
     58 H251        4.7590    1.0320    5.4370 hn        1 RUP      0.398800
     59 H252        4.0240   -0.2310    4.6350 hn        1 RUP      0.398800
     60 H24         5.4110    2.6920    2.4040 hn        1 RUP      0.394400
     61 H18         3.3140    1.7330    1.2770 ha        1 RUP      0.140000
     62 H81        -3.7680    0.2130    1.8140 hc        1 RUP      0.054033
     63 H82        -2.7110   -1.2640    1.8540 hc        1 RUP      0.054033
     64 H111       -0.6800   -1.3280    3.3740 hc        1 RUP      0.054033
     65 H112       -0.2800    0.1020    4.4230 hc        1 RUP      0.054033
     66 H4         -1.3490   -1.7190    5.7480 hc        1 RUP      0.051367
     67 H51        -1.7430    0.6750    6.3810 hc        1 RUP      0.043200
     68 H52        -3.1900   -0.3480    6.7570 hc        1 RUP      0.043200
     69 H31        -2.6880   -2.7320    3.8870 hc        1 RUP      0.043200
     70 H32A       -3.7390   -2.3320    5.3090 hc        1 RUP      0.043200
     71 H21A       -5.2020   -0.2840    5.2540 hc        1 RUP      0.043200
     72 H22A       -5.2070    0.7840    3.7900 hc        1 RUP      0.043200
     73 H7         -4.8090   -1.6090    3.1610 hc        1 RUP      0.051367
@<TRIPOS>BOND
     1    1    2 1   
     2    1   33 1   
     3    1   35 1   
     4    1   37 1   
     5    2    3 1   
     6    2   38 1   
     7    2   39 1   
     8    3    4 1   
     9    3   30 1   
    10    3   31 1   
    11    4    5 1   
    12    4   40 1   
    13    5    6 2   
    14    5    7 1   
    15    7    8 1   
    16    7   41 1   
    17    8    9 1   
    18    8   20 1   
    19    8   42 1   
    20    9   10 2   
    21    9   11 1   
    22   11   12 1   
    23   11   43 1   
    24   12   13 1   
    25   12   44 1   
    26   12   45 1   
    27   13   14 1   
    28   13   46 1   
    29   13   47 1   
    30   14   15 ar  
    31   14   19 ar  
    32   15   16 ar  
    33   15   48 1   
    34   16   17 ar  
    35   16   49 1   
    36   17   18 ar  
    37   17   50 1   
    38   18   19 ar  
    39   18   51 1   
    40   19   52 1   
    41   20   21 1   
    42   20   53 1   
    43   20   54 1   
    44   21   22 ar  
    45   21   29 ar  
    46   22   23 ar  
    47   22   55 1   
    48   23   24 ar  
    49   23   56 1   
    50   24   25 ar  
    51   24   57 1   
    52   25   26 1   
    53   25   29 ar  
    54   26   27 1   
    55   26   28 2   
    56   27   58 1   
    57   27   59 1   
    58   28   60 1   
    59   29   61 1   
    60   30   36 1   
    61   30   62 1   
    62   30   63 1   
    63   31   32 1   
    64   31   64 1   
    65   31   65 1   
    66   32   33 1   
    67   32   34 1   
    68   32   66 1   
    69   33   67 1   
    70   33   68 1   
    71   34   36 1   
    72   34   69 1   
    73   34   70 1   
    74   35   36 1   
    75   35   71 1   
    76   35   72 1   
    77   36   73 1   
@<TRIPOS>SUBSTRUCTURE
     1 RUP         1 TEMP              0 ****  ****    0 ROOT
