@<TRIPOS>MOLECULE
RUP
   77    81     1     0     0
SMALL
bcc


@<TRIPOS>ATOM
      1 C1         -0.2220   -2.0130   -0.3320 c3        1 RUP     -0.048700
      2 C6          1.2740   -2.2770   -0.0830 c3        1 RUP     -0.113067
      3 C9          1.5900   -1.7450    1.3210 c3        1 RUP      0.199200
      4 N10         3.1630   -2.0390    1.5630 ny        1 RUP     -0.683800
      5 C12         3.7170   -1.3530    2.7330 c         1 RUP      0.514100
      6 O17         3.5400   -1.7180    3.8840 o         1 RUP     -0.328100
      7 N13         4.5290   -0.0780    2.5330 ny        1 RUP     -0.673800
      8 C14         5.4910    0.2190    3.6790 c3        1 RUP      0.063500
      9 C26         6.6190   -0.8390    3.7060 c         1 RUP      0.506100
     10 O31         6.8190   -1.5900    2.7570 o         1 RUP     -0.398100
     11 N27         7.4600   -0.9530    4.9160 ny        1 RUP     -0.659800
     12 C28         8.9550   -1.0010    4.6010 c3        1 RUP      0.112800
     13 C29         9.7810   -1.3200    5.8510 c3        1 RUP     -0.035100
     14 C30        11.2030   -1.3850    5.4200 ca        1 RUP     -0.170300
     15 C36        12.0210   -0.2510    5.5180 ca        1 RUP     -0.110000
     16 C35        13.3710   -0.3370    5.1890 ca        1 RUP     -0.108000
     17 C34        13.9120   -1.5510    4.7550 ca        1 RUP     -0.061000
     18 C33        13.0980   -2.6810    4.6520 ca        1 RUP     -0.108000
     19 C32        11.7460   -2.6010    4.9810 ca        1 RUP     -0.110000
     20 C15         6.0940    1.6300    3.5270 c3        1 RUP     -0.057100
     21 C16         5.3050    2.7490    4.1230 ca        1 RUP     -0.148300
     22 C22         3.9780    2.6330    4.5520 ca        1 RUP     -0.125000
     23 C21         3.3160    3.7230    5.1160 ca        1 RUP     -0.074000
     24 C20         3.9690    4.9500    5.2610 ca        1 RUP     -0.057000
     25 C19         5.2920    5.0810    4.8270 ca        1 RUP     -0.200900
     26 C23         6.0370    6.3480    5.0690 ce        1 RUP      0.555800
     27 N25         5.4610    7.5420    4.3650 nz        1 RUP     -0.816600
     28 N24         7.0640    6.5680    5.7930 n2        1 RUP     -0.650100
     29 C18         5.9570    3.9870    4.2560 ca        1 RUP     -0.068000
     30 C8          0.7880   -2.5000    2.3810 c3        1 RUP     -0.113067
     31 C11         1.3510   -0.2420    1.4030 c3        1 RUP     -0.113067
     32 C4         -0.1480   -0.0020    1.1340 c3        1 RUP     -0.048700
     33 C5         -0.4920   -0.5180   -0.2580 c3        1 RUP     -0.099400
     34 C3         -0.9720   -0.7360    2.1830 c3        1 RUP     -0.099400
     35 C2         -1.0500   -2.7510    0.7110 c3        1 RUP     -0.099400
     36 C7         -0.7010   -2.2310    2.0990 c3        1 RUP     -0.048700
     37 H1         -0.4690   -2.3990   -1.3630 hc        1 RUP      0.118700
     38 H61         1.8730   -1.7480   -0.8680 hc        1 RUP      0.067867
     39 H62         1.4630   -3.3810   -0.1530 hc        1 RUP      0.067867
     40 H10         3.2250   -3.0630    1.7400 hn        1 RUP      0.498300
     41 H13         5.0750   -0.1250    1.6570 hn        1 RUP      0.501300
     42 H14         4.8910    0.1480    4.6430 hx        1 RUP      0.173700
     43 H27         7.2800   -0.1820    5.5700 hn        1 RUP      0.484800
     44 H281        9.2420    0.0030    4.1810 hx        1 RUP      0.121700
     45 H282        9.1110   -1.8030    3.8200 hx        1 RUP      0.121700
     46 H291        9.4690   -2.3050    6.2930 hc        1 RUP      0.081700
     47 H292        9.6450   -0.5230    6.6300 hc        1 RUP      0.081700
     48 H36        11.6100    0.6990    5.8870 ha        1 RUP      0.127500
     49 H35        14.0200    0.5490    5.2860 ha        1 RUP      0.171500
     50 H34        14.9860   -1.6190    4.5050 ha        1 RUP      0.179000
     51 H33        13.5290   -3.6420    4.3240 ha        1 RUP      0.171500
     52 H32        11.1180   -3.5030    4.9230 ha        1 RUP      0.127500
     53 H151        7.1080    1.6190    4.0240 hc        1 RUP      0.108700
     54 H152        6.2930    1.8610    2.4400 hc        1 RUP      0.108700
     55 H22         3.4300    1.6820    4.4800 ha        1 RUP      0.108000
     56 H21         2.2720    3.6180    5.4670 ha        1 RUP      0.197000
     57 H20         3.4360    5.7890    5.7450 ha        1 RUP      0.185000
     58 H251        5.9640    8.4110    4.6270 hn        1 RUP      0.486467
     59 H252        5.5390    7.4110    3.3500 hn        1 RUP      0.486467
     60 H24         7.4920    5.8300    6.3130 hn        1 RUP      0.495400
     61 H18         7.0010    4.0980    3.9150 ha        1 RUP      0.165000
     62 H81         0.9700   -3.6060    2.3200 hc        1 RUP      0.067867
     63 H82         1.0430   -2.1450    3.4130 hc        1 RUP      0.067867
     64 H111        1.9470    0.3110    0.6320 hc        1 RUP      0.067867
     65 H112        1.6030    0.1470    2.4250 hc        1 RUP      0.067867
     66 H4         -0.3440    1.1030    1.1920 hc        1 RUP      0.118700
     67 H51        -1.5800   -0.3240   -0.4680 hc        1 RUP      0.093533
     68 H52         0.0990    0.0280   -1.0380 hc        1 RUP      0.093533
     69 H31        -2.0640   -0.5440    2.0000 hc        1 RUP      0.093533
     70 H32A       -0.7340   -0.3530    3.2080 hc        1 RUP      0.093533
     71 H21A       -2.1430   -2.5830    0.5100 hc        1 RUP      0.093533
     72 H22A       -0.8690   -3.8550    0.6470 hc        1 RUP      0.093533
     73 H7         -1.3050   -2.7780    2.8770 hc        1 RUP      0.118700
     74 H102        3.6570   -1.8230    0.6890 hn        1 RUP      0.498300
     75 H132        3.8660    0.7210    2.4680 hn        1 RUP      0.501300
     76 H272        7.2300   -1.8430    5.3970 hn        1 RUP      0.484800
     77 H253        4.4730    7.6430    4.6250 hn        1 RUP      0.486467
@<TRIPOS>BOND
     1    1    2 1   
     2    1   33 1   
     3    1   35 1   
     4    1   37 1   
     5    2    3 1   
     6    2   38 1   
     7    2   39 1   
     8    3    4 1   
     9    3   30 1   
    10    3   31 1   
    11    4    5 1   
    12    4   40 1   
    13    4   74 1   
    14    5    6 2   
    15    5    7 1   
    16    7    8 1   
    17    7   41 1   
    18    7   75 1   
    19    8    9 1   
    20    8   20 1   
    21    8   42 1   
    22    9   10 2   
    23    9   11 1   
    24   11   12 1   
    25   11   43 1   
    26   11   76 1   
    27   12   13 1   
    28   12   44 1   
    29   12   45 1   
    30   13   14 1   
    31   13   46 1   
    32   13   47 1   
    33   14   15 ar  
    34   14   19 ar  
    35   15   16 ar  
    36   15   48 1   
    37   16   17 ar  
    38   16   49 1   
    39   17   18 ar  
    40   17   50 1   
    41   18   19 ar  
    42   18   51 1   
    43   19   52 1   
    44   20   21 1   
    45   20   53 1   
    46   20   54 1   
    47   21   22 ar  
    48   21   29 ar  
    49   22   23 ar  
    50   22   55 1   
    51   23   24 ar  
    52   23   56 1   
    53   24   25 ar  
    54   24   57 1   
    55   25   26 1   
    56   25   29 ar  
    57   26   27 1   
    58   26   28 2   
    59   27   58 1   
    60   27   59 1   
    61   27   77 1   
    62   28   60 1   
    63   29   61 1   
    64   30   36 1   
    65   30   62 1   
    66   30   63 1   
    67   31   32 1   
    68   31   64 1   
    69   31   65 1   
    70   32   33 1   
    71   32   34 1   
    72   32   66 1   
    73   33   67 1   
    74   33   68 1   
    75   34   36 1   
    76   34   69 1   
    77   34   70 1   
    78   35   36 1   
    79   35   71 1   
    80   35   72 1   
    81   36   73 1   
@<TRIPOS>SUBSTRUCTURE
     1 RUP         1 TEMP              0 ****  ****    0 ROOT
