@<TRIPOS>MOLECULE
RUP
   77    81     1     0     0
SMALL
bcc


@<TRIPOS>ATOM
      1 C1          1.0980   -2.3420   -0.5050 c3        1 RUP     -0.049367
      2 C6          2.5100   -2.3110    0.1060 c3        1 RUP     -0.111400
      3 C9          2.3990   -1.5810    1.4520 c3        1 RUP      0.193200
      4 N10         3.8860   -1.5700    2.0710 n4        1 RUP     -0.678800
      5 C12         4.0290   -0.7460    3.2730 c         1 RUP      0.504100
      6 O17         3.7880   -1.1310    4.4060 o         1 RUP     -0.303100
      7 N13         4.4640    0.7100    3.1380 n4        1 RUP     -0.668800
      8 C14         5.8140    0.9890    3.7720 c3        1 RUP      0.056500
      9 C26         6.9370    0.2980    2.9690 c         1 RUP      0.524100
     10 O31         6.6680   -0.4390    2.0200 o         1 RUP     -0.455100
     11 N27         8.3450    0.4620    3.3700 n4        1 RUP     -0.660800
     12 C28         8.9590   -0.8220    3.9370 c3        1 RUP      0.113800
     13 C29        10.4500   -0.6400    4.2410 c3        1 RUP     -0.034100
     14 C30        10.9390   -1.9470    4.7530 ca        1 RUP     -0.174300
     15 C36        11.5020   -2.8790    3.8680 ca        1 RUP     -0.109000
     16 C35        12.0430   -4.0650    4.3600 ca        1 RUP     -0.109000
     17 C34        12.0230   -4.3300    5.7320 ca        1 RUP     -0.058000
     18 C33        11.4560   -3.4050    6.6140 ca        1 RUP     -0.109000
     19 C32        10.9140   -2.2180    6.1280 ca        1 RUP     -0.109000
     20 C15         6.0530    2.5060    3.8960 c3        1 RUP     -0.057100
     21 C16         5.0090    3.2630    4.6490 ca        1 RUP     -0.173300
     22 C22         4.2760    2.6920    5.7000 ca        1 RUP     -0.135000
     23 C21         3.4000    3.4680    6.4550 ca        1 RUP     -0.074000
     24 C20         3.2570    4.8340    6.1890 ca        1 RUP     -0.054000
     25 C19         4.0000    5.4180    5.1590 ca        1 RUP     -0.204900
     26 C23         3.8340    6.8640    4.8430 ce        1 RUP      0.556800
     27 N25         4.2240    7.7790    5.9670 n4        1 RUP     -0.816600
     28 N24         3.4030    7.4300    3.7840 n2        1 RUP     -0.650100
     29 C18         4.8650    4.6340    4.3810 ca        1 RUP     -0.063000
     30 C8          1.4780   -2.3440    2.4060 c3        1 RUP     -0.111400
     31 C11         1.9300   -0.1430    1.2560 c3        1 RUP     -0.111400
     32 C4          0.5240   -0.2000    0.6260 c3        1 RUP     -0.049367
     33 C5          0.6050   -0.9180   -0.7150 c3        1 RUP     -0.098400
     34 C3         -0.4160   -0.9470    1.5640 c3        1 RUP     -0.098400
     35 C2          0.1570   -3.0930    0.4250 c3        1 RUP     -0.098400
     36 C7          0.0810   -2.3720    1.7640 c3        1 RUP     -0.049367
     37 H1          1.1660   -2.8760   -1.4960 hc        1 RUP      0.118367
     38 H61         2.8680   -3.3650    0.2430 hc        1 RUP      0.065700
     39 H62         3.2000   -1.7730   -0.5960 hc        1 RUP      0.065700
     40 H10         4.0740   -2.5560    2.3450 hn        1 RUP      0.497800
     41 H13         3.7700    1.2920    3.6590 hn        1 RUP      0.503800
     42 H14         5.7910    0.5230    4.8140 hx        1 RUP      0.175700
     43 H27         8.4570    1.2130    4.0630 hn        1 RUP      0.490300
     44 H281        8.3980   -1.0790    4.8780 hx        1 RUP      0.115700
     45 H282        8.8180   -1.6280    3.1610 hx        1 RUP      0.115700
     46 H291       11.0130   -0.3520    3.3120 hc        1 RUP      0.085700
     47 H292       10.6020    0.1620    5.0120 hc        1 RUP      0.085700
     48 H36        11.5500   -2.6650    2.7900 ha        1 RUP      0.131000
     49 H35        12.5070   -4.7870    3.6670 ha        1 RUP      0.173500
     50 H34        12.4650   -5.2640    6.1210 ha        1 RUP      0.181000
     51 H33        11.4570   -3.6080    7.6980 ha        1 RUP      0.173500
     52 H32        10.5000   -1.4800    6.8320 ha        1 RUP      0.131000
     53 H151        6.1870    2.9540    2.8720 hc        1 RUP      0.108200
     54 H152        7.0210    2.6470    4.4610 hc        1 RUP      0.108200
     55 H22         4.4100    1.6350    5.9840 ha        1 RUP      0.135000
     56 H21         2.8240    3.0100    7.2830 ha        1 RUP      0.203000
     57 H20         2.5480    5.4270    6.7950 ha        1 RUP      0.187000
     58 H251        4.0240    8.7700    5.7320 hn        1 RUP      0.487800
     59 H252        3.6930    7.5270    6.8090 hn        1 RUP      0.487800
     60 H24         3.1070    6.8900    2.9980 hn        1 RUP      0.492400
     61 H18         5.4480    5.1030    3.5700 ha        1 RUP      0.166000
     62 H81         1.4210   -1.8390    3.4040 hc        1 RUP      0.065700
     63 H82         1.8280   -3.4010    2.5500 hc        1 RUP      0.065700
     64 H111        1.8610    0.3930    2.2380 hc        1 RUP      0.065700
     65 H112        2.6110    0.4190    0.5660 hc        1 RUP      0.065700
     66 H4          0.1620    0.8530    0.4760 hc        1 RUP      0.118367
     67 H51        -0.4150   -0.9410   -1.1870 hc        1 RUP      0.093033
     68 H52         1.2830   -0.3660   -1.4160 hc        1 RUP      0.093033
     69 H31        -1.4470   -0.9710    1.1160 hc        1 RUP      0.093033
     70 H32A       -0.4930   -0.4170    2.5470 hc        1 RUP      0.093033
     71 H21A        0.5040   -4.1490    0.5680 hc        1 RUP      0.093033
     72 H22A       -0.8680   -3.1410   -0.0350 hc        1 RUP      0.093033
     73 H7         -0.6100   -2.9260    2.4600 hc        1 RUP      0.118367
     74 H102        4.5440   -1.3020    1.3260 hn        1 RUP      0.497800
     75 H132        4.4650    1.0150    2.1530 hn        1 RUP      0.503800
     76 H272        8.9060    0.7080    2.5300 hn        1 RUP      0.490300
     77 H253        5.2290    7.6830    6.1530 hn        1 RUP      0.487800
@<TRIPOS>BOND
     1    1    2 1   
     2    1   33 1   
     3    1   35 1   
     4    1   37 1   
     5    2    3 1   
     6    2   38 1   
     7    2   39 1   
     8    3    4 1   
     9    3   30 1   
    10    3   31 1   
    11    4    5 1   
    12    4   40 1   
    13    4   74 1   
    14    5    6 2   
    15    5    7 1   
    16    7    8 1   
    17    7   41 1   
    18    7   75 1   
    19    8    9 1   
    20    8   20 1   
    21    8   42 1   
    22    9   10 2   
    23    9   11 1   
    24   11   12 1   
    25   11   43 1   
    26   11   76 1   
    27   12   13 1   
    28   12   44 1   
    29   12   45 1   
    30   13   14 1   
    31   13   46 1   
    32   13   47 1   
    33   14   15 ar  
    34   14   19 ar  
    35   15   16 ar  
    36   15   48 1   
    37   16   17 ar  
    38   16   49 1   
    39   17   18 ar  
    40   17   50 1   
    41   18   19 ar  
    42   18   51 1   
    43   19   52 1   
    44   20   21 1   
    45   20   53 1   
    46   20   54 1   
    47   21   22 ar  
    48   21   29 ar  
    49   22   23 ar  
    50   22   55 1   
    51   23   24 ar  
    52   23   56 1   
    53   24   25 ar  
    54   24   57 1   
    55   25   26 1   
    56   25   29 ar  
    57   26   27 1   
    58   26   28 2   
    59   27   58 1   
    60   27   59 1   
    61   27   77 1   
    62   28   60 1   
    63   29   61 1   
    64   30   36 1   
    65   30   62 1   
    66   30   63 1   
    67   31   32 1   
    68   31   64 1   
    69   31   65 1   
    70   32   33 1   
    71   32   34 1   
    72   32   66 1   
    73   33   67 1   
    74   33   68 1   
    75   34   36 1   
    76   34   69 1   
    77   34   70 1   
    78   35   36 1   
    79   35   71 1   
    80   35   72 1   
    81   36   73 1   
@<TRIPOS>SUBSTRUCTURE
     1 RUP         1 TEMP              0 ****  ****    0 ROOT
