@<TRIPOS>MOLECULE
RUP
   77    81     1     0     0
SMALL
bcc


@<TRIPOS>ATOM
      1 C1          1.0910   -2.3610   -0.4970 c3        1 RUP     -0.049367
      2 C6          2.5070   -2.3220    0.1050 c3        1 RUP     -0.111400
      3 C9          2.4010   -1.5960    1.4540 c3        1 RUP      0.193200
      4 N10         3.8920   -1.5780    2.0630 n4        1 RUP     -0.678800
      5 C12         4.0390   -0.7520    3.2630 c         1 RUP      0.504100
      6 O17         3.8050   -1.1360    4.3970 o         1 RUP     -0.303100
      7 N13         4.4680    0.7050    3.1230 n4        1 RUP     -0.668800
      8 C14         5.8200    0.9890    3.7520 c3        1 RUP      0.057500
      9 C26         6.9410    0.2990    2.9460 c         1 RUP      0.524100
     10 O31         6.6700   -0.4420    2.0000 o         1 RUP     -0.455100
     11 N27         8.3500    0.4680    3.3400 n4        1 RUP     -0.661800
     12 C28         8.9610   -0.8030    3.9360 c3        1 RUP      0.113800
     13 C29        10.4530   -0.6180    4.2370 c3        1 RUP     -0.034100
     14 C30        10.9390   -1.9150    4.7770 ca        1 RUP     -0.174300
     15 C36        11.5020   -2.8660    3.9140 ca        1 RUP     -0.109000
     16 C35        12.0410   -4.0420    4.4330 ca        1 RUP     -0.109000
     17 C34        12.0170   -4.2770    5.8100 ca        1 RUP     -0.058000
     18 C33        11.4510   -3.3320    6.6700 ca        1 RUP     -0.109000
     19 C32        10.9110   -2.1550    6.1580 ca        1 RUP     -0.109000
     20 C15         6.0550    2.5070    3.8710 c3        1 RUP     -0.057100
     21 C16         5.0110    3.2640    4.6240 ca        1 RUP     -0.173300
     22 C22         4.2830    2.6940    5.6790 ca        1 RUP     -0.135000
     23 C21         3.4070    3.4700    6.4340 ca        1 RUP     -0.074000
     24 C20         3.2590    4.8350    6.1640 ca        1 RUP     -0.054000
     25 C19         3.9970    5.4180    5.1290 ca        1 RUP     -0.204900
     26 C23         3.8250    6.8620    4.8080 ce        1 RUP      0.556800
     27 N25         4.2160    7.7820    5.9280 n4        1 RUP     -0.816600
     28 N24         3.3890    7.4230    3.7490 n2        1 RUP     -0.650100
     29 C18         4.8620    4.6330    4.3520 ca        1 RUP     -0.063000
     30 C8          1.4920   -2.3680    2.4120 c3        1 RUP     -0.111400
     31 C11         1.9210   -0.1610    1.2640 c3        1 RUP     -0.111400
     32 C4          0.5110   -0.2260    0.6440 c3        1 RUP     -0.049367
     33 C5          0.5880   -0.9390   -0.6990 c3        1 RUP     -0.098400
     34 C3         -0.4170   -0.9800    1.5870 c3        1 RUP     -0.098400
     35 C2          0.1610   -3.1200    0.4390 c3        1 RUP     -0.098400
     36 C7          0.0890   -2.4030    1.7800 c3        1 RUP     -0.049367
     37 H1          1.1560   -2.8920   -1.4890 hc        1 RUP      0.118367
     38 H61         2.8720   -3.3740    0.2370 hc        1 RUP      0.066033
     39 H62         3.1880   -1.7790   -0.6000 hc        1 RUP      0.066033
     40 H10         4.5430   -1.3070    1.3130 hn        1 RUP      0.497800
     41 H13         4.4640    1.0090    2.1380 hn        1 RUP      0.503800
     42 H14         5.8020    0.5260    4.7940 hx        1 RUP      0.175700
     43 H27         8.4660    1.2350    4.0150 hn        1 RUP      0.490300
     44 H281        8.8200   -1.6270    3.1780 hx        1 RUP      0.115200
     45 H282        8.4000   -1.0390    4.8830 hx        1 RUP      0.115200
     46 H291       10.6070    0.2000    4.9900 hc        1 RUP      0.085700
     47 H292       11.0170   -0.3530    3.3020 hc        1 RUP      0.085700
     48 H36        11.5530   -2.6760    2.8310 ha        1 RUP      0.131000
     49 H35        12.5050   -4.7800    3.7560 ha        1 RUP      0.173500
     50 H34        12.4580   -5.2030    6.2200 ha        1 RUP      0.181000
     51 H33        11.4490   -3.5120    7.7590 ha        1 RUP      0.173500
     52 H32        10.4960   -1.4030    6.8450 ha        1 RUP      0.131000
     53 H151        7.0240    2.6510    4.4340 hc        1 RUP      0.108200
     54 H152        6.1860    2.9530    2.8450 hc        1 RUP      0.108200
     55 H22         4.4220    1.6390    5.9670 ha        1 RUP      0.136000
     56 H21         2.8350    3.0140    7.2660 ha        1 RUP      0.204000
     57 H20         2.5490    5.4280    6.7700 ha        1 RUP      0.187000
     58 H251        5.2220    7.6890    6.1110 hn        1 RUP      0.487800
     59 H252        3.6880    7.5310    6.7720 hn        1 RUP      0.487800
     60 H24         3.0920    6.8790    2.9660 hn        1 RUP      0.492400
     61 H18         5.4410    5.1010    3.5370 ha        1 RUP      0.166000
     62 H81         1.4390   -1.8660    3.4120 hc        1 RUP      0.066033
     63 H82         1.8480   -3.4230    2.5510 hc        1 RUP      0.066033
     64 H111        1.8560    0.3720    2.2480 hc        1 RUP      0.066033
     65 H112        2.5940    0.4070    0.5710 hc        1 RUP      0.066033
     66 H4          0.1420    0.8260    0.4990 hc        1 RUP      0.118367
     67 H51        -0.4360   -0.9670   -1.1650 hc        1 RUP      0.093033
     68 H52         1.2570   -0.3810   -1.4040 hc        1 RUP      0.093033
     69 H31        -0.4900   -0.4530    2.5720 hc        1 RUP      0.093033
     70 H32A       -1.4510   -1.0100    1.1460 hc        1 RUP      0.093033
     71 H21A        0.5160   -4.1750    0.5760 hc        1 RUP      0.093033
     72 H22A       -0.8670   -3.1740   -0.0150 hc        1 RUP      0.093033
     73 H7         -0.5930   -2.9630    2.4790 hc        1 RUP      0.118367
     74 H102        4.0860   -2.5620    2.3360 hn        1 RUP      0.497800
     75 H132        3.7740    1.2860    3.6460 hn        1 RUP      0.503800
     76 H272        8.9100    0.6930    2.4930 hn        1 RUP      0.490300
     77 H253        4.0130    8.7710    5.6900 hn        1 RUP      0.487800
@<TRIPOS>BOND
     1    1    2 1   
     2    1   33 1   
     3    1   35 1   
     4    1   37 1   
     5    2    3 1   
     6    2   38 1   
     7    2   39 1   
     8    3    4 1   
     9    3   30 1   
    10    3   31 1   
    11    4    5 1   
    12    4   40 1   
    13    4   74 1   
    14    5    6 2   
    15    5    7 1   
    16    7    8 1   
    17    7   41 1   
    18    7   75 1   
    19    8    9 1   
    20    8   20 1   
    21    8   42 1   
    22    9   10 2   
    23    9   11 1   
    24   11   12 1   
    25   11   43 1   
    26   11   76 1   
    27   12   13 1   
    28   12   44 1   
    29   12   45 1   
    30   13   14 1   
    31   13   46 1   
    32   13   47 1   
    33   14   15 ar  
    34   14   19 ar  
    35   15   16 ar  
    36   15   48 1   
    37   16   17 ar  
    38   16   49 1   
    39   17   18 ar  
    40   17   50 1   
    41   18   19 ar  
    42   18   51 1   
    43   19   52 1   
    44   20   21 1   
    45   20   53 1   
    46   20   54 1   
    47   21   22 ar  
    48   21   29 ar  
    49   22   23 ar  
    50   22   55 1   
    51   23   24 ar  
    52   23   56 1   
    53   24   25 ar  
    54   24   57 1   
    55   25   26 1   
    56   25   29 ar  
    57   26   27 1   
    58   26   28 2   
    59   27   58 1   
    60   27   59 1   
    61   27   77 1   
    62   28   60 1   
    63   29   61 1   
    64   30   36 1   
    65   30   62 1   
    66   30   63 1   
    67   31   32 1   
    68   31   64 1   
    69   31   65 1   
    70   32   33 1   
    71   32   34 1   
    72   32   66 1   
    73   33   67 1   
    74   33   68 1   
    75   34   36 1   
    76   34   69 1   
    77   34   70 1   
    78   35   36 1   
    79   35   71 1   
    80   35   72 1   
    81   36   73 1   
@<TRIPOS>SUBSTRUCTURE
     1 RUP         1 TEMP              0 ****  ****    0 ROOT
