@<TRIPOS>MOLECULE
RUS
   32    33     1     0     0
SMALL
bcc


@<TRIPOS>ATOM
      1 P           4.0110   -0.6330   -1.1990 p5        1 RUS      1.335900
      2 N1         -2.3030   -0.1380    0.8390 na        1 RUS     -0.617400
      3 C2         -2.2610    1.2130    0.4530 cc        1 RUS      0.666100
      4 SE2        -0.7070    1.9350    0.2540 sh        1 RUS     -0.042000
      5 N3         -3.3450    1.9460    0.2100 nd        1 RUS     -0.752100
      6 C4         -4.6240    1.3660    0.2990 c         1 RUS      0.697700
      7 O4         -5.6570    2.0470    0.1170 o         1 RUS     -0.628100
      8 C5         -4.6950   -0.0720    0.6140 cc        1 RUS     -0.353200
      9 C6         -3.5450   -0.7550    0.8710 cd        1 RUS      0.099000
     10 C1'        -1.1570   -0.9580    1.2760 c3        1 RUS      0.394300
     11 O1P         3.6310    0.1500   -2.4190 o         1 RUS     -0.928500
     12 C2'        -0.8260   -2.1330    0.2960 c3        1 RUS      0.096100
     13 O2'        -1.2410   -3.3380    0.9030 oh        1 RUS     -0.630800
     14 O2P         3.2380   -1.9290   -1.0310 o         1 RUS     -0.928500
     15 C3'         0.6860   -1.9990    0.0130 c3        1 RUS      0.139100
     16 O3'         1.3430   -3.1570    0.4730 oh        1 RUS     -0.690800
     17 O3P         5.4390   -0.6370   -0.7570 o         1 RUS     -0.928500
     18 C4'         1.1530   -0.7580    0.7930 c3        1 RUS      0.064100
     19 O4'         0.0030   -0.1740    1.4640 os        1 RUS     -0.422600
     20 C5'         1.8380    0.3080   -0.0990 c3        1 RUS      0.251400
     21 O5'         3.1910    0.2720    0.0610 os        1 RUS     -0.549200
     22 H5         -5.6760   -0.5550    0.6270 ha        1 RUS      0.144000
     23 H6         -3.5270   -1.8370    1.1110 h4        1 RUS      0.162000
     24 H1'        -1.4480   -1.3710    2.2910 h2        1 RUS      0.057700
     25 H2'        -1.4130   -2.0580   -0.6580 h1        1 RUS      0.067700
     26 HO2'       -0.4570   -3.7860    1.2500 ho        1 RUS      0.437000
     27 H3'         0.8770   -1.8730   -1.0900 h1        1 RUS      0.118700
     28 HO3'        2.2530   -3.1070    0.0880 ho        1 RUS      0.519000
     29 H4'         1.8530   -1.0560    1.6210 h1        1 RUS      0.087700
     30 H5'         1.5500    0.1530   -1.1770 h1        1 RUS      0.002200
     31 H5'A        1.4370    1.3240    0.2410 h1        1 RUS      0.002200
     32 HSE2       -1.0620    3.1210   -0.2000 hs        1 RUS      0.129800
@<TRIPOS>BOND
     1    1   11 1   
     2    1   14 1   
     3    1   17 1   
     4    1   21 1   
     5    2    3 1   
     6    2    9 1   
     7    2   10 1   
     8    3    4 1   
     9    3    5 2   
    10    4   32 1   
    11    5    6 1   
    12    6    7 2   
    13    6    8 1   
    14    8    9 2   
    15    8   22 1   
    16    9   23 1   
    17   10   12 1   
    18   10   19 1   
    19   10   24 1   
    20   12   13 1   
    21   12   15 1   
    22   12   25 1   
    23   13   26 1   
    24   15   16 1   
    25   15   18 1   
    26   15   27 1   
    27   16   28 1   
    28   18   19 1   
    29   18   20 1   
    30   18   29 1   
    31   20   21 1   
    32   20   30 1   
    33   20   31 1   
@<TRIPOS>SUBSTRUCTURE
     1 RUS         1 TEMP              0 ****  ****    0 ROOT
