@<TRIPOS>MOLECULE
RV1
   29    29     1     0     0
SMALL
bcc


@<TRIPOS>ATOM
      1 C           0.0060   -0.5470   -0.0240 ca        1 RV1      0.330600
      2 N          -0.6690   -0.7600   -1.1670 nv        1 RV1     -0.788200
      3 O           1.5180    0.1460    4.8930 o         1 RV1     -0.446400
      4 S           2.2150    0.1030    3.7270 s4        1 RV1      1.687300
      5 C1          1.4450   -0.6180    0.0190 ca        1 RV1     -0.238500
      6 N1          2.4210    2.5080    3.5340 nt        1 RV1     -0.719000
      7 O1          3.5710   -0.0300    3.7050 o         1 RV1     -0.446400
      8 C2          2.1160   -0.4020    1.1870 ca        1 RV1      0.076000
      9 O2          0.2980    3.3330    3.7270 o         1 RV1     -0.530100
     10 C3          1.4500   -0.1020    2.4170 ca        1 RV1     -0.713500
     11 C4          0.0220   -0.0280    2.3560 ca        1 RV1      0.076000
     12 C5         -0.6780   -0.2380    1.2040 ca        1 RV1     -0.238500
     13 C6          1.4110    3.2360    4.2600 c         1 RV1      0.656100
     14 C7          1.7580    3.7620    5.6010 cx        1 RV1     -0.262700
     15 C8          1.1310    5.0770    6.0250 cx        1 RV1     -0.078900
     16 C9          0.6650    3.8070    6.6510 cx        1 RV1     -0.078900
     17 HN         -0.1890   -0.9750   -2.0110 hn        1 RV1      0.465300
     18 HNA        -1.6630   -0.7100   -1.1880 hn        1 RV1      0.465300
     19 H1          2.0040   -0.8530   -0.9020 ha        1 RV1      0.172500
     20 HN1         2.3350    2.6580    2.5420 hn        1 RV1      0.300500
     21 H2          3.2220   -0.4680    1.1970 ha        1 RV1      0.171000
     22 H4         -0.5270    0.2120    3.2880 ha        1 RV1      0.171000
     23 H5         -1.7790   -0.1690    1.2100 ha        1 RV1      0.172500
     24 H7          2.7910    3.5470    5.9390 hc        1 RV1      0.105700
     25 H8          0.4650    5.5960    5.3100 hc        1 RV1      0.097950
     26 H8A         1.7560    5.7800    6.6060 hc        1 RV1      0.097950
     27 H9          0.9450    3.5710    7.6950 hc        1 RV1      0.097950
     28 H9A        -0.3350    3.4140    6.3850 hc        1 RV1      0.097950
     29 H12         3.3520    2.7340    3.8410 hn        1 RV1      0.300500
@<TRIPOS>BOND
     1    1    2 1   
     2    1    5 ar  
     3    1   12 ar  
     4    2   17 1   
     5    2   18 1   
     6    3    4 1   
     7    4    7 1   
     8    4   10 1   
     9    5    8 ar  
    10    5   19 1   
    11    6   13 1   
    12    6   20 1   
    13    6   29 1   
    14    8   10 ar  
    15    8   21 1   
    16    9   13 2   
    17   10   11 ar  
    18   11   12 ar  
    19   11   22 1   
    20   12   23 1   
    21   13   14 1   
    22   14   15 1   
    23   14   16 1   
    24   14   24 1   
    25   15   16 1   
    26   15   25 1   
    27   15   26 1   
    28   16   27 1   
    29   16   28 1   
@<TRIPOS>SUBSTRUCTURE
     1 RV1         1 TEMP              0 ****  ****    0 ROOT
