@<TRIPOS>MOLECULE
RV1
   29    29     1     0     0
SMALL
bcc


@<TRIPOS>ATOM
      1 C          -0.0180   -0.5600   -0.0060 ca        1 RV1      0.330600
      2 N          -0.7290   -0.7940   -1.1220 nh        1 RV1     -0.788200
      3 O           1.6630    0.1530    4.8540 o         1 RV1     -0.446400
      4 S           2.3120    0.1590    3.6590 s4        1 RV1      1.687300
      5 C1          1.4230   -0.5580   -0.0220 ca        1 RV1     -0.238500
      6 N1          2.3880    2.5730    3.4900 n         1 RV1     -0.719000
      7 O1          3.6700    0.0960    3.5790 o         1 RV1     -0.446400
      8 C2          2.1310   -0.3210    1.1190 ca        1 RV1      0.076000
      9 O2          0.2360    3.2860    3.7850 o         1 RV1     -0.530100
     10 C3          1.5040   -0.0690    2.3800 ca        1 RV1     -0.713500
     11 C4          0.0720   -0.0680    2.3780 ca        1 RV1      0.076000
     12 C5         -0.6640   -0.3000    1.2540 ca        1 RV1     -0.238500
     13 C6          1.3750    3.2410    4.2690 c         1 RV1      0.656100
     14 C7          1.7520    3.7680    5.6000 cx        1 RV1     -0.262700
     15 C8          1.0770    5.0430    6.0700 cx        1 RV1     -0.078900
     16 C9          0.7070    3.7420    6.6980 cx        1 RV1     -0.078900
     17 HN         -1.7240   -0.7940   -1.1010 hn        1 RV1      0.465300
     18 HNA        -0.2750   -0.9750   -1.9880 hn        1 RV1      0.465300
     19 H1          1.9540   -0.7540   -0.9700 ha        1 RV1      0.172500
     20 HN1         3.3180    2.8430    3.7600 hn        1 RV1      0.300500
     21 H2          3.2390   -0.3310    1.0820 ha        1 RV1      0.171000
     22 H4         -0.4490    0.1340    3.3360 ha        1 RV1      0.171000
     23 H5         -1.7660   -0.2860    1.3060 ha        1 RV1      0.172500
     24 H7          2.8100    3.6050    5.8900 hc        1 RV1      0.105700
     25 H8          1.6880    5.7720    6.6320 hc        1 RV1      0.097950
     26 H8A         0.3520    5.5340    5.3920 hc        1 RV1      0.097950
     27 H9         -0.2820    3.3000    6.4700 hc        1 RV1      0.097950
     28 H9A         1.0440    3.5100    7.7250 hc        1 RV1      0.097950
     29 H12         2.2520    2.7310    2.5050 hn        1 RV1      0.300500
@<TRIPOS>BOND
     1    1    2 1   
     2    1    5 ar  
     3    1   12 ar  
     4    2   17 1   
     5    2   18 1   
     6    3    4 1   
     7    4    7 1   
     8    4   10 1   
     9    5    8 ar  
    10    5   19 1   
    11    6   13 1   
    12    6   20 1   
    13    6   29 1   
    14    8   10 ar  
    15    8   21 1   
    16    9   13 2   
    17   10   11 ar  
    18   11   12 ar  
    19   11   22 1   
    20   12   23 1   
    21   13   14 1   
    22   14   15 1   
    23   14   16 1   
    24   14   24 1   
    25   15   16 1   
    26   15   25 1   
    27   15   26 1   
    28   16   27 1   
    29   16   28 1   
@<TRIPOS>SUBSTRUCTURE
     1 RV1         1 TEMP              0 ****  ****    0 ROOT
