@<TRIPOS>MOLECULE
RVA
   32    33     1     0     0
SMALL
bcc


@<TRIPOS>ATOM
      1 C           3.7990    1.3390   -0.0770 c         1 RVA      0.917200
      2 C'         -1.7570   -3.1220   -0.3260 c         1 RVA      0.906800
      3 C1          2.7510    0.3080    0.2800 ca        1 RVA     -0.209600
      4 C2          1.5840    0.1020   -0.4770 ca        1 RVA      0.147100
      5 O2          1.2660    0.8050   -1.6080 oh        1 RVA     -0.539100
      6 C3          0.6510   -0.8930   -0.0750 ca        1 RVA      0.061100
      7 O3         -0.4410   -1.0830   -0.9210 os        1 RVA     -0.265200
      8 C4          0.8780   -1.6590    1.0670 ca        1 RVA     -0.153000
      9 C5          2.0350   -1.4390    1.8160 ca        1 RVA     -0.191000
     10 C6          2.9540   -0.4720    1.4250 ca        1 RVA     -0.102000
     11 C7         -1.6000   -1.5950   -0.3340 ce        1 RVA      0.084900
     12 C8         -2.6250   -0.8090    0.0580 cf        1 RVA     -0.224200
     13 C9         -2.7470    0.6310    0.0960 ca        1 RVA      0.010200
     14 OA          4.8190    1.4520    0.6640 o         1 RVA     -0.852300
     15 OB          3.6350    2.0670   -1.1080 o         1 RVA     -0.852300
     16 C10        -1.8130    1.5020   -0.4920 ca        1 RVA     -0.138500
     17 C11        -1.9970    2.8810   -0.4320 ca        1 RVA     -0.140000
     18 C12        -3.1120    3.4230    0.2050 ca        1 RVA     -0.175000
     19 C13        -4.0490    2.5710    0.7900 ca        1 RVA     -0.140000
     20 C14        -3.8690    1.1930    0.7360 ca        1 RVA     -0.138500
     21 OA'        -1.4840   -3.7360    0.7430 o         1 RVA     -0.823300
     22 OB'        -2.2040   -3.6690   -1.3690 o         1 RVA     -0.823300
     23 HO2         1.9940    1.4310   -1.7980 ho        1 RVA      0.468000
     24 H4          0.1460   -2.4360    1.3550 ha        1 RVA      0.185000
     25 H5          2.2150   -2.0410    2.7160 ha        1 RVA      0.101000
     26 H6          3.8720   -0.2930    2.0080 ha        1 RVA      0.138000
     27 H8         -3.5280   -1.3500    0.4020 ha        1 RVA      0.123000
     28 H10        -0.9210    1.0860   -0.9980 ha        1 RVA      0.153000
     29 H11        -1.2460    3.5450   -0.8870 ha        1 RVA      0.110000
     30 H12        -3.2500    4.5110    0.2510 ha        1 RVA      0.100000
     31 H13        -4.9290    2.9900    1.2970 ha        1 RVA      0.110000
     32 H14        -4.6110    0.5280    1.2030 ha        1 RVA      0.153000
@<TRIPOS>BOND
     1    1    3 1   
     2    1   14 1   
     3    1   15 1   
     4    2   11 1   
     5    2   21 1   
     6    2   22 1   
     7    3    4 ar  
     8    3   10 ar  
     9    4    5 1   
    10    4    6 ar  
    11    5   23 1   
    12    6    7 1   
    13    6    8 ar  
    14    7   11 1   
    15    8    9 ar  
    16    8   24 1   
    17    9   10 ar  
    18    9   25 1   
    19   10   26 1   
    20   11   12 2   
    21   12   13 1   
    22   12   27 1   
    23   13   16 ar  
    24   13   20 ar  
    25   16   17 ar  
    26   16   28 1   
    27   17   18 ar  
    28   17   29 1   
    29   18   19 ar  
    30   18   30 1   
    31   19   20 ar  
    32   19   31 1   
    33   20   32 1   
@<TRIPOS>SUBSTRUCTURE
     1 RVA         1 TEMP              0 ****  ****    0 ROOT
