@<TRIPOS>MOLECULE
RVA
   32    33     1     0     0
SMALL
bcc


@<TRIPOS>ATOM
      1 C          -0.0270    0.2810    0.2730 c         1 RVA      0.917200
      2 C'          6.7840   -1.2600    1.7140 c         1 RVA      0.906800
      3 C1          1.4680    0.0800    0.1620 ca        1 RVA     -0.209600
      4 C2          2.3070   -0.1020    1.2760 ca        1 RVA      0.147100
      5 O2          1.8690   -0.1130    2.5740 oh        1 RVA     -0.539100
      6 C3          3.7030   -0.2890    1.0840 ca        1 RVA      0.061100
      7 O3          4.4500   -0.5360    2.2360 os        1 RVA     -0.265200
      8 C4          4.2500   -0.2880   -0.1980 ca        1 RVA     -0.153000
      9 C5          3.4090   -0.0970   -1.2960 ca        1 RVA     -0.191000
     10 C6          2.0430    0.0820   -1.1150 ca        1 RVA     -0.102000
     11 C7          5.8000   -0.1820    2.1880 ce        1 RVA      0.084900
     12 C8          6.2640    0.9820    2.6910 cf        1 RVA     -0.224200
     13 C9          5.5590    2.1190    3.2410 ca        1 RVA      0.010200
     14 OA         -0.7010    0.4350   -0.7870 o         1 RVA     -0.852300
     15 OB         -0.5720    0.2920    1.4220 o         1 RVA     -0.852300
     16 C10         4.1850    2.1090    3.5330 ca        1 RVA     -0.138500
     17 C11         3.5680    3.2330    4.0760 ca        1 RVA     -0.140000
     18 C12         4.3040    4.3870    4.3470 ca        1 RVA     -0.175000
     19 C13         5.6700    4.4100    4.0650 ca        1 RVA     -0.140000
     20 C14         6.2900    3.2910    3.5190 ca        1 RVA     -0.138500
     21 OA'         7.1910   -1.2010    0.5190 o         1 RVA     -0.823300
     22 OB'         7.1740   -2.1080    2.5590 o         1 RVA     -0.823300
     23 HO2         0.8960   -0.0080    2.5740 ho        1 RVA      0.468000
     24 H4          5.3360   -0.4480   -0.3270 ha        1 RVA      0.185000
     25 H5          3.8390   -0.0940   -2.3070 ha        1 RVA      0.101000
     26 H6          1.3710    0.2310   -1.9760 ha        1 RVA      0.138000
     27 H8          7.3660    1.0880    2.6910 ha        1 RVA      0.123000
     28 H10         3.5870    1.2010    3.3210 ha        1 RVA      0.153000
     29 H11         2.4890    3.2080    4.2850 ha        1 RVA      0.110000
     30 H12         3.8120    5.2710    4.7730 ha        1 RVA      0.100000
     31 H13         6.2570    5.3150    4.2720 ha        1 RVA      0.110000
     32 H14         7.3670    3.3190    3.2970 ha        1 RVA      0.153000
@<TRIPOS>BOND
     1    1    3 1   
     2    1   14 1   
     3    1   15 1   
     4    2   11 1   
     5    2   21 1   
     6    2   22 1   
     7    3    4 ar  
     8    3   10 ar  
     9    4    5 1   
    10    4    6 ar  
    11    5   23 1   
    12    6    7 1   
    13    6    8 ar  
    14    7   11 1   
    15    8    9 ar  
    16    8   24 1   
    17    9   10 ar  
    18    9   25 1   
    19   10   26 1   
    20   11   12 2   
    21   12   13 1   
    22   12   27 1   
    23   13   16 ar  
    24   13   20 ar  
    25   16   17 ar  
    26   16   28 1   
    27   17   18 ar  
    28   17   29 1   
    29   18   19 ar  
    30   18   30 1   
    31   19   20 ar  
    32   19   31 1   
    33   20   32 1   
@<TRIPOS>SUBSTRUCTURE
     1 RVA         1 TEMP              0 ****  ****    0 ROOT
