@<TRIPOS>MOLECULE
RVB
   31    30     1     0     0
SMALL
bcc


@<TRIPOS>ATOM
      1 C10         0.0420    3.1220    0.4990 c3        1 RVB     -0.215000
      2 C11        -2.2530    2.3460   -0.0420 c2        1 RVB     -0.319000
      3 OA'         6.6000   -2.2280   -5.4790 o         1 RVB     -0.552500
      4 OA          1.8960    3.8530   -3.4860 o         1 RVB     -0.580000
      5 OB'         5.2310   -3.9780   -5.7430 o         1 RVB     -0.552500
      6 OB          2.6150    3.3650   -1.4350 o         1 RVB     -0.580000
      7 C8          4.3700   -2.8900   -2.9740 c2        1 RVB     -0.372000
      8 C5          0.7470   -0.5550   -2.8460 c3        1 RVB     -0.172000
      9 C4          1.8590   -1.2540   -3.5270 c2        1 RVB     -0.184000
     10 C6          0.9210    0.8690   -2.5420 c1        1 RVB     -0.151000
     11 O3          4.0400   -1.1100   -4.5770 os        1 RVB     -0.174000
     12 C'          5.5510   -2.8750   -5.2240 c2        1 RVB      0.380000
     13 C7          4.5960   -2.3110   -4.1580 c2        1 RVB      0.019000
     14 C2          3.1240    0.8520   -3.5330 c2        1 RVB      0.194000
     15 C3          2.9860   -0.5760   -3.8410 c2        1 RVB     -0.037000
     16 C1          2.0960    1.5390   -2.9010 c2        1 RVB     -0.225000
     17 C9         -0.9450    2.3640   -0.2950 c2        1 RVB     -0.118000
     18 H10         0.8250    3.5570   -0.1870 hc        1 RVB      0.090000
     19 H10A       -0.4940    1.8030   -1.1540 ha        1 RVB      0.207000
     20 H10B       -0.4320    3.9390    1.0960 hc        1 RVB      0.090000
     21 H11         0.5670    2.4290    1.2040 hc        1 RVB      0.090000
     22 H11A       -2.7120    2.9050    0.7820 ha        1 RVB      0.077000
     23 H11B       -2.9580    1.7760   -0.6580 ha        1 RVB      0.077000
     24 HO2         4.8790    0.8410   -4.2920 ho        1 RVB      0.239000
     25 H8          4.8640   -3.8340   -2.7230 ha        1 RVB      0.107500
     26 H5         -0.1820   -0.6420   -3.4810 hc        1 RVB      0.120000
     27 H4          1.7560   -2.3240   -3.7570 ha        1 RVB      0.131000
     28 H6          0.5250   -1.0750   -1.8700 hc        1 RVB      0.120000
     29 H9          3.7030   -2.4760   -2.2120 ha        1 RVB      0.107500
     30 C           2.2130    3.0260   -2.5870 c2        1 RVB      0.399000
     31 O2          4.2760    1.4840   -3.8750 oh        1 RVB     -0.215000
@<TRIPOS>BOND
     1    1   17 1   
     2    1   18 1   
     3    1   20 1   
     4    1   21 1   
     5    2   17 1   
     6    2   22 1   
     7    2   23 1   
     8    3   12 1   
     9    4   30 1   
    10    5   12 1   
    11    6   30 1   
    12    7   13 1   
    13    7   25 1   
    14    7   29 1   
    15    8    9 1   
    16    8   10 1   
    17    8   26 1   
    18    8   28 1   
    19    9   15 1   
    20    9   27 1   
    21   10   16 1   
    22   11   13 1   
    23   11   15 1   
    24   12   13 1   
    25   14   15 1   
    26   14   16 1   
    27   14   31 1   
    28   16   30 1   
    29   17   19 1   
    30   24   31 1   
@<TRIPOS>SUBSTRUCTURE
     1 RVB         1 TEMP              0 ****  ****    0 ROOT
