@<TRIPOS>MOLECULE
RVB
   31    28     1     0     0
SMALL
bcc


@<TRIPOS>ATOM
      1 C10        -1.9880    0.3670    3.1470 c3        1 RVB     -0.192500
      2 C11         0.2750    0.2160    4.1260 c3        1 RVB     -0.192500
      3 OA'         0.1410    2.7770   -0.8550 o         1 RVB     -0.572000
      4 OA         -1.8050   -1.0870   -4.9530 o         1 RVB     -0.589000
      5 OB'         2.1950    2.4540   -0.1970 o         1 RVB     -0.572000
      6 OB         -1.4910   -2.9970   -3.9490 o         1 RVB     -0.589000
      7 O2         -1.5920   -1.0110   -1.1500 oh        1 RVB     -0.288000
      8 C8         -0.0520    1.3050    1.9320 c1        1 RVB     -0.239000
      9 C5          2.1220   -0.6280   -3.0270 c1        1 RVB     -0.151000
     10 C4          2.0010   -0.3720   -1.6700 c1        1 RVB     -0.136000
     11 C6          1.0090   -1.0020   -3.7630 c1        1 RVB     -0.151000
     12 O3          0.6640   -0.3200    0.3420 os        1 RVB     -0.175000
     13 C'          0.9770    2.1380   -0.1640 c2        1 RVB      0.362000
     14 C          -1.2280   -1.7720   -4.0680 c2        1 RVB      0.365000
     15 C7          0.5100    1.0180    0.7420 c2        1 RVB      0.014000
     16 C2         -0.3450   -0.8640   -1.7850 c2        1 RVB      0.106000
     17 C3          0.7680   -0.4900   -1.0490 c2        1 RVB      0.005000
     18 C1         -0.2250   -1.1200   -3.1420 c1        1 RVB     -0.199000
     19 C9         -0.5190    0.1860    2.8380 c2        1 RVB     -0.079000
     20 H10        -2.3070   -0.3950    3.6750 hc        1 RVB      0.056667
     21 H10A       -2.1160    1.1950    3.6570 hc        1 RVB      0.056667
     22 H10B       -2.4940    0.4180    2.3090 hc        1 RVB      0.056667
     23 H11         0.1190   -0.6130    4.6250 hc        1 RVB      0.056667
     24 H11A       -0.0100    0.9830    4.6680 hc        1 RVB      0.056667
     25 H11B        1.2300    0.2990    3.9200 hc        1 RVB      0.056667
     26 HO2        -2.1640   -0.4130   -1.4760 ho        1 RVB      0.264000
     27 H8         -0.1590    2.2350    2.2100 ha        1 RVB      0.117000
     28 H5          2.9900   -0.5450   -3.4640 ha        1 RVB      0.116500
     29 H4          2.7850   -0.1080   -1.1520 ha        1 RVB      0.187000
     30 H6          1.0940   -1.1830   -4.7190 ha        1 RVB      0.116500
     31 H9         -0.3830   -0.6710    2.3920 ha        1 RVB      0.132000
@<TRIPOS>BOND
     1    1   19 1   
     2    1   20 1   
     3    1   21 1   
     4    1   22 1   
     5    2   19 1   
     6    2   23 1   
     7    2   24 1   
     8    2   25 1   
     9    3   13 1   
    10    4   14 1   
    11    5   13 1   
    12    6   14 1   
    13    7   16 1   
    14    7   26 1   
    15    8   15 1   
    16    8   27 1   
    17    9   11 1   
    18    9   28 1   
    19   10   17 1   
    20   10   29 1   
    21   11   30 1   
    22   12   15 1   
    23   12   17 1   
    24   13   15 1   
    25   14   18 1   
    26   16   17 1   
    27   16   18 1   
    28   19   31 1   
@<TRIPOS>SUBSTRUCTURE
     1 RVB         1 TEMP              0 ****  ****    0 ROOT
