@<TRIPOS>MOLECULE
RVB
   31    31     1     0     0
SMALL
bcc


@<TRIPOS>ATOM
      1 C10         2.2510    2.2030    1.5750 c3        1 RVB     -0.074600
      2 C11         3.0900    2.6740   -0.7190 c3        1 RVB     -0.074600
      3 OA'         4.1550   -2.1920   -1.0080 o         1 RVB     -0.837300
      4 OA         -4.3240    1.1810    1.0200 o         1 RVB     -0.854300
      5 OB'         2.5680   -3.0710    0.2850 o         1 RVB     -0.837300
      6 OB         -3.2520    2.1110   -0.6830 o         1 RVB     -0.854300
      7 C8          2.9250    0.3510    0.0860 c2        1 RVB     -0.243200
      8 C5         -1.2940   -1.6030    1.7230 ca        1 RVB     -0.205000
      9 C4         -0.1440   -1.6230    0.9350 ca        1 RVB     -0.136000
     10 C6         -2.2970   -0.6710    1.4770 ca        1 RVB     -0.097000
     11 O3          1.0760   -0.7570   -0.9750 os        1 RVB     -0.264200
     12 C'          3.0630   -2.1150   -0.3770 c         1 RVB      0.911800
     13 C7          2.3400   -0.7700   -0.3680 ce        1 RVB      0.038900
     14 C2         -1.0200    0.2680   -0.3440 ca        1 RVB      0.151100
     15 C3         -0.0040   -0.6930   -0.0970 ca        1 RVB      0.050100
     16 C1         -2.1840    0.2710    0.4480 ca        1 RVB     -0.219600
     17 C9          2.3080    1.7020    0.1440 c3        1 RVB     -0.035500
     18 H10         1.7760    3.2130    1.6140 hc        1 RVB      0.017367
     19 H10A        1.6490    1.5020    2.2020 hc        1 RVB      0.017367
     20 H10B        3.2770    2.2760    2.0090 hc        1 RVB      0.017367
     21 H11         3.1120    2.3140   -1.7740 hc        1 RVB      0.017367
     22 H11A        2.6150    3.6840   -0.6930 hc        1 RVB      0.017367
     23 H11B        4.1420    2.7680   -0.3540 hc        1 RVB      0.017367
     24 HO2        -1.5690    1.7290   -1.4590 ho        1 RVB      0.465000
     25 H8          3.9660    0.2870    0.4390 ha        1 RVB      0.117000
     26 H5         -1.4060   -2.3320    2.5370 ha        1 RVB      0.098000
     27 H4          0.6680   -2.3580    1.0930 ha        1 RVB      0.187000
     28 H6         -3.2120   -0.6490    2.0910 ha        1 RVB      0.135000
     29 H9          1.2510    1.6410   -0.2580 hc        1 RVB      0.092700
     30 C          -3.3220    1.2470    0.2500 c         1 RVB      0.916200
     31 O2         -0.7870    1.1480   -1.3670 oh        1 RVB     -0.534100
@<TRIPOS>BOND
     1    1   17 1   
     2    1   18 1   
     3    1   19 1   
     4    1   20 1   
     5    2   17 1   
     6    2   21 1   
     7    2   22 1   
     8    2   23 1   
     9    3   12 1   
    10    4   30 1   
    11    5   12 1   
    12    6   30 1   
    13    7   13 2   
    14    7   17 1   
    15    7   25 1   
    16    8    9 ar  
    17    8   10 ar  
    18    8   26 1   
    19    9   15 ar  
    20    9   27 1   
    21   10   16 ar  
    22   10   28 1   
    23   11   13 1   
    24   11   15 1   
    25   12   13 1   
    26   14   15 ar  
    27   14   16 ar  
    28   14   31 1   
    29   16   30 1   
    30   17   29 1   
    31   24   31 1   
@<TRIPOS>SUBSTRUCTURE
     1 RVB         1 TEMP              0 ****  ****    0 ROOT
