@<TRIPOS>MOLECULE
RVC
   29    27     1     0     0
SMALL
bcc


@<TRIPOS>ATOM
      1 OB'         3.0680   -1.0020   -0.4440 o         1 RVC     -0.570500
      2 OB         -1.0100   -1.6450    4.9240 o         1 RVC     -0.589000
      3 OA'         2.0620   -1.3630   -2.3500 o         1 RVC     -0.570500
      4 OA         -2.9400   -1.9780    3.9560 o         1 RVC     -0.589000
      5 O2         -0.8040    0.7450    2.6080 oh        1 RVC     -0.289000
      6 C8          1.1300    1.4520   -2.0430 c1        1 RVC     -0.226000
      7 C5         -0.1570   -2.9020    0.6420 c1        1 RVC     -0.150000
      8 C4          0.3080   -1.7190    0.0810 c1        1 RVC     -0.133000
      9 C6         -0.8280   -2.8780    1.8590 c1        1 RVC     -0.150000
     10 C10        -0.0740    3.0110   -2.4480 cx        1 RVC     -0.230500
     11 C11        -0.3480    2.4340   -2.1750 cx        1 RVC     -0.230500
     12 O3          0.6360    0.6920    0.1980 os        1 RVC     -0.175000
     13 C'          2.1770   -0.6970   -1.2870 c2        1 RVC      0.362000
     14 C          -1.6990   -1.7680    3.8750 c2        1 RVC      0.365000
     15 C7          1.2920    0.5210   -1.0510 c2        1 RVC      0.024000
     16 C2         -0.5690   -0.4860    1.9550 c2        1 RVC      0.106000
     17 C3          0.1020   -0.5090    0.7380 c2        1 RVC      0.004000
     18 C1         -1.0340   -1.6690    2.5150 c1        1 RVC     -0.198000
     19 C9          0.1900    2.7460   -1.7930 cu        1 RVC     -0.085000
     20 HO2        -1.6440    1.0020    2.4640 ho        1 RVC      0.264000
     21 H8          1.5840    1.3340   -2.9090 ha        1 RVC      0.119000
     22 H5         -0.0120   -3.7530    0.1790 ha        1 RVC      0.117500
     23 H4          0.7240   -1.7280   -0.8030 ha        1 RVC      0.186000
     24 H6         -1.1560   -3.7110    2.2540 ha        1 RVC      0.117500
     25 H10        -0.6360    3.8250   -2.3860 hc        1 RVC      0.091250
     26 H10A        0.5150    2.8770   -3.2340 hc        1 RVC      0.091250
     27 H11        -1.2570    2.5350   -1.7920 hc        1 RVC      0.091250
     28 H11A       -0.1100    1.5930   -2.6350 hc        1 RVC      0.091250
     29 H9          0.4910    3.0380   -0.8980 ha        1 RVC      0.157000
@<TRIPOS>BOND
     1    1   13 1   
     2    2   14 1   
     3    3   13 1   
     4    4   14 1   
     5    5   16 1   
     6    5   20 1   
     7    6   15 1   
     8    6   21 1   
     9    7    9 1   
    10    7   22 1   
    11    8   17 1   
    12    8   23 1   
    13    9   24 1   
    14   10   11 1   
    15   10   19 1   
    16   10   25 1   
    17   10   26 1   
    18   11   19 1   
    19   11   27 1   
    20   11   28 1   
    21   12   15 1   
    22   12   17 1   
    23   13   15 1   
    24   14   18 1   
    25   16   17 1   
    26   16   18 1   
    27   19   29 1   
@<TRIPOS>SUBSTRUCTURE
     1 RVC         1 TEMP              0 ****  ****    0 ROOT
