@<TRIPOS>MOLECULE
RVC
   29    28     1     0     0
SMALL
bcc


@<TRIPOS>ATOM
      1 OB'       105.7390  -43.5920  -94.9640 o         1 RVC     -0.548000
      2 OB        -83.5590   38.9630   82.1230 o         1 RVC     -0.565000
      3 OA'       106.6590  -45.1550  -93.6550 o         1 RVC     -0.548000
      4 OA        -84.5530   37.1750   81.2550 o         1 RVC     -0.565000
      5 C8        104.1090  -43.6220  -91.9180 c1        1 RVC     -0.348000
      6 C5        -80.6840   38.8210   78.8380 c3        1 RVC     -0.168000
      7 C4        -80.3530   37.4430   78.4110 c2        1 RVC     -0.261000
      8 C6        -81.8180   38.9990   79.7510 c1        1 RVC     -0.093000
      9 C10       102.3090  -42.1170  -91.2110 c3        1 RVC     -0.171000
     10 C11       103.7570  -43.1540  -89.5250 c1        1 RVC     -0.069000
     11 O3        -80.8900   35.0900   78.4760 oh        1 RVC     -0.244000
     12 C'        105.8230  -44.2360  -93.8820 c2        1 RVC      0.409000
     13 C7        104.8750  -43.8930  -92.8020 c1        1 RVC     -0.071000
     14 C2        -82.2530   36.6130   79.7370 c2        1 RVC      0.216000
     15 C3        -81.1140   36.4050   78.8300 c2        1 RVC      0.020000
     16 C1        -82.5210   37.8850   80.2280 c2        1 RVC     -0.293000
     17 C9        103.1900  -43.3110  -90.8610 c3        1 RVC     -0.050000
     18 HO2       -83.7250   35.7150   80.5840 ho        1 RVC      0.302000
     19 H8        -80.1110   35.0760   77.9010 ho        1 RVC      0.193000
     20 H5        -80.8990   39.4470   77.9250 hc        1 RVC      0.121500
     21 H4        -79.4820   37.2920   77.7600 ha        1 RVC      0.104000
     22 H6        -79.7870   39.2820   79.3440 hc        1 RVC      0.121500
     23 H10       102.9400  -41.2130  -91.3810 hc        1 RVC      0.074000
     24 H10A      101.7400  -42.3310  -92.1460 hc        1 RVC      0.074000
     25 H11       104.7970  -43.4960  -89.4000 ha        1 RVC      0.040000
     26 H11A      101.5950  -41.9100  -90.3790 hc        1 RVC      0.074000
     27 H9        102.5010  -44.2140  -90.7080 hc        1 RVC      0.135000
     28 C         -83.6150   38.0470   81.2690 c2        1 RVC      0.381000
     29 O2        -82.9530   35.4920   79.9960 oh        1 RVC     -0.273000
@<TRIPOS>BOND
     1    1   12 1   
     2    2   28 1   
     3    3   12 1   
     4    4   28 1   
     5    5   13 1   
     6    5   17 1   
     7    6    7 1   
     8    6    8 1   
     9    6   20 1   
    10    6   22 1   
    11    7   15 1   
    12    7   21 1   
    13    8   16 1   
    14    9   17 1   
    15    9   23 1   
    16    9   24 1   
    17    9   26 1   
    18   10   17 1   
    19   10   25 1   
    20   11   15 1   
    21   11   19 1   
    22   12   13 1   
    23   14   15 1   
    24   14   16 1   
    25   14   29 1   
    26   16   28 1   
    27   17   27 1   
    28   18   29 1   
@<TRIPOS>SUBSTRUCTURE
     1 RVC         1 TEMP              0 ****  ****    0 ROOT
