@<TRIPOS>MOLECULE
RVC
   29    30     1     0     0
SMALL
bcc


@<TRIPOS>ATOM
      1 OB'        -4.0750    2.2700    0.9010 o         1 RVC     -0.835800
      2 OB          4.3090   -1.4090   -1.0380 o         1 RVC     -0.854300
      3 OA'        -2.4590    3.0580   -0.4150 o         1 RVC     -0.835800
      4 OA          3.2480   -2.1990    0.7400 o         1 RVC     -0.854300
      5 C8         -2.8710   -0.3500    0.0220 c2        1 RVC     -0.230200
      6 C5          1.3330    1.4000   -1.8670 ca        1 RVC     -0.204000
      7 C4          0.2060    1.5080   -1.0530 ca        1 RVC     -0.133000
      8 C6          2.3160    0.4580   -1.5810 ca        1 RVC     -0.096000
      9 C10        -2.5700   -2.6630   -1.0470 cx        1 RVC     -0.151900
     10 C11        -3.1200   -2.8830    0.3310 cx        1 RVC     -0.151900
     11 O3         -0.9840    0.8210    0.9440 os        1 RVC     -0.264200
     12 C'         -2.9750    2.1470    0.2930 c         1 RVC      0.911800
     13 C7         -2.2640    0.7990    0.3740 ce        1 RVC      0.048900
     14 C2          1.0630   -0.3140    0.3340 ca        1 RVC      0.151100
     15 C3          0.0700    0.6570    0.0450 ca        1 RVC      0.049100
     16 C1          2.2060   -0.4060   -0.4860 ca        1 RVC     -0.218600
     17 C9         -2.2580   -1.6750    0.0510 cx        1 RVC     -0.041500
     18 HO2         1.6030   -1.7100    1.5350 ho        1 RVC      0.465000
     19 H8         -3.9220   -0.2990   -0.3050 ha        1 RVC      0.119000
     20 H5          1.4420    2.0660   -2.7330 ha        1 RVC      0.099000
     21 H4         -0.5910    2.2530   -1.2420 ha        1 RVC      0.186000
     22 H6          3.2130    0.3670   -2.2140 ha        1 RVC      0.136000
     23 H10        -1.7600   -3.3160   -1.4150 hc        1 RVC      0.051950
     24 H10A       -3.2590   -2.3610   -1.8550 hc        1 RVC      0.051950
     25 H11        -4.2000   -2.7370    0.5050 hc        1 RVC      0.051950
     26 H11A       -2.7060   -3.6950    0.9520 hc        1 RVC      0.051950
     27 H9         -1.2240   -1.6700    0.4660 hc        1 RVC      0.117700
     28 C           3.3220   -1.3980   -0.2470 c         1 RVC      0.916200
     29 O2          0.8350   -1.1150    1.4200 oh        1 RVC     -0.535100
@<TRIPOS>BOND
     1    1   12 1   
     2    2   28 1   
     3    3   12 1   
     4    4   28 1   
     5    5   13 2   
     6    5   17 1   
     7    5   19 1   
     8    6    7 ar  
     9    6    8 ar  
    10    6   20 1   
    11    7   15 ar  
    12    7   21 1   
    13    8   16 ar  
    14    8   22 1   
    15    9   10 1   
    16    9   17 1   
    17    9   23 1   
    18    9   24 1   
    19   10   17 1   
    20   10   25 1   
    21   10   26 1   
    22   11   13 1   
    23   11   15 1   
    24   12   13 1   
    25   14   15 ar  
    26   14   16 ar  
    27   14   29 1   
    28   16   28 1   
    29   17   27 1   
    30   18   29 1   
@<TRIPOS>SUBSTRUCTURE
     1 RVC         1 TEMP              0 ****  ****    0 ROOT
