@<TRIPOS>MOLECULE
RVD
   28    28     1     0     0
SMALL
bcc


@<TRIPOS>ATOM
      1 CAA        -3.1070   -3.0560   -0.4610 c3        1 RVD     -0.074100
      2 OAB        -4.3930    1.6210    1.1410 o         1 RVD     -0.838300
      3 OAC         4.3010   -0.9400   -1.1820 o         1 RVD     -0.855300
      4 OAD        -2.7950    2.8230    0.1580 o         1 RVD     -0.838300
      5 OAE         3.2270   -2.2180    0.2760 o         1 RVD     -0.855300
      6 CAG        -2.9640   -0.5860   -0.3600 c2        1 RVD     -0.248200
      7 CAH         1.1740    1.8140   -1.4390 ca        1 RVD     -0.205000
      8 CAI         0.0070    1.6420   -0.6960 ca        1 RVD     -0.135000
      9 CAJ         2.2090    0.8880   -1.3430 ca        1 RVD     -0.097000
     10 CAK        -2.2420   -1.8380   -0.6790 c3        1 RVD     -0.047200
     11 OAL        -1.2220    0.3890    0.9760 os        1 RVD     -0.263200
     12 CAM        -3.2680    1.7280    0.5770 c         1 RVD      0.911800
     13 CAO        -2.4670    0.4510    0.3350 ce        1 RVD      0.035900
     14 CAP         0.9310   -0.4240    0.2300 ca        1 RVD      0.151100
     15 CAQ        -0.1170    0.5280    0.1370 ca        1 RVD      0.050100
     16 CAR         2.1120   -0.2350   -0.5140 ca        1 RVD     -0.219600
     17 HAA        -2.5400   -3.9850   -0.7130 hc        1 RVD      0.012700
     18 HAAA       -3.4300   -3.1160    0.6060 hc        1 RVD      0.012700
     19 HAAB       -4.0220   -3.0150   -1.1000 hc        1 RVD      0.012700
     20 HOAF        1.5160   -2.0490    1.0650 ho        1 RVD      0.465000
     21 HAG        -3.9980   -0.5140   -0.7300 ha        1 RVD      0.116000
     22 HAH         1.2740    2.6870   -2.0970 ha        1 RVD      0.098000
     23 HAI        -0.8330    2.3620   -0.7360 ha        1 RVD      0.185000
     24 HAJ         3.1370    1.0170   -1.9230 ha        1 RVD      0.135000
     25 HAK        -1.3110   -1.9150   -0.0500 hc        1 RVD      0.052700
     26 HAKA       -1.9120   -1.8090   -1.7540 hc        1 RVD      0.052700
     27 CAN         3.2840   -1.1890   -0.4700 c         1 RVD      0.916200
     28 OAF         0.7140   -1.4890    1.0630 oh        1 RVD     -0.534100
@<TRIPOS>BOND
     1    1   10 1   
     2    1   17 1   
     3    1   18 1   
     4    1   19 1   
     5    2   12 1   
     6    3   27 1   
     7    4   12 1   
     8    5   27 1   
     9    6   10 1   
    10    6   13 2   
    11    6   21 1   
    12    7    8 ar  
    13    7    9 ar  
    14    7   22 1   
    15    8   15 ar  
    16    8   23 1   
    17    9   16 ar  
    18    9   24 1   
    19   10   25 1   
    20   10   26 1   
    21   11   13 1   
    22   11   15 1   
    23   12   13 1   
    24   14   15 ar  
    25   14   16 ar  
    26   14   28 1   
    27   16   27 1   
    28   20   28 1   
@<TRIPOS>SUBSTRUCTURE
     1 RVD         1 TEMP              0 ****  ****    0 ROOT
