@<TRIPOS>MOLECULE
RVD
   28    28     1     0     0
SMALL
bcc


@<TRIPOS>ATOM
      1 CAA         0.6040   -0.9210   -0.6320 c3        1 RVD     -0.196000
      2 OAB         1.8330   -0.9830    4.3460 o         1 RVD     -0.564500
      3 OAC         7.1970   -4.3840   -1.9580 o         1 RVD     -0.585000
      4 OAD         3.9860   -0.4210    4.1720 o         1 RVD     -0.564500
      5 OAE         6.1730   -2.8120   -3.1600 o         1 RVD     -0.585000
      6 CAG         2.0590   -0.5300    1.3320 c2        1 RVD     -0.242000
      7 CAH         6.9920   -0.7800    0.8780 c3        1 RVD     -0.181000
      8 CAI         5.7250   -1.0040    1.6090 c2        1 RVD     -0.172000
      9 CAJ         7.2350   -1.5570   -0.3430 c1        1 RVD     -0.133000
     10 CAK         2.0150   -0.7240   -0.1340 c3        1 RVD     -0.123000
     11 OAL         3.6600   -2.2550    1.7940 os        1 RVD     -0.212000
     12 CAM         2.9010   -0.8500    3.6880 c2        1 RVD      0.366000
     13 CAO         2.8620   -1.1730    2.1960 c2        1 RVD      0.009000
     14 CAP         5.1200   -2.6930   -0.0710 c2        1 RVD      0.170000
     15 CAQ         4.8440   -1.9130    1.1370 c2        1 RVD     -0.044000
     16 CAR         6.2900   -2.4980   -0.7870 c2        1 RVD     -0.221000
     17 HAA        -0.0320   -0.0380   -0.3810 hc        1 RVD      0.057667
     18 HAAA        0.1460   -1.8250   -0.1630 hc        1 RVD      0.057667
     19 HAAB        0.6000   -1.0570   -1.7410 hc        1 RVD      0.057667
     20 HOAF        3.4680   -3.6240    0.1600 ho        1 RVD      0.220000
     21 HAG         1.3630    0.2210    1.7390 ha        1 RVD      0.124000
     22 HAH         7.8540   -0.9940    1.5740 hc        1 RVD      0.120000
     23 HAI         5.5020   -0.4330    2.5290 ha        1 RVD      0.181000
     24 HAJ         7.0660    0.3090    0.5950 hc        1 RVD      0.120000
     25 HAK         2.4610    0.1780   -0.6360 hc        1 RVD      0.084500
     26 HAKA        2.6460   -1.6070   -0.4320 hc        1 RVD      0.084500
     27 CAN         6.5750   -3.2870   -2.0590 c2        1 RVD      0.400000
     28 OAF         4.2000   -3.6140   -0.4790 oh        1 RVD     -0.227000
@<TRIPOS>BOND
     1    1   10 1   
     2    1   17 1   
     3    1   18 1   
     4    1   19 1   
     5    2   12 1   
     6    3   27 1   
     7    4   12 1   
     8    5   27 1   
     9    6   10 1   
    10    6   13 1   
    11    6   21 1   
    12    7    8 1   
    13    7    9 1   
    14    7   22 1   
    15    7   24 1   
    16    8   15 1   
    17    8   23 1   
    18    9   16 1   
    19   10   25 1   
    20   10   26 1   
    21   11   13 1   
    22   11   15 1   
    23   12   13 1   
    24   14   15 1   
    25   14   16 1   
    26   14   28 1   
    27   16   27 1   
    28   20   28 1   
@<TRIPOS>SUBSTRUCTURE
     1 RVD         1 TEMP              0 ****  ****    0 ROOT
