@<TRIPOS>MOLECULE
RVD
   28    28     1     0     0
SMALL
bcc


@<TRIPOS>ATOM
      1 CAA         0.6620   -0.6970   -0.6720 c3        1 RVD     -0.196000
      2 OAB         1.8180   -0.8670    4.3210 o         1 RVD     -0.564500
      3 OAC         7.0330   -4.5720   -1.9370 o         1 RVD     -0.585000
      4 OAD         4.0060   -0.4460    4.1790 o         1 RVD     -0.564500
      5 OAE         6.1310   -2.9290   -3.1400 o         1 RVD     -0.585000
      6 CAG         2.1140   -0.4120    1.3140 c2        1 RVD     -0.242000
      7 CAH         7.0260   -0.9800    0.9220 c3        1 RVD     -0.181000
      8 CAI         5.7370   -1.1250    1.6350 c2        1 RVD     -0.172000
      9 CAJ         7.2350   -1.7640   -0.3010 c1        1 RVD     -0.133000
     10 CAK         2.0760   -0.5940   -0.1540 c3        1 RVD     -0.123000
     11 OAL         3.5930   -2.2400    1.7840 os        1 RVD     -0.212000
     12 CAM         2.9020   -0.8000    3.6780 c2        1 RVD      0.366000
     13 CAO         2.8620   -1.1110    2.1830 c2        1 RVD      0.009000
     14 CAP         5.0460   -2.7610   -0.0650 c2        1 RVD      0.170000
     15 CAQ         4.8050   -1.9720    1.1450 c2        1 RVD     -0.044000
     16 CAR         6.2360   -2.6380   -0.7640 c2        1 RVD     -0.221000
     17 HAA         0.0820    0.2240   -0.4220 hc        1 RVD      0.057667
     18 HAAA        0.1410   -1.5710   -0.2140 hc        1 RVD      0.057667
     19 HAAB        0.6650   -0.8250   -1.7810 hc        1 RVD      0.057667
     20 HOAF        3.3350   -3.5840    0.1390 ho        1 RVD      0.220000
     21 HAG         1.4630    0.3810    1.7170 ha        1 RVD      0.124000
     22 HAH         7.8630   -1.2540    1.6280 hc        1 RVD      0.120000
     23 HAI         5.5390   -0.5470    2.5560 ha        1 RVD      0.181000
     24 HAJ         7.1750    0.1040    0.6480 hc        1 RVD      0.120000
     25 HAK         2.5870    0.2810   -0.6440 hc        1 RVD      0.084500
     26 HAKA        2.6540   -1.5130   -0.4500 hc        1 RVD      0.084500
     27 CAN         6.4870   -3.4370   -2.0380 c2        1 RVD      0.400000
     28 OAF         4.0740   -3.6180   -0.4910 oh        1 RVD     -0.227000
@<TRIPOS>BOND
     1    1   10 1   
     2    1   17 1   
     3    1   18 1   
     4    1   19 1   
     5    2   12 1   
     6    3   27 1   
     7    4   12 1   
     8    5   27 1   
     9    6   10 1   
    10    6   13 1   
    11    6   21 1   
    12    7    8 1   
    13    7    9 1   
    14    7   22 1   
    15    7   24 1   
    16    8   15 1   
    17    8   23 1   
    18    9   16 1   
    19   10   25 1   
    20   10   26 1   
    21   11   13 1   
    22   11   15 1   
    23   12   13 1   
    24   14   15 1   
    25   14   16 1   
    26   14   28 1   
    27   16   27 1   
    28   20   28 1   
@<TRIPOS>SUBSTRUCTURE
     1 RVD         1 TEMP              0 ****  ****    0 ROOT
