@<TRIPOS>MOLECULE
RVE
   22    22     1     0     0
SMALL
bcc


@<TRIPOS>ATOM
      1 C8          0.4280   -0.0200    0.5420 c2        1 RVE     -0.317000
      2 OA'         2.0930   -0.6540   -2.3670 o         1 RVE     -0.838300
      3 OB          4.4770   -1.3490    5.1890 o         1 RVE     -0.854800
      4 OB'         1.1150    1.3410   -2.1720 o         1 RVE     -0.838300
      5 OA          4.8580   -3.5140    4.9030 o         1 RVE     -0.854800
      6 O2          3.4800    0.0970    3.0930 oh        1 RVE     -0.529100
      7 C5          3.6300   -3.4560    0.9150 ca        1 RVE     -0.207000
      8 C4          3.1870   -2.2760    0.3220 ca        1 RVE     -0.133000
      9 C6          4.0390   -3.4580    2.2460 ca        1 RVE     -0.096000
     10 O3          2.8120    0.1050    0.4630 os        1 RVE     -0.260200
     11 C'          1.6070    0.2880   -1.6780 c         1 RVE      0.914800
     12 C           4.4780   -2.3920    4.4590 c         1 RVE      0.916200
     13 C7          1.5570    0.1010   -0.1660 ce        1 RVE      0.039900
     14 C3          3.1490   -1.1000    1.0760 ca        1 RVE      0.047100
     15 C2          3.5570   -1.0990    2.4340 ca        1 RVE      0.157100
     16 C1          4.0150   -2.2960    3.0230 ca        1 RVE     -0.220600
     17 H8          0.4210   -0.2170    1.6190 ha        1 RVE      0.101000
     18 H8A        -0.5480    0.0760    0.0550 ha        1 RVE      0.101000
     19 HO2         3.8140   -0.0290    4.0040 ho        1 RVE      0.464000
     20 HAG         3.6590   -4.3830    0.3270 ha        1 RVE      0.098000
     21 HAH         2.8600   -2.2280   -0.7330 ha        1 RVE      0.175000
     22 HAI         4.3940   -4.3850    2.7250 ha        1 RVE      0.135000
@<TRIPOS>BOND
     1    1   13 2   
     2    1   17 1   
     3    1   18 1   
     4    2   11 1   
     5    3   12 1   
     6    4   11 1   
     7    5   12 1   
     8    6   15 1   
     9    6   19 1   
    10    7    8 ar  
    11    7    9 ar  
    12    7   20 1   
    13    8   14 ar  
    14    8   21 1   
    15    9   16 ar  
    16    9   22 1   
    17   10   13 1   
    18   10   14 1   
    19   11   13 1   
    20   12   16 1   
    21   14   15 ar  
    22   15   16 ar  
@<TRIPOS>SUBSTRUCTURE
     1 RVE         1 TEMP              0 ****  ****    0 ROOT
