@<TRIPOS>MOLECULE
RVE
   22    22     1     0     0
SMALL
bcc


@<TRIPOS>ATOM
      1 C8          2.6200   -1.1900    1.3350 c2        1 RVE     -0.317000
      2 OA'         3.7770    1.3160   -0.6700 o         1 RVE     -0.838300
      3 OB         -3.5840   -1.5500    0.2640 o         1 RVE     -0.854800
      4 OB'         4.8310   -0.6470   -0.7880 o         1 RVE     -0.838300
      5 OA         -4.3110    0.4400    0.9150 o         1 RVE     -0.854800
      6 O2         -0.9320   -1.8490   -0.3350 oh        1 RVE     -0.529100
      7 C5         -0.5480    2.2080    0.5480 ca        1 RVE     -0.207000
      8 C4          0.5530    1.4630    0.1340 ca        1 RVE     -0.133000
      9 C6         -1.7970    1.6040    0.6640 ca        1 RVE     -0.096000
     10 O3          1.4640   -0.6210   -0.6760 os        1 RVE     -0.260200
     11 C'          3.8250    0.0630   -0.5070 c         1 RVE      0.914800
     12 C          -3.3770   -0.3230    0.5270 c         1 RVE      0.916200
     13 C7          2.6130   -0.6110    0.1280 ce        1 RVE      0.039900
     14 C3          0.3940    0.1060   -0.1570 ca        1 RVE      0.047100
     15 C2         -0.8740   -0.5160   -0.0340 ca        1 RVE      0.157100
     16 C1         -1.9860    0.2480    0.3760 ca        1 RVE     -0.220600
     17 H8          3.5460   -1.2620    1.9140 ha        1 RVE      0.101000
     18 H8A         1.7200   -1.6110    1.7950 ha        1 RVE      0.101000
     19 HO2        -1.8590   -2.1480   -0.2400 ho        1 RVE      0.464000
     20 HAG        -0.4270    3.2750    0.7800 ha        1 RVE      0.098000
     21 HAH         1.5610    1.9040    0.0220 ha        1 RVE      0.175000
     22 HAI        -2.6760    2.1840    0.9890 ha        1 RVE      0.135000
@<TRIPOS>BOND
     1    1   13 2   
     2    1   17 1   
     3    1   18 1   
     4    2   11 1   
     5    3   12 1   
     6    4   11 1   
     7    5   12 1   
     8    6   15 1   
     9    6   19 1   
    10    7    8 ar  
    11    7    9 ar  
    12    7   20 1   
    13    8   14 ar  
    14    8   21 1   
    15    9   16 ar  
    16    9   22 1   
    17   10   13 1   
    18   10   14 1   
    19   11   13 1   
    20   12   16 1   
    21   14   15 ar  
    22   15   16 ar  
@<TRIPOS>SUBSTRUCTURE
     1 RVE         1 TEMP              0 ****  ****    0 ROOT
