@<TRIPOS>MOLECULE
RVE
   22    19     1     0     0
SMALL
bcc


@<TRIPOS>ATOM
      1 C8          0.3950    0.2160   -3.5700 c1        1 RVE     -0.385000
      2 OA'        -0.3950    3.0760   -2.2410 o         1 RVE     -0.564500
      3 OB          0.7980   -0.0190    4.3330 o         1 RVE     -0.586000
      4 OB'        -1.9220    1.5550   -1.9810 o         1 RVE     -0.564500
      5 OA         -1.1590    0.8840    3.9280 o         1 RVE     -0.586000
      6 O2          1.0860    1.6560    1.1900 oh        1 RVE     -0.273000
      7 C5         -0.5540   -2.1550    0.7160 c1        1 RVE     -0.150000
      8 C4         -0.0030   -1.4940   -0.3760 c1        1 RVE     -0.140000
      9 C6         -0.5900   -1.5380    1.9510 c1        1 RVE     -0.150000
     10 O3          1.1730    0.4150   -1.3260 os        1 RVE     -0.136000
     11 C'         -0.7190    1.8670   -2.1430 c2        1 RVE      0.378000
     12 C          -0.1580    0.2110    3.5380 c2        1 RVE      0.365000
     13 C7          0.3030    0.8020   -2.3750 c2        1 RVE      0.032000
     14 C3          0.5090   -0.2190   -0.2270 c2        1 RVE      0.000000
     15 C2          0.4730    0.4010    1.0140 c2        1 RVE      0.122000
     16 C1         -0.0770   -0.2580    2.1010 c1        1 RVE     -0.198000
     17 H8          1.0550   -0.4720   -3.7200 DU        1 RVE      0.097000
     18 H8A        -0.2060    0.4830   -4.2920 ha        1 RVE      0.104000
     19 HO2         1.9370    1.5410    1.4190 ho        1 RVE      0.264000
     20 HAG        -0.8850   -3.0660    0.6170 ha        1 RVE      0.117000
     21 HAH        -0.0150   -1.9130   -1.2560 ha        1 RVE      0.136000
     22 HAI        -1.0470   -1.9730    2.7010 ha        1 RVE      0.117000
@<TRIPOS>BOND
     1    1   13 1   
     2    1   18 1   
     3    2   11 1   
     4    3   12 1   
     5    4   11 1   
     6    5   12 1   
     7    6   15 1   
     8    6   19 1   
     9    7    9 1   
    10    7   20 1   
    11    8   14 1   
    12    8   21 1   
    13    9   22 1   
    14   10   13 1   
    15   10   14 1   
    16   11   13 1   
    17   12   16 1   
    18   14   15 1   
    19   15   16 1   
@<TRIPOS>SUBSTRUCTURE
     1 RVE         1 TEMP              0 ****  ****    0 ROOT
