@<TRIPOS>MOLECULE
RVE
   22    22     1     0     0
SMALL
bcc


@<TRIPOS>ATOM
      1 C8          0.5720   -1.0990   -0.1670 c2        1 RVE     -0.385000
      2 OA'         0.5330    1.8720   -1.2280 o         1 RVE     -0.829800
      3 OB          4.3000   -1.0190    5.2640 o         1 RVE     -0.851300
      4 OB'         2.1060    0.8390   -2.4280 o         1 RVE     -0.829800
      5 OA          4.9450   -3.1350    5.1060 o         1 RVE     -0.851300
      6 O2          3.2040    0.1840    3.0640 oh        1 RVE     -0.519100
      7 C5          3.8590   -3.4320    1.0950 ca        1 RVE     -0.206000
      8 C4          3.2940   -2.3460    0.4280 ca        1 RVE     -0.140000
      9 C6          4.2190   -3.3150    2.4340 ca        1 RVE     -0.094000
     10 O3          2.6410   -0.0080    0.4330 os        1 RVE     -0.225200
     11 C'          1.3820    0.9550   -1.4020 c         1 RVE      0.927800
     12 C           4.4490   -2.0900    4.5940 c         1 RVE      0.916200
     13 C7          1.4910   -0.1390   -0.3320 ce        1 RVE      0.056900
     14 C3          3.0850   -1.1440    1.1070 ca        1 RVE      0.045100
     15 C2          3.4450   -1.0260    2.4760 ca        1 RVE      0.167100
     16 C1          4.0250   -2.1240    3.1420 ca        1 RVE     -0.218600
     17 H8          0.6700   -1.9030    0.5700 ha        1 RVE      0.100500
     18 H8A        -0.3370   -1.1060   -0.7750 ha        1 RVE      0.100500
     19 HO2         3.5100    0.1460    3.9920 ho        1 RVE      0.465000
     20 HAG         4.0190   -4.3760    0.5590 ha        1 RVE      0.096000
     21 HAH         2.9980   -2.4160   -0.6290 ha        1 RVE      0.136000
     22 HAI         4.6690   -4.1640    2.9740 ha        1 RVE      0.138000
@<TRIPOS>BOND
     1    1   13 2   
     2    1   17 1   
     3    1   18 1   
     4    2   11 1   
     5    3   12 1   
     6    4   11 1   
     7    5   12 1   
     8    6   15 1   
     9    6   19 1   
    10    7    8 ar  
    11    7    9 ar  
    12    7   20 1   
    13    8   14 ar  
    14    8   21 1   
    15    9   16 ar  
    16    9   22 1   
    17   10   13 1   
    18   10   14 1   
    19   11   13 1   
    20   12   16 1   
    21   14   15 ar  
    22   15   16 ar  
@<TRIPOS>SUBSTRUCTURE
     1 RVE         1 TEMP              0 ****  ****    0 ROOT
