@<TRIPOS>MOLECULE
RVI
   71    74     1     0     0
SMALL
bcc


@<TRIPOS>ATOM
      1 C4          0.2670    0.3030   -0.2390 cp        1 RVI     -0.061000
      2 C5          1.6670    0.4300   -0.2040 ca        1 RVI     -0.052300
      3 C6          2.3200    0.4400    1.0360 ca        1 RVI     -0.130000
      4 C7         -0.4810    0.2910   -1.4980 cp        1 RVI     -0.016000
      5 C8         -0.3220    1.3550   -2.4310 ca        1 RVI     -0.089000
      6 C10        -1.3650   -0.7300   -1.7800 ca        1 RVI     -0.105000
      7 C15        -3.7230   -1.7370   -4.5000 ca        1 RVI     -0.250600
      8 C17         2.4780    0.5510   -1.4380 c3        1 RVI     -0.062800
      9 C20        -6.0340   -2.5790   -4.1040 c3        1 RVI     -0.118700
     10 C21        -6.8720   -3.8310   -4.2590 c         1 RVI      0.546100
     11 C24        -9.8550   -5.3080   -2.2460 c3        1 RVI     -0.089700
     12 C26       -10.0640   -6.7200   -0.1910 c3        1 RVI     -0.077900
     13 C28       -12.0600   -6.3230   -1.6410 c3        1 RVI     -0.077900
     14 C25        -9.1530   -6.2960   -1.3270 c3        1 RVI     -0.077400
     15 C27       -11.3650   -7.2950   -0.7110 c3        1 RVI     -0.084400
     16 C29       -11.1550   -5.9040   -2.7800 c3        1 RVI     -0.077400
     17 C23        -8.9830   -4.9390   -3.4490 c3        1 RVI      0.099800
     18 N22        -7.7670   -4.1610   -3.0720 ny        1 RVI     -0.685800
     19 O30        -6.9230   -4.6000   -5.2030 o         1 RVI     -0.406100
     20 C31        -6.7760   -1.3970   -4.7130 c3        1 RVI     -0.099400
     21 C32        -8.0780   -1.0800   -4.0110 c3        1 RVI     -0.086400
     22 C33        -8.6310    0.2440   -4.4770 c3        1 RVI     -0.097100
     23 C19        -4.6870   -2.8260   -4.7980 c3        1 RVI     -0.010100
     24 C14        -3.4810   -0.6300   -5.4140 ca        1 RVI      0.623200
     25 N13        -2.6130    0.3560   -5.1270 nb        1 RVI     -0.703000
     26 N18        -4.2350   -0.5510   -6.6100 nv        1 RVI     -0.917500
     27 C16        -3.0150   -1.7660   -3.3180 ca        1 RVI     -0.051000
     28 C11        -2.1030   -0.7330   -2.9900 ca        1 RVI     -0.173300
     29 C12        -1.9400    0.3300   -3.9320 ca        1 RVI      0.441600
     30 C9         -1.0240    1.3850   -3.6070 ca        1 RVI     -0.179300
     31 C3         -0.4460    0.1810    0.9640 ca        1 RVI     -0.116000
     32 C2          0.2150    0.1960    2.1870 ca        1 RVI     -0.135000
     33 C1          1.6040    0.3280    2.2240 ca        1 RVI     -0.111000
     34 H6          3.4170    0.5380    1.0650 ha        1 RVI      0.140000
     35 H8          0.3850    2.1640   -2.1840 ha        1 RVI      0.154000
     36 H10        -1.5020   -1.5600   -1.0710 ha        1 RVI      0.139000
     37 H17         2.6680    1.6310   -1.6660 hc        1 RVI      0.050700
     38 H17A        3.4680    0.0450   -1.3110 hc        1 RVI      0.050700
     39 H17B        1.9590    0.0930   -2.3160 hc        1 RVI      0.050700
     40 H20        -5.8380   -2.3710   -3.0140 hc        1 RVI      0.083700
     41 H24       -10.1090   -4.3790   -1.6610 hc        1 RVI      0.065700
     42 H26       -10.2800   -5.8360    0.4660 hc        1 RVI      0.057450
     43 H26A       -9.5370   -7.4860    0.4360 hc        1 RVI      0.057450
     44 H28       -12.3850   -5.4160   -1.0650 hc        1 RVI      0.057450
     45 H28A      -12.9830   -6.8010   -2.0640 hc        1 RVI      0.057450
     46 H25        -8.2270   -5.8360   -0.8910 hc        1 RVI      0.046200
     47 H25A       -8.8430   -7.2010   -1.9140 hc        1 RVI      0.046200
     48 H27       -12.0390   -7.5340    0.1530 hc        1 RVI      0.059200
     49 H27A      -11.1620   -8.2550   -1.2540 hc        1 RVI      0.059200
     50 H29       -10.9210   -6.7940   -3.4220 hc        1 RVI      0.046200
     51 H29A      -11.6800   -5.1480   -3.4200 hc        1 RVI      0.046200
     52 H23        -8.6440   -5.8750   -3.9830 hx        1 RVI      0.111700
     53 H23A       -9.5730   -4.3090   -4.1750 hx        1 RVI      0.111700
     54 HN22       -7.2220   -4.7040   -2.3930 hn        1 RVI      0.456800
     55 H31        -6.9600   -1.5830   -5.8050 hc        1 RVI      0.099200
     56 H31A       -6.0900   -0.5050   -4.6480 hc        1 RVI      0.099200
     57 H32        -7.9170   -1.0420   -2.9000 hc        1 RVI      0.019200
     58 H32A       -8.8350   -1.8830   -4.2220 hc        1 RVI      0.019200
     59 H33        -7.9240    1.0740   -4.2340 hc        1 RVI      0.054367
     60 H33A       -8.7950    0.2350   -5.5820 hc        1 RVI      0.054367
     61 H33B       -9.6070    0.4530   -3.9750 hc        1 RVI      0.054367
     62 H19        -4.8640   -2.9580   -5.8980 hc        1 RVI      0.067700
     63 H19A       -4.2670   -3.8010   -4.4230 hc        1 RVI      0.067700
     64 HN18       -4.0170    0.2490   -7.1730 hn        1 RVI      0.397300
     65 HN1A       -4.1770   -1.3950   -7.1420 hn        1 RVI      0.397300
     66 H16        -3.1460   -2.5980   -2.6070 ha        1 RVI      0.129000
     67 H9         -0.8930    2.2160   -4.3200 ha        1 RVI      0.161000
     68 H3         -1.5420    0.0810    0.9320 ha        1 RVI      0.127000
     69 H2         -0.3560    0.1080    3.1230 ha        1 RVI      0.136000
     70 H1          2.1310    0.3420    3.1890 ha        1 RVI      0.140000
     71 H222       -8.0530   -3.2810   -2.6240 hn        1 RVI      0.456800
@<TRIPOS>BOND
     1    1    2 ar  
     2    1    4 1   
     3    1   31 ar  
     4    2    3 ar  
     5    2    8 1   
     6    3   33 ar  
     7    3   34 1   
     8    4    5 ar  
     9    4    6 ar  
    10    5   30 ar  
    11    5   35 1   
    12    6   28 ar  
    13    6   36 1   
    14    7   23 1   
    15    7   24 ar  
    16    7   27 ar  
    17    8   37 1   
    18    8   38 1   
    19    8   39 1   
    20    9   10 1   
    21    9   20 1   
    22    9   23 1   
    23    9   40 1   
    24   10   18 1   
    25   10   19 2   
    26   11   14 1   
    27   11   16 1   
    28   11   17 1   
    29   11   41 1   
    30   12   14 1   
    31   12   15 1   
    32   12   42 1   
    33   12   43 1   
    34   13   15 1   
    35   13   16 1   
    36   13   44 1   
    37   13   45 1   
    38   14   46 1   
    39   14   47 1   
    40   15   48 1   
    41   15   49 1   
    42   16   50 1   
    43   16   51 1   
    44   17   18 1   
    45   17   52 1   
    46   17   53 1   
    47   18   54 1   
    48   18   71 1   
    49   20   21 1   
    50   20   55 1   
    51   20   56 1   
    52   21   22 1   
    53   21   57 1   
    54   21   58 1   
    55   22   59 1   
    56   22   60 1   
    57   22   61 1   
    58   23   62 1   
    59   23   63 1   
    60   24   25 ar  
    61   24   26 1   
    62   25   29 ar  
    63   26   64 1   
    64   26   65 1   
    65   27   28 ar  
    66   27   66 1   
    67   28   29 ar  
    68   29   30 ar  
    69   30   67 1   
    70   31   32 ar  
    71   31   68 1   
    72   32   33 ar  
    73   32   69 1   
    74   33   70 1   
@<TRIPOS>SUBSTRUCTURE
     1 RVI         1 TEMP              0 ****  ****    0 ROOT
