@<TRIPOS>MOLECULE
RVI
   71    74     1     0     0
SMALL
bcc


@<TRIPOS>ATOM
      1 C4          0.2690    0.3080   -0.2330 cp        1 RVI     -0.061000
      2 C5          1.6680    0.4310   -0.1920 ca        1 RVI     -0.052300
      3 C6          2.3150    0.4520    1.0510 ca        1 RVI     -0.130000
      4 C7         -0.4730    0.2840   -1.4960 cp        1 RVI     -0.016000
      5 C8         -0.3060    1.3370   -2.4400 ca        1 RVI     -0.089000
      6 C10        -1.3590   -0.7370   -1.7720 ca        1 RVI     -0.105000
      7 C15        -3.7060   -1.7660   -4.4930 ca        1 RVI     -0.250600
      8 C17         2.4870    0.5360   -1.4230 c3        1 RVI     -0.062800
      9 C20        -6.0220   -2.5970   -4.1000 c3        1 RVI     -0.118700
     10 C21        -6.8630   -3.8470   -4.2470 c         1 RVI      0.546100
     11 C24        -9.8670   -5.2880   -2.2400 c3        1 RVI     -0.089700
     12 C26       -10.0960   -6.6880   -0.1780 c3        1 RVI     -0.077900
     13 C28       -12.0830   -6.2820   -1.6380 c3        1 RVI     -0.077900
     14 C25        -9.1770   -6.2770   -1.3120 c3        1 RVI     -0.077400
     15 C27       -11.3990   -7.2550   -0.7010 c3        1 RVI     -0.084400
     16 C29       -11.1690   -5.8760   -2.7760 c3        1 RVI     -0.077400
     17 C23        -8.9870   -4.9330   -3.4400 c3        1 RVI      0.099800
     18 N22        -7.7670   -4.1620   -3.0630 n4        1 RVI     -0.685800
     19 O30        -6.9120   -4.6250   -5.1830 o         1 RVI     -0.406100
     20 C31        -6.7560   -1.4180   -4.7240 c3        1 RVI     -0.099400
     21 C32        -8.0600   -1.0880   -4.0310 c3        1 RVI     -0.086400
     22 C33        -8.6050    0.2340   -4.5120 c3        1 RVI     -0.097100
     23 C19        -4.6720   -2.8550   -4.7840 c3        1 RVI     -0.010100
     24 C14        -3.4550   -0.6700   -5.4180 ca        1 RVI      0.623200
     25 N13        -2.5860    0.3170   -5.1370 nb        1 RVI     -0.703000
     26 N18        -4.2030   -0.6020   -6.6180 nh        1 RVI     -0.917500
     27 C16        -3.0050   -1.7850   -3.3070 ca        1 RVI     -0.051000
     28 C11        -2.0910   -0.7510   -2.9860 ca        1 RVI     -0.173300
     29 C12        -1.9190    0.3010   -3.9380 ca        1 RVI      0.441600
     30 C9         -1.0010    1.3570   -3.6200 ca        1 RVI     -0.179300
     31 C3         -0.4520    0.2000    0.9670 ca        1 RVI     -0.116000
     32 C2          0.2030    0.2270    2.1940 ca        1 RVI     -0.135000
     33 C1          1.5920    0.3540    2.2360 ca        1 RVI     -0.111000
     34 H6          3.4120    0.5470    1.0850 ha        1 RVI      0.140000
     35 H8          0.4020    2.1470   -2.1980 ha        1 RVI      0.154000
     36 H10        -1.5030   -1.5590   -1.0540 ha        1 RVI      0.139000
     37 H17         1.9710    0.0710   -2.2990 hc        1 RVI      0.050700
     38 H17A        2.6810    1.6130   -1.6610 hc        1 RVI      0.050700
     39 H17B        3.4740    0.0290   -1.2860 hc        1 RVI      0.050700
     40 H20        -5.8300   -2.3790   -3.0110 hc        1 RVI      0.083700
     41 H24       -10.1160   -4.3550   -1.6600 hc        1 RVI      0.065700
     42 H26        -9.5780   -7.4560    0.4550 hc        1 RVI      0.057450
     43 H26A      -10.3070   -5.8000    0.4740 hc        1 RVI      0.057450
     44 H28       -13.0080   -6.7550   -2.0620 hc        1 RVI      0.057450
     45 H28A      -12.4030   -5.3700   -1.0680 hc        1 RVI      0.057450
     46 H25        -8.2490   -5.8230   -0.8750 hc        1 RVI      0.046200
     47 H25A       -8.8720   -7.1880   -1.8930 hc        1 RVI      0.046200
     48 H27       -11.2020   -8.2200   -1.2380 hc        1 RVI      0.059200
     49 H27A      -12.0790   -7.4840    0.1620 hc        1 RVI      0.059200
     50 H29       -11.6860   -5.1190   -3.4210 hc        1 RVI      0.046200
     51 H29A      -10.9410   -6.7720   -3.4120 hc        1 RVI      0.046200
     52 H23        -8.6520   -5.8740   -3.9670 hx        1 RVI      0.111700
     53 H23A       -9.5690   -4.3030   -4.1730 hx        1 RVI      0.111700
     54 HN22       -8.0480   -3.2770   -2.6220 hn        1 RVI      0.456800
     55 H31        -6.0670   -0.5280   -4.6640 hc        1 RVI      0.099200
     56 H31A       -6.9360   -1.6140   -5.8140 hc        1 RVI      0.099200
     57 H32        -7.9040   -1.0400   -2.9200 hc        1 RVI      0.019700
     58 H32A       -8.8190   -1.8900   -4.2370 hc        1 RVI      0.019700
     59 H33        -9.5820    0.4510   -4.0170 hc        1 RVI      0.054367
     60 H33A       -8.7640    0.2150   -5.6180 hc        1 RVI      0.054367
     61 H33B       -7.8950    1.0630   -4.2740 hc        1 RVI      0.054367
     62 H19        -4.8440   -2.9980   -5.8830 hc        1 RVI      0.067700
     63 H19A       -4.2570   -3.8270   -4.3960 hc        1 RVI      0.067700
     64 HN18       -4.1450   -1.4520   -7.1410 hn        1 RVI      0.397300
     65 HN1A       -3.9790    0.1920   -7.1890 hn        1 RVI      0.397300
     66 H16        -3.1420   -2.6080   -2.5880 ha        1 RVI      0.129000
     67 H9         -0.8640    2.1790   -4.3410 ha        1 RVI      0.161000
     68 H3         -1.5470    0.1030    0.9310 ha        1 RVI      0.127000
     69 H2         -0.3730    0.1490    3.1280 ha        1 RVI      0.136000
     70 H1          2.1150    0.3770    3.2040 ha        1 RVI      0.140000
     71 H222       -7.2290   -4.7040   -2.3770 hn        1 RVI      0.456800
@<TRIPOS>BOND
     1    1    2 ar  
     2    1    4 1   
     3    1   31 ar  
     4    2    3 ar  
     5    2    8 1   
     6    3   33 ar  
     7    3   34 1   
     8    4    5 ar  
     9    4    6 ar  
    10    5   30 ar  
    11    5   35 1   
    12    6   28 ar  
    13    6   36 1   
    14    7   23 1   
    15    7   24 ar  
    16    7   27 ar  
    17    8   37 1   
    18    8   38 1   
    19    8   39 1   
    20    9   10 1   
    21    9   20 1   
    22    9   23 1   
    23    9   40 1   
    24   10   18 1   
    25   10   19 2   
    26   11   14 1   
    27   11   16 1   
    28   11   17 1   
    29   11   41 1   
    30   12   14 1   
    31   12   15 1   
    32   12   42 1   
    33   12   43 1   
    34   13   15 1   
    35   13   16 1   
    36   13   44 1   
    37   13   45 1   
    38   14   46 1   
    39   14   47 1   
    40   15   48 1   
    41   15   49 1   
    42   16   50 1   
    43   16   51 1   
    44   17   18 1   
    45   17   52 1   
    46   17   53 1   
    47   18   54 1   
    48   18   71 1   
    49   20   21 1   
    50   20   55 1   
    51   20   56 1   
    52   21   22 1   
    53   21   57 1   
    54   21   58 1   
    55   22   59 1   
    56   22   60 1   
    57   22   61 1   
    58   23   62 1   
    59   23   63 1   
    60   24   25 ar  
    61   24   26 1   
    62   25   29 ar  
    63   26   64 1   
    64   26   65 1   
    65   27   28 ar  
    66   27   66 1   
    67   28   29 ar  
    68   29   30 ar  
    69   30   67 1   
    70   31   32 ar  
    71   31   68 1   
    72   32   33 ar  
    73   32   69 1   
    74   33   70 1   
@<TRIPOS>SUBSTRUCTURE
     1 RVI         1 TEMP              0 ****  ****    0 ROOT
