@<TRIPOS>MOLECULE
RVI
   72    75     1     0     0
SMALL
bcc


@<TRIPOS>ATOM
      1 C4         -0.2830    1.1230   -0.6730 cp        1 RVI     -0.108000
      2 C5          1.0060    0.9590   -0.1340 ca        1 RVI     -0.036300
      3 C6          1.2900    1.5010    1.1280 ca        1 RVI     -0.127000
      4 C7         -0.6500    0.6050   -1.9880 cp        1 RVI      0.073000
      5 C8          0.1650    0.8860   -3.1220 ca        1 RVI     -0.082000
      6 C10        -1.8120   -0.1350   -2.1530 ca        1 RVI     -0.140000
      7 C15        -3.7080   -1.8600   -4.8770 ca        1 RVI     -0.203600
      8 C17         2.0800    0.2220   -0.8420 c3        1 RVI     -0.069800
      9 C20        -5.7840   -3.0100   -3.9460 c3        1 RVI     -0.118700
     10 C21        -6.7150   -4.1430   -4.3410 c         1 RVI      0.538100
     11 C24        -9.7680   -5.3220   -2.2890 c3        1 RVI     -0.090700
     12 C26       -10.5260   -7.5220   -1.3730 c3        1 RVI     -0.078400
     13 C28       -12.0920   -5.5750   -1.4010 c3        1 RVI     -0.078400
     14 C25        -9.6490   -6.8340   -2.4020 c3        1 RVI     -0.077900
     15 C27       -11.9690   -7.0810   -1.4930 c3        1 RVI     -0.086400
     16 C29       -11.2250   -4.8860   -2.4350 c3        1 RVI     -0.077900
     17 C23        -8.9620   -4.6070   -3.3780 c3        1 RVI      0.104800
     18 N22        -7.4820   -4.8140   -3.2340 n4        1 RVI     -0.674800
     19 O30        -6.9030   -4.5760   -5.4690 o         1 RVI     -0.413100
     20 C31        -6.5900   -1.7920   -3.5040 c3        1 RVI     -0.109400
     21 C32        -6.8630   -1.7530   -2.0140 c3        1 RVI     -0.085400
     22 C33        -7.3680   -0.3930   -1.5970 c3        1 RVI     -0.104100
     23 C19        -4.9070   -2.6900   -5.1600 c3        1 RVI     -0.035100
     24 C14        -2.8100   -1.5040   -5.9500 ca        1 RVI      0.441200
     25 N13        -1.6960   -0.7820   -5.8140 nb        1 RVI     -0.602000
     26 N18        -3.1120   -1.9510   -7.3300 n4        1 RVI     -0.819300
     27 C16        -3.3620   -1.3920   -3.6250 ca        1 RVI     -0.050000
     28 C11        -2.1870   -0.6190   -3.4250 ca        1 RVI     -0.102300
     29 C12        -1.3600   -0.3330   -4.5660 ca        1 RVI      0.398600
     30 C9         -0.1690    0.4410   -4.3760 ca        1 RVI     -0.147300
     31 C3         -1.2620    1.8110    0.0650 ca        1 RVI     -0.106000
     32 C2         -0.9630    2.3500    1.3110 ca        1 RVI     -0.129000
     33 C1          0.3190    2.1950    1.8440 ca        1 RVI     -0.085000
     34 H6          2.2980    1.3730    1.5540 ha        1 RVI      0.154000
     35 H8          1.0810    1.4870   -2.9740 ha        1 RVI      0.181000
     36 H10        -2.4510   -0.3540   -1.2830 ha        1 RVI      0.158000
     37 H17         2.7420    0.9420   -1.3880 hc        1 RVI      0.054367
     38 H17A        2.7150   -0.3420   -0.1130 hc        1 RVI      0.054367
     39 H17B        1.6650   -0.5090   -1.5780 hc        1 RVI      0.054367
     40 H20        -5.1270   -3.3710   -3.1030 hc        1 RVI      0.104700
     41 H24        -9.4040   -4.9980   -1.2730 hc        1 RVI      0.069700
     42 H26       -10.1460   -7.2930   -0.3430 hc        1 RVI      0.062700
     43 H26A      -10.4580   -8.6330   -1.5180 hc        1 RVI      0.062700
     44 H28       -13.1610   -5.2730   -1.5630 hc        1 RVI      0.062700
     45 H28A      -11.7990   -5.2330   -0.3740 hc        1 RVI      0.062700
     46 H25        -8.5870   -7.1580   -2.2410 hc        1 RVI      0.046450
     47 H25A       -9.9570   -7.1600   -3.4310 hc        1 RVI      0.046450
     48 H27       -12.3930   -7.4360   -2.4690 hc        1 RVI      0.065700
     49 H27A      -12.5720   -7.5560   -0.6740 hc        1 RVI      0.065700
     50 H29       -11.3000   -3.7750   -2.3090 hc        1 RVI      0.046450
     51 H29A      -11.5910   -5.1440   -3.4630 hc        1 RVI      0.046450
     52 H23        -9.2610   -4.9930   -4.3960 hx        1 RVI      0.111200
     53 H23A       -9.1530   -3.4960   -3.3300 hx        1 RVI      0.111200
     54 HN22       -7.1770   -4.4520   -2.3230 hn        1 RVI      0.466800
     55 H31        -6.0050   -0.8700   -3.7820 hc        1 RVI      0.082700
     56 H31A       -7.5570   -1.7370   -4.0720 hc        1 RVI      0.082700
     57 H32        -5.9260   -1.9930   -1.4440 hc        1 RVI      0.034700
     58 H32A       -7.6340   -2.5200   -1.7350 hc        1 RVI      0.034700
     59 H33        -6.5990    0.3940   -1.7940 hc        1 RVI      0.060033
     60 H33A       -8.2970   -0.1250   -2.1560 hc        1 RVI      0.060033
     61 H33B       -7.6000   -0.3900   -0.5030 hc        1 RVI      0.060033
     62 H19        -5.5560   -2.1710   -5.9210 hc        1 RVI      0.067200
     63 H19A       -4.5690   -3.6670   -5.6120 hc        1 RVI      0.067200
     64 HN18       -4.0210   -1.5700   -7.6120 hn        1 RVI      0.471467
     65 HN1A       -3.1440   -2.9750   -7.3500 hn        1 RVI      0.471467
     66 H16        -3.9930   -1.6010   -2.7450 ha        1 RVI      0.155000
     67 H9          0.4690    0.6740   -5.2460 ha        1 RVI      0.178000
     68 H3         -2.2690    1.9420   -0.3590 ha        1 RVI      0.127000
     69 H2         -1.7320    2.9000    1.8740 ha        1 RVI      0.150000
     70 H1          0.5620    2.6220    2.8300 ha        1 RVI      0.156000
     71 H222       -7.3010   -5.8290   -3.2610 hn        1 RVI      0.466800
     72 H183       -2.3890   -1.6230   -7.9900 hn        1 RVI      0.471467
@<TRIPOS>BOND
     1    1    2 ar  
     2    1    4 1   
     3    1   31 ar  
     4    2    3 ar  
     5    2    8 1   
     6    3   33 ar  
     7    3   34 1   
     8    4    5 ar  
     9    4    6 ar  
    10    5   30 ar  
    11    5   35 1   
    12    6   28 ar  
    13    6   36 1   
    14    7   23 1   
    15    7   24 ar  
    16    7   27 ar  
    17    8   37 1   
    18    8   38 1   
    19    8   39 1   
    20    9   10 1   
    21    9   20 1   
    22    9   23 1   
    23    9   40 1   
    24   10   18 1   
    25   10   19 2   
    26   11   14 1   
    27   11   16 1   
    28   11   17 1   
    29   11   41 1   
    30   12   14 1   
    31   12   15 1   
    32   12   42 1   
    33   12   43 1   
    34   13   15 1   
    35   13   16 1   
    36   13   44 1   
    37   13   45 1   
    38   14   46 1   
    39   14   47 1   
    40   15   48 1   
    41   15   49 1   
    42   16   50 1   
    43   16   51 1   
    44   17   18 1   
    45   17   52 1   
    46   17   53 1   
    47   18   54 1   
    48   18   71 1   
    49   20   21 1   
    50   20   55 1   
    51   20   56 1   
    52   21   22 1   
    53   21   57 1   
    54   21   58 1   
    55   22   59 1   
    56   22   60 1   
    57   22   61 1   
    58   23   62 1   
    59   23   63 1   
    60   24   25 ar  
    61   24   26 1   
    62   25   29 ar  
    63   26   64 1   
    64   26   65 1   
    65   26   72 1   
    66   27   28 ar  
    67   27   66 1   
    68   28   29 ar  
    69   29   30 ar  
    70   30   67 1   
    71   31   32 ar  
    72   31   68 1   
    73   32   33 ar  
    74   32   69 1   
    75   33   70 1   
@<TRIPOS>SUBSTRUCTURE
     1 RVI         1 TEMP              0 ****  ****    0 ROOT
