@<TRIPOS>MOLECULE
RVN
   33    36     1     0     0
SMALL
bcc


@<TRIPOS>ATOM
      1 O1          0.0560   -0.1380   -0.2000 o         1 RVN     -0.606500
      2 C2          1.2870   -0.0740   -0.1170 c         1 RVN      0.704700
      3 C4          1.9850   -0.0310   -2.5080 ce        1 RVN      0.064800
      4 C5          2.8670    0.1670   -3.6480 ca        1 RVN     -0.091800
      5 C6          3.8040    1.2080   -3.6350 ca        1 RVN     -0.128000
      6 C7          4.6210    1.4940   -4.7390 ca        1 RVN     -0.156000
      7 C8          4.4520    0.6810   -5.8420 ca        1 RVN      0.050100
      8 O9          5.1200    0.7370   -7.0640 os        1 RVN     -0.355900
      9 C10         4.5670   -0.3200   -7.8800 c3        1 RVN      0.317200
     10 O11         3.5530   -0.9950   -7.1160 os        1 RVN     -0.305900
     11 C12         3.5030   -0.3720   -5.8660 ca        1 RVN      0.058100
     12 C13         2.6830   -0.6600   -4.7890 ca        1 RVN     -0.051600
     13 C14         1.6320   -1.7730   -4.8040 c         1 RVN      0.920200
     14 O15         0.4290   -1.4130   -4.6810 o         1 RVN     -0.802800
     15 O16         2.0380   -2.9570   -4.9150 o         1 RVN     -0.802800
     16 C17         3.6150    0.0200   -0.5120 ca        1 RVN     -0.067800
     17 C18         3.3480    0.0140    0.9090 ca        1 RVN      0.046600
     18 N19         1.9610    0.0210    1.1330 ns        1 RVN     -0.483100
     19 C20         4.3860    0.0140    1.8350 ca        1 RVN     -0.183000
     20 C21         5.7000    0.0120    1.3500 ca        1 RVN     -0.114000
     21 C22         5.9650   -0.0020   -0.0130 ca        1 RVN     -0.168000
     22 C23         4.9230   -0.0040   -0.9540 ca        1 RVN     -0.083000
     23 C3          2.3250   -0.0150   -1.2070 cd        1 RVN     -0.182400
     24 H19         1.5520   -0.2150    1.9980 hn        1 RVN      0.320500
     25 H4          0.9200   -0.2180   -2.7910 ha        1 RVN      0.206000
     26 H6          3.8960    1.8340   -2.7340 ha        1 RVN      0.131000
     27 H7          5.3460    2.3140   -4.7230 ha        1 RVN      0.135000
     28 H101        5.3830   -1.0450   -8.1220 h2        1 RVN      0.053200
     29 H102        4.0940    0.1400   -8.7830 h2        1 RVN      0.053200
     30 H23         5.1510   -0.0400   -2.0310 ha        1 RVN      0.156000
     31 H20         4.1900    0.0110    2.9140 ha        1 RVN      0.125000
     32 H21         6.5320    0.0150    2.0700 ha        1 RVN      0.117000
     33 H22         7.0050   -0.0180   -0.3690 ha        1 RVN      0.124000
@<TRIPOS>BOND
     1    1    2 2   
     2    2   18 1   
     3    2   23 1   
     4    3    4 1   
     5    3   23 2   
     6    3   25 1   
     7    4    5 ar  
     8    4   12 ar  
     9    5    6 ar  
    10    5   26 1   
    11    6    7 ar  
    12    6   27 1   
    13    7    8 1   
    14    7   11 ar  
    15    8    9 1   
    16    9   10 1   
    17    9   28 1   
    18    9   29 1   
    19   10   11 1   
    20   11   12 ar  
    21   12   13 1   
    22   13   14 1   
    23   13   15 1   
    24   16   17 ar  
    25   16   22 ar  
    26   16   23 1   
    27   17   18 1   
    28   17   19 ar  
    29   18   24 1   
    30   19   20 ar  
    31   19   31 1   
    32   20   21 ar  
    33   20   32 1   
    34   21   22 ar  
    35   21   33 1   
    36   22   30 1   
@<TRIPOS>SUBSTRUCTURE
     1 RVN         1 TEMP              0 ****  ****    0 ROOT
