@<TRIPOS>MOLECULE
RVN
   33    36     1     0     0
SMALL
bcc


@<TRIPOS>ATOM
      1 O1          0.0620   -0.1540   -0.1910 o         1 RVN     -0.606500
      2 C2          1.2940   -0.0870   -0.1120 c         1 RVN      0.704700
      3 C4          1.9860   -0.0350   -2.5040 ce        1 RVN      0.064800
      4 C5          2.8640    0.1690   -3.6460 ca        1 RVN     -0.091800
      5 C6          3.7990    1.2120   -3.6320 ca        1 RVN     -0.128000
      6 C7          4.6130    1.5030   -4.7360 ca        1 RVN     -0.156000
      7 C8          4.4430    0.6940   -5.8420 ca        1 RVN      0.050100
      8 O9          5.1090    0.7550   -7.0640 os        1 RVN     -0.355900
      9 C10         4.5570   -0.3010   -7.8830 c3        1 RVN      0.317200
     10 O11         3.5460   -0.9810   -7.1190 os        1 RVN     -0.305900
     11 C12         3.4970   -0.3620   -5.8660 ca        1 RVN      0.058100
     12 C13         2.6790   -0.6550   -4.7890 ca        1 RVN     -0.051600
     13 C14         1.6310   -1.7710   -4.8050 c         1 RVN      0.920200
     14 O15         0.4280   -1.4130   -4.6780 o         1 RVN     -0.802800
     15 O16         2.0400   -2.9530   -4.9210 o         1 RVN     -0.802800
     16 C17         3.6200    0.0130   -0.5120 ca        1 RVN     -0.068800
     17 C18         3.3560    0.0020    0.9100 ca        1 RVN      0.046600
     18 N19         1.9710    0.0050    1.1370 n         1 RVN     -0.483100
     19 C20         4.3970    0.0010    1.8330 ca        1 RVN     -0.183000
     20 C21         5.7100    0.0040    1.3450 ca        1 RVN     -0.114000
     21 C22         5.9710   -0.0050   -0.0190 ca        1 RVN     -0.168000
     22 C23         4.9270   -0.0070   -0.9570 ca        1 RVN     -0.083000
     23 C3          2.3290   -0.0230   -1.2040 cd        1 RVN     -0.182400
     24 H19         1.5640   -0.2340    2.0020 hn        1 RVN      0.320500
     25 H4          0.9200   -0.2230   -2.7860 ha        1 RVN      0.206000
     26 H6          3.8910    1.8350   -2.7290 ha        1 RVN      0.131000
     27 H7          5.3360    2.3250   -4.7200 ha        1 RVN      0.135000
     28 H101        5.3740   -1.0240   -8.1280 h2        1 RVN      0.053200
     29 H102        4.0810    0.1600   -8.7830 h2        1 RVN      0.053200
     30 H23         5.1530   -0.0380   -2.0350 ha        1 RVN      0.156000
     31 H20         4.2030   -0.0050    2.9130 ha        1 RVN      0.125000
     32 H21         6.5430    0.0060    2.0630 ha        1 RVN      0.117000
     33 H22         7.0110   -0.0180   -0.3780 ha        1 RVN      0.124000
@<TRIPOS>BOND
     1    1    2 2   
     2    2   18 1   
     3    2   23 1   
     4    3    4 1   
     5    3   23 2   
     6    3   25 1   
     7    4    5 ar  
     8    4   12 ar  
     9    5    6 ar  
    10    5   26 1   
    11    6    7 ar  
    12    6   27 1   
    13    7    8 1   
    14    7   11 ar  
    15    8    9 1   
    16    9   10 1   
    17    9   28 1   
    18    9   29 1   
    19   10   11 1   
    20   11   12 ar  
    21   12   13 1   
    22   13   14 1   
    23   13   15 1   
    24   16   17 ar  
    25   16   22 ar  
    26   16   23 1   
    27   17   18 1   
    28   17   19 ar  
    29   18   24 1   
    30   19   20 ar  
    31   19   31 1   
    32   20   21 ar  
    33   20   32 1   
    34   21   22 ar  
    35   21   33 1   
    36   22   30 1   
@<TRIPOS>SUBSTRUCTURE
     1 RVN         1 TEMP              0 ****  ****    0 ROOT
