@<TRIPOS>MOLECULE
RVN
   33    36     1     0     0
SMALL
bcc


@<TRIPOS>ATOM
      1 O1          0.0670   -0.1570   -0.1860 o         1 RVN     -0.606500
      2 C2          1.2980   -0.0900   -0.1090 c         1 RVN      0.704700
      3 C4          1.9870   -0.0360   -2.5020 ce        1 RVN      0.064800
      4 C5          2.8640    0.1690   -3.6450 ca        1 RVN     -0.091800
      5 C6          3.7990    1.2120   -3.6310 ca        1 RVN     -0.128000
      6 C7          4.6110    1.5040   -4.7360 ca        1 RVN     -0.156000
      7 C8          4.4400    0.6950   -5.8420 ca        1 RVN      0.050100
      8 O9          5.1040    0.7570   -7.0660 os        1 RVN     -0.355900
      9 C10         4.5510   -0.2980   -7.8840 c3        1 RVN      0.317200
     10 O11         3.5410   -0.9790   -7.1190 os        1 RVN     -0.305900
     11 C12         3.4940   -0.3610   -5.8660 ca        1 RVN      0.058100
     12 C13         2.6780   -0.6550   -4.7870 ca        1 RVN     -0.051600
     13 C14         1.6310   -1.7710   -4.8030 c         1 RVN      0.920200
     14 O15         0.4280   -1.4140   -4.6740 o         1 RVN     -0.802800
     15 O16         2.0390   -2.9530   -4.9190 o         1 RVN     -0.802800
     16 C17         3.6240    0.0120   -0.5120 ca        1 RVN     -0.067800
     17 C18         3.3620   -0.0000    0.9100 ca        1 RVN      0.046600
     18 N19         1.9770    0.0020    1.1390 n         1 RVN     -0.483100
     19 C20         4.4040   -0.0010    1.8330 ca        1 RVN     -0.183000
     20 C21         5.7160    0.0030    1.3430 ca        1 RVN     -0.114000
     21 C22         5.9760   -0.0050   -0.0210 ca        1 RVN     -0.168000
     22 C23         4.9310   -0.0070   -0.9580 ca        1 RVN     -0.083000
     23 C3          2.3320   -0.0240   -1.2020 cd        1 RVN     -0.182400
     24 H19         1.5710   -0.2370    2.0050 hn        1 RVN      0.320500
     25 H4          0.9210   -0.2250   -2.7820 ha        1 RVN      0.206000
     26 H6          3.8920    1.8350   -2.7280 ha        1 RVN      0.131000
     27 H7          5.3330    2.3270   -4.7210 ha        1 RVN      0.135000
     28 H101        4.0730    0.1630   -8.7840 h2        1 RVN      0.053200
     29 H102        5.3680   -1.0200   -8.1310 h2        1 RVN      0.053200
     30 H23         5.1550   -0.0370   -2.0360 ha        1 RVN      0.156000
     31 H20         4.2120   -0.0070    2.9130 ha        1 RVN      0.125000
     32 H21         6.5510    0.0060    2.0600 ha        1 RVN      0.117000
     33 H22         7.0150   -0.0170   -0.3820 ha        1 RVN      0.124000
@<TRIPOS>BOND
     1    1    2 2   
     2    2   18 1   
     3    2   23 1   
     4    3    4 1   
     5    3   23 2   
     6    3   25 1   
     7    4    5 ar  
     8    4   12 ar  
     9    5    6 ar  
    10    5   26 1   
    11    6    7 ar  
    12    6   27 1   
    13    7    8 1   
    14    7   11 ar  
    15    8    9 1   
    16    9   10 1   
    17    9   28 1   
    18    9   29 1   
    19   10   11 1   
    20   11   12 ar  
    21   12   13 1   
    22   13   14 1   
    23   13   15 1   
    24   16   17 ar  
    25   16   22 ar  
    26   16   23 1   
    27   17   18 1   
    28   17   19 ar  
    29   18   24 1   
    30   19   20 ar  
    31   19   31 1   
    32   20   21 ar  
    33   20   32 1   
    34   21   22 ar  
    35   21   33 1   
    36   22   30 1   
@<TRIPOS>SUBSTRUCTURE
     1 RVN         1 TEMP              0 ****  ****    0 ROOT
