@<TRIPOS>MOLECULE
RVN
   33    36     1     0     0
SMALL
bcc


@<TRIPOS>ATOM
      1 O1          2.9930   -2.7790    0.8340 o         1 RVN     -0.606500
      2 C2          2.9570   -1.5910    0.4940 c         1 RVN      0.704700
      3 C4          0.5200   -1.0820    0.5730 ce        1 RVN      0.064800
      4 C5         -0.6830   -0.2640    0.6040 ca        1 RVN     -0.091800
      5 C6         -0.6780    0.9610    1.2850 ca        1 RVN     -0.128000
      6 C7         -1.8310    1.7490    1.4150 ca        1 RVN     -0.156000
      7 C8         -2.9740    1.2500    0.8240 ca        1 RVN      0.050100
      8 O9         -4.2470    1.8150    0.7970 os        1 RVN     -0.355900
      9 C10        -5.0880    0.8930    0.0660 c3        1 RVN      0.317200
     10 O11        -4.2840   -0.2310   -0.3300 os        1 RVN     -0.305900
     11 C12        -2.9890    0.0100    0.1360 ca        1 RVN      0.058100
     12 C13        -1.8630   -0.7850    0.0090 ca        1 RVN     -0.051600
     13 C14        -1.8630   -2.1390   -0.7040 c         1 RVN      0.920200
     14 O15        -1.5930   -3.1470    0.0040 o         1 RVN     -0.802800
     15 O16        -2.1100   -2.1500   -1.9360 o         1 RVN     -0.802800
     16 C17         2.3410    0.6070   -0.1150 ca        1 RVN     -0.068800
     17 C18         3.7760    0.4490   -0.1910 ca        1 RVN      0.046600
     18 N19         4.1370   -0.8400    0.2330 n         1 RVN     -0.483100
     19 C20         4.5910    1.4910   -0.6220 ca        1 RVN     -0.183000
     20 C21         3.9800    2.6970   -0.9890 ca        1 RVN     -0.114000
     21 C22         2.6000    2.8490   -0.9380 ca        1 RVN     -0.168000
     22 C23         1.7710    1.8020   -0.5060 ca        1 RVN     -0.083000
     23 C3          1.7770   -0.6680    0.3380 cd        1 RVN     -0.182400
     24 H19         5.0160   -1.2440    0.0460 hn        1 RVN      0.320500
     25 H4          0.3300   -2.1670    0.7680 ha        1 RVN      0.206000
     26 H6          0.2570    1.3130    1.7470 ha        1 RVN      0.131000
     27 H7         -1.8210    2.7010    1.9550 ha        1 RVN      0.135000
     28 H101       -5.8990    0.5360    0.7480 h2        1 RVN      0.053200
     29 H102       -5.4680    1.4100   -0.8500 h2        1 RVN      0.053200
     30 H23         0.6770    1.9320   -0.4940 ha        1 RVN      0.156000
     31 H20         5.6810    1.3790   -0.6800 ha        1 RVN      0.125000
     32 H21         4.6110    3.5310   -1.3290 ha        1 RVN      0.117000
     33 H22         2.1420    3.8000   -1.2450 ha        1 RVN      0.124000
@<TRIPOS>BOND
     1    1    2 2   
     2    2   18 1   
     3    2   23 1   
     4    3    4 1   
     5    3   23 2   
     6    3   25 1   
     7    4    5 ar  
     8    4   12 ar  
     9    5    6 ar  
    10    5   26 1   
    11    6    7 ar  
    12    6   27 1   
    13    7    8 1   
    14    7   11 ar  
    15    8    9 1   
    16    9   10 1   
    17    9   28 1   
    18    9   29 1   
    19   10   11 1   
    20   11   12 ar  
    21   12   13 1   
    22   13   14 1   
    23   13   15 1   
    24   16   17 ar  
    25   16   22 ar  
    26   16   23 1   
    27   17   18 1   
    28   17   19 ar  
    29   18   24 1   
    30   19   20 ar  
    31   19   31 1   
    32   20   21 ar  
    33   20   32 1   
    34   21   22 ar  
    35   21   33 1   
    36   22   30 1   
@<TRIPOS>SUBSTRUCTURE
     1 RVN         1 TEMP              0 ****  ****    0 ROOT
