@<TRIPOS>MOLECULE
RVP
   32    30     1     0     0
SMALL
bcc


@<TRIPOS>ATOM
      1 P          -3.2860   -4.0360   -0.0780 p3        1 RVP      2.538000
      2 O1P        -2.7520   -4.3530   -1.4480 os        1 RVP     -1.252000
      3 O2P        -2.6450   -4.9400    0.9300 o         1 RVP     -1.240000
      4 O3P        -4.7940   -4.2440   -0.0610 o         1 RVP     -1.240000
      5 O5'        -2.9570   -2.5160    0.2820 os        1 RVP     -0.730000
      6 C5'        -1.6810   -2.2060    0.8860 c3        1 RVP      0.074000
      7 C4'        -1.5850   -0.6840    1.1320 c3        1 RVP     -0.049000
      8 O4'        -0.3440   -0.3360    1.4040 os        1 RVP     -0.290000
      9 C3'        -1.9420    0.0780   -0.1360 c3        1 RVP     -0.035000
     10 O3'        -3.1400    0.7010    0.0040 oh        1 RVP     -0.396000
     11 C2'        -0.7980    1.1320   -0.3310 c3        1 RVP     -0.003000
     12 O2'        -1.3790    2.4800   -0.5780 oh        1 RVP     -0.349000
     13 C1'        -0.1450    1.1240    0.7730 c3        1 RVP      0.143000
     14 N9          1.2620    1.3730    0.5180 n3        1 RVP     -0.174000
     15 C8          2.2130    1.6230    1.4540 c1        1 RVP     -0.038000
     16 N7          3.4090    1.7570    0.8130 n2        1 RVP     -0.202000
     17 C5          3.1950    1.5890   -0.5120 c1        1 RVP     -0.203000
     18 C6          4.2550    1.6700   -1.6130 c1        1 RVP      0.404000
     19 O6          3.9390    1.5020   -2.7680 o         1 RVP     -0.405000
     20 N1          5.6290    1.8280   -1.2690 n3        1 RVP     -0.427000
     21 N4          1.8670    1.3510   -0.6970 n2        1 RVP     -0.052000
     22 H5'1       -0.9550   -2.4850    0.2830 h1        1 RVP      0.040000
     23 H5'2       -1.5990   -2.6840    1.7470 h1        1 RVP      0.040000
     24 H4'        -2.1850   -0.4180    1.8690 h1        1 RVP      0.090000
     25 H3'        -1.9670   -0.5420   -0.9090 h1        1 RVP      0.206000
     26 HO'3       -3.7020    0.4120   -0.6270 ho        1 RVP      0.297000
     27 H2'        -0.2150    0.8690   -1.0720 h1        1 RVP      0.118000
     28 HO'2       -1.3920    2.6440   -1.4640 ho        1 RVP      0.223000
     29 H1'        -0.5080    1.8150    1.3890 h2        1 RVP      0.129000
     30 HC8         2.0520    1.7810    2.4130 DU        1 RVP      0.344000
     31 HN1         5.8940    1.7340   -0.4050 hn        1 RVP      0.219500
     32 HN2         6.2560    1.9810   -1.9310 hn        1 RVP      0.219500
@<TRIPOS>BOND
     1    1    3 1   
     2    1    4 1   
     3    1    5 1   
     4    5    6 1   
     5    6    7 1   
     6    6   22 1   
     7    6   23 1   
     8    7    8 1   
     9    7    9 1   
    10    7   24 1   
    11    8   13 1   
    12    9   10 1   
    13    9   11 1   
    14    9   25 1   
    15   10   26 1   
    16   11   12 1   
    17   11   13 1   
    18   11   27 1   
    19   12   28 1   
    20   13   14 1   
    21   13   29 1   
    22   14   15 1   
    23   14   21 1   
    24   15   16 1   
    25   16   17 1   
    26   17   21 1   
    27   18   19 1   
    28   18   20 1   
    29   20   31 1   
    30   20   32 1   
@<TRIPOS>SUBSTRUCTURE
     1 RVP         1 TEMP              0 ****  ****    0 ROOT
