@<TRIPOS>MOLECULE
RVP
   33    34     1     0     0
SMALL
bcc


@<TRIPOS>ATOM
      1 P           0.0000    0.0000    0.0000 p5        1 RVP      0.777900
      2 O1P         1.6090    0.0000    0.0000 o         1 RVP     -0.563167
      3 O2P        -0.5350    0.0000    1.5190 o         1 RVP     -0.563167
      4 O3P        -0.4950    1.2070   -0.6960 o         1 RVP     -0.563167
      5 O5'        -0.5370   -1.3150   -0.7580 os        1 RVP     -0.446200
      6 C5'        -0.0330   -1.2560   -2.0930 c3        1 RVP      0.237400
      7 C4'        -0.5070   -2.4830   -2.8730 c3        1 RVP      0.150100
      8 O4'        -1.9500   -2.5030   -2.9470 os        1 RVP     -0.346600
      9 C3'        -0.0380   -2.4060   -4.3420 c3        1 RVP      0.140100
     10 O3'         1.1420   -3.1880   -4.5330 oh        1 RVP     -0.561800
     11 C2'        -1.2190   -2.9990   -5.1460 c3        1 RVP      0.115100
     12 O2'        -0.8020   -4.1650   -5.8600 oh        1 RVP     -0.561800
     13 C1'        -2.2610   -3.3600   -4.0650 c3        1 RVP      0.128800
     14 N9         -3.6160   -3.0910   -4.5540 na        1 RVP      0.467600
     15 C8         -4.6080   -3.9940   -4.6570 cc        1 RVP      0.235400
     16 N7         -5.6590   -3.3740   -5.1310 nd        1 RVP     -0.736000
     17 C5         -5.3130   -2.0880   -5.3190 cd        1 RVP      0.473500
     18 C6         -6.1920   -1.0190   -5.8400 c         1 RVP      0.018600
     19 O6         -5.7630    0.1120   -5.9660 o         1 RVP     -0.598100
     20 N1         -7.4660   -1.2970   -6.1760 nz        1 RVP      0.298600
     21 N4         -4.0560   -1.9510   -4.9610 nc        1 RVP     -0.594800
     22 H5'1       -0.3960   -0.3580   -2.5770 h1        1 RVP      0.014200
     23 H5'2        1.0500   -1.2410   -2.0690 h1        1 RVP      0.014200
     24 H4'        -0.1440   -3.3930   -2.4110 h1        1 RVP      0.034700
     25 H3'         0.1320   -1.3750   -4.6290 h1        1 RVP      0.028700
     26 HO'3        1.7990   -2.6660   -4.9640 ho        1 RVP      0.384000
     27 H2'        -1.6220   -2.2570   -5.8240 h1        1 RVP      0.032700
     28 HO'2       -0.9200   -4.0260   -6.7850 ho        1 RVP      0.380000
     29 H1'        -2.1580   -4.4000   -3.7790 h2        1 RVP      0.048700
     30 HC8        -4.5800   -5.0150   -4.2980 h5        1 RVP      0.027100
     31 HN1        -7.4770   -1.9920   -6.8960 hn        1 RVP      0.176133
     32 HN2        -7.9550   -1.6410   -5.3730 hn        1 RVP      0.176133
     33 H13        -7.9130   -0.4660   -6.5080 hn        1 RVP      0.176133
@<TRIPOS>BOND
     1    1    2 1   
     2    1    3 1   
     3    1    4 1   
     4    1    5 1   
     5    5    6 1   
     6    6    7 1   
     7    6   22 1   
     8    6   23 1   
     9    7    8 1   
    10    7    9 1   
    11    7   24 1   
    12    8   13 1   
    13    9   10 1   
    14    9   11 1   
    15    9   25 1   
    16   10   26 1   
    17   11   12 1   
    18   11   13 1   
    19   11   27 1   
    20   12   28 1   
    21   13   14 1   
    22   13   29 1   
    23   14   15 1   
    24   14   21 1   
    25   15   16 2   
    26   15   30 1   
    27   16   17 1   
    28   17   18 1   
    29   17   21 2   
    30   18   19 2   
    31   18   20 1   
    32   20   31 1   
    33   20   32 1   
    34   20   33 1   
@<TRIPOS>SUBSTRUCTURE
     1 RVP         1 TEMP              0 ****  ****    0 ROOT
