@<TRIPOS>MOLECULE
RVP
   32    33     1     0     0
SMALL
bcc


@<TRIPOS>ATOM
      1 P           0.6140    0.3620   -2.7860 p5        1 RVP      1.347900
      2 O1P        -0.5430    1.2610   -3.1290 o         1 RVP     -0.922833
      3 O2P         1.6500    0.0510   -3.8140 o         1 RVP     -0.922833
      4 O3P         1.1000    0.6380   -1.3750 o         1 RVP     -0.922833
      5 O5'        -0.2410   -1.1350   -2.5920 os        1 RVP     -0.572200
      6 C5'        -0.3870   -1.6500   -1.3340 c3        1 RVP      0.210400
      7 C4'        -1.7960   -1.4060   -0.7320 c3        1 RVP      0.098100
      8 O4'        -1.6940   -1.3650    0.7200 os        1 RVP     -0.444600
      9 C3'        -2.3640   -0.0450   -1.1490 c3        1 RVP      0.053100
     10 O3'        -3.7810   -0.0710   -1.0550 oh        1 RVP     -0.625800
     11 C2'        -1.7080    0.8890   -0.1050 c3        1 RVP      0.039100
     12 O2'        -2.4980    2.0290    0.1670 oh        1 RVP     -0.625800
     13 C1'        -1.6510   -0.0050    1.1670 c3        1 RVP      0.259800
     14 N9         -0.4640    0.2090    2.0110 na        1 RVP     -0.050400
     15 C8          0.8720    0.4050    1.5760 cc        1 RVP      0.447400
     16 N7          1.6750    0.4630    2.6570 nd        1 RVP     -0.745000
     17 C5          0.7910    0.2850    3.7490 cd        1 RVP      0.407500
     18 C6          1.2340    0.2940    5.1630 c         1 RVP      0.620600
     19 O6          0.4770    0.5420    6.1260 o         1 RVP     -0.643100
     20 N1          2.5560   -0.0150    5.4090 n         1 RVP     -0.670000
     21 N4         -0.5100    0.1210    3.3450 nc        1 RVP     -0.476800
     22 H5'1        0.3740   -1.2180   -0.6220 h1        1 RVP      0.004200
     23 H5'2       -0.2490   -2.7710   -1.3760 h1        1 RVP      0.004200
     24 H4'        -2.5030   -2.2460   -0.9390 h1        1 RVP      0.054700
     25 H3'        -2.0210    0.2510   -2.1960 h1        1 RVP      0.185700
     26 HO'3       -4.0520    0.8550   -1.0410 ho        1 RVP      0.394000
     27 H2'        -0.6710    1.1540   -0.5160 h1        1 RVP      0.182700
     28 HO'2       -2.2230    2.6820   -0.4900 ho        1 RVP      0.420000
     29 H1'        -2.5650    0.1540    1.8120 h2        1 RVP      0.079700
     30 HC8         1.1640    0.5020    0.4860 h5        1 RVP      0.206100
     31 HN1         2.9090    0.1190    6.3210 hn        1 RVP      0.303000
     32 HN2         3.2000   -0.0860    4.6610 hn        1 RVP      0.303000
@<TRIPOS>BOND
     1    1    2 1   
     2    1    3 1   
     3    1    4 1   
     4    1    5 1   
     5    5    6 1   
     6    6    7 1   
     7    6   22 1   
     8    6   23 1   
     9    7    8 1   
    10    7    9 1   
    11    7   24 1   
    12    8   13 1   
    13    9   10 1   
    14    9   11 1   
    15    9   25 1   
    16   10   26 1   
    17   11   12 1   
    18   11   13 1   
    19   11   27 1   
    20   12   28 1   
    21   13   14 1   
    22   13   29 1   
    23   14   15 1   
    24   14   21 1   
    25   15   16 2   
    26   15   30 1   
    27   16   17 1   
    28   17   18 1   
    29   17   21 2   
    30   18   19 2   
    31   18   20 1   
    32   20   31 1   
    33   20   32 1   
@<TRIPOS>SUBSTRUCTURE
     1 RVP         1 TEMP              0 ****  ****    0 ROOT
