@<TRIPOS>MOLECULE
RVX
   32    31     1     0     0
SMALL
bcc


@<TRIPOS>ATOM
      1 N           2.2140    2.1210   -1.2880 n3        1 RVX     -0.909800
      2 CA          2.6310    1.1400   -0.2970 c3        1 RVX     -0.015500
      3 C           3.8950    0.3040   -0.7110 c         1 RVX      0.893600
      4 O           4.3940    0.5220   -1.8500 o         1 RVX     -0.832300
      5 CB          1.5260    0.1330    0.0460 c3        1 RVX      0.193400
      6 OG          0.4560    0.7420    0.7470 os        1 RVX     -0.593200
      7 P1         -0.9660    0.9080    0.0480 p5        1 RVX      1.555300
      8 O1         -1.9510    1.4890    0.9580 o         1 RVX     -0.851300
      9 C1         -0.8570    1.5560   -1.4470 c3        1 RVX     -0.430300
     10 O2         -1.3320   -0.6470   -0.2660 os        1 RVX     -0.603200
     11 C2         -1.9330   -1.3950    0.7590 c3        1 RVX      0.183400
     12 C3         -3.2590   -1.9880    0.2740 c3        1 RVX     -0.084700
     13 C5         -3.0180   -3.0120   -0.8120 c3        1 RVX     -0.087100
     14 C4         -3.9970   -2.6000    1.4440 c3        1 RVX     -0.087100
     15 OXT         4.3320   -0.5290    0.1260 o         1 RVX     -0.832300
     16 HN1         2.8690    2.8820   -1.2630 hn        1 RVX      0.337800
     17 HN2         2.3060    1.7000   -2.1990 hn        1 RVX      0.337800
     18 HA          2.8910    1.6860    0.6540 h1        1 RVX      0.061700
     19 HB1C        1.1190   -0.3740   -0.8690 h1        1 RVX      0.050700
     20 HB2C        1.9750   -0.6320    0.7420 h1        1 RVX      0.050700
     21 H11C       -0.2300    0.9510   -2.1490 hc        1 RVX      0.109033
     22 H12C       -1.8570    1.6670   -1.9300 hc        1 RVX      0.109033
     23 H13C       -0.3930    2.5750   -1.4340 hc        1 RVX      0.109033
     24 H21C       -1.2320   -2.2330    1.0330 h1        1 RVX      0.047200
     25 H22C       -2.1120   -0.7360    1.6550 h1        1 RVX      0.047200
     26 H3         -3.8840   -1.1540   -0.1530 hc        1 RVX      0.053700
     27 H51C       -2.4680   -3.8950   -0.4050 hc        1 RVX      0.031367
     28 H52C       -3.9870   -3.3640   -1.2400 hc        1 RVX      0.031367
     29 H53C       -2.4020   -2.5590   -1.6270 hc        1 RVX      0.031367
     30 H41C       -4.2210   -1.8230    2.2140 hc        1 RVX      0.031367
     31 H42C       -4.9590   -3.0500    1.1000 hc        1 RVX      0.031367
     32 H43C       -3.3820   -3.4020    1.9200 hc        1 RVX      0.031367
@<TRIPOS>BOND
     1    1    2 1   
     2    1   16 1   
     3    1   17 1   
     4    2    3 1   
     5    2    5 1   
     6    2   18 1   
     7    3    4 1   
     8    3   15 1   
     9    5    6 1   
    10    5   19 1   
    11    5   20 1   
    12    6    7 1   
    13    7    8 2   
    14    7    9 1   
    15    7   10 1   
    16    9   21 1   
    17    9   22 1   
    18    9   23 1   
    19   10   11 1   
    20   11   12 1   
    21   11   24 1   
    22   11   25 1   
    23   12   13 1   
    24   12   14 1   
    25   12   26 1   
    26   13   27 1   
    27   13   28 1   
    28   13   29 1   
    29   14   30 1   
    30   14   31 1   
    31   14   32 1   
@<TRIPOS>SUBSTRUCTURE
     1 RVX         1 TEMP              0 ****  ****    0 ROOT
