@<TRIPOS>MOLECULE
RW1
   20    21     1     0     0
SMALL
bcc


@<TRIPOS>ATOM
      1 C2          0.1040   -0.4750    0.0380 ca        1 RW1      0.630900
      2 N3          1.4030   -0.0770   -0.0500 nb        1 RW1     -0.694000
      3 C4          1.9580    0.3520    1.1010 ca        1 RW1      0.426200
      4 C5          1.2480    0.3850    2.3160 ca        1 RW1     -0.358600
      5 N1         -0.6790   -0.4890    1.1450 nb        1 RW1     -0.690000
      6 C6         -0.0980   -0.0570    2.2990 cp        1 RW1      0.497800
      7 C7         -0.8790   -0.0440    3.5460 cp        1 RW1     -0.160500
      8 C8         -2.2340    0.3120    3.5390 ca        1 RW1     -0.097000
      9 C12        -0.2600   -0.3890    4.7560 ca        1 RW1     -0.097000
     10 C11        -0.9870   -0.3670    5.9440 ca        1 RW1     -0.137000
     11 C10        -2.3340   -0.0030    5.9350 ca        1 RW1     -0.114000
     12 C9         -2.9540    0.3350    4.7330 ca        1 RW1     -0.137000
     13 H2         -0.3690   -0.8310   -0.9010 h5        1 RW1      0.055100
     14 H4          3.0110    0.6830    1.0460 h4        1 RW1      0.029100
     15 H5          1.7150    0.7470    3.2390 ha        1 RW1      0.156000
     16 H8         -2.7320    0.5720    2.5920 ha        1 RW1      0.142500
     17 H12         0.7990   -0.6870    4.7670 ha        1 RW1      0.142500
     18 H11        -0.4980   -0.6410    6.8900 ha        1 RW1      0.135500
     19 H10        -2.9060    0.0140    6.8740 ha        1 RW1      0.134000
     20 H9         -4.0170    0.6190    4.7220 ha        1 RW1      0.135500
@<TRIPOS>BOND
     1    1    2 ar  
     2    1    5 ar  
     3    1   13 1   
     4    2    3 ar  
     5    3    4 ar  
     6    3   14 1   
     7    4    6 ar  
     8    4   15 1   
     9    5    6 ar  
    10    6    7 1   
    11    7    8 ar  
    12    7    9 ar  
    13    8   12 ar  
    14    8   16 1   
    15    9   10 ar  
    16    9   17 1   
    17   10   11 ar  
    18   10   18 1   
    19   11   12 ar  
    20   11   19 1   
    21   12   20 1   
@<TRIPOS>SUBSTRUCTURE
     1 RW1         1 TEMP              0 ****  ****    0 ROOT
