@<TRIPOS>MOLECULE
RW1
   20    14     1     0     0
SMALL
bcc


@<TRIPOS>ATOM
      1 C2          1.5470   -1.2880   -2.5470 c1        1 RW1      0.347800
      2 N3          1.9390   -0.1120   -3.1280 n1        1 RW1     -0.491800
      3 C4          1.6130    1.0510   -2.5650 c1        1 RW1      0.347800
      4 C5          0.8860    1.0670   -1.4040 c1        1 RW1     -0.099000
      5 N1          0.8250   -1.2700   -1.3930 n1        1 RW1     -0.491800
      6 C6          0.4980   -0.1060   -0.8270 c1        1 RW1      0.004500
      7 C7         -0.2230   -0.0900    0.3400 c1        1 RW1      0.004500
      8 C8         -1.6060   -0.1350    0.3010 c1        1 RW1     -0.099000
      9 C12         0.4410   -0.0460    1.5650 c1        1 RW1     -0.066750
     10 C11        -0.2800   -0.0470    2.7440 c1        1 RW1     -0.066750
     11 C10        -1.6700   -0.0920    2.7100 c1        1 RW1     -0.066750
     12 C9         -2.3330   -0.1360    1.4870 c1        1 RW1     -0.066750
     13 H2          1.7850   -2.1370   -2.9560 ha        1 RW1      0.121500
     14 H4          1.8890    1.8810   -2.9740 ha        1 RW1      0.121500
     15 H5          0.6460    1.9180   -0.9900 ha        1 RW1      0.095500
     16 H8         -2.0730   -0.1650   -0.5650 ha        1 RW1      0.095500
     17 H12         1.4040   -0.0170    1.5900 ha        1 RW1      0.077500
     18 H11         0.2010   -0.0140    3.6260 ha        1 RW1      0.077500
     19 H10        -2.1680   -0.0930    3.5250 ha        1 RW1      0.077500
     20 H9         -3.3200   -0.1680    1.4610 ha        1 RW1      0.077500
@<TRIPOS>BOND
     1    1    5 3   
     2    1   13 1   
     3    2    3 3   
     4    3   14 1   
     5    4    6 3   
     6    4   15 1   
     7    7    8 3   
     8    8   16 1   
     9    9   10 3   
    10    9   17 1   
    11   10   18 1   
    12   11   12 3   
    13   11   19 1   
    14   12   20 1   
@<TRIPOS>SUBSTRUCTURE
     1 RW1         1 TEMP              0 ****  ****    0 ROOT
