@<TRIPOS>MOLECULE
RW1
   20    21     1     0     0
SMALL
bcc


@<TRIPOS>ATOM
      1 C2         -2.7440    1.0400    0.4800 ca        1 RW1      0.630900
      2 N3         -3.5080   -0.0130    0.0770 nb        1 RW1     -0.694000
      3 C4         -2.8260   -1.0920   -0.3570 ca        1 RW1      0.426200
      4 C5         -1.4200   -1.1330   -0.3900 ca        1 RW1     -0.358600
      5 N1         -1.3900    1.1170    0.4940 nb        1 RW1     -0.690000
      6 C6         -0.7210    0.0140    0.0560 cp        1 RW1      0.497800
      7 C7          0.7510    0.0150    0.0420 cp        1 RW1     -0.160500
      8 C8          1.4630    1.1690   -0.3080 ca        1 RW1     -0.097000
      9 C12         1.4490   -1.1530    0.3810 ca        1 RW1     -0.097000
     10 C11         2.8420   -1.1660    0.3590 ca        1 RW1     -0.137000
     11 C10         3.5480   -0.0180   -0.0000 ca        1 RW1     -0.114000
     12 C9          2.8570    1.1470   -0.3320 ca        1 RW1     -0.137000
     13 H2         -3.2890    1.9380    0.8410 h5        1 RW1      0.055100
     14 H4         -3.4320   -1.9530   -0.6920 h4        1 RW1      0.029100
     15 H5         -0.8860   -2.0170   -0.7570 ha        1 RW1      0.156000
     16 H8          0.9250    2.0950   -0.5640 ha        1 RW1      0.142500
     17 H12         0.8970   -2.0580    0.6750 ha        1 RW1      0.142500
     18 H11         3.3840   -2.0840    0.6280 ha        1 RW1      0.135500
     19 H10         4.6480   -0.0310   -0.0180 ha        1 RW1      0.134000
     20 H9          3.4120    2.0550   -0.6110 ha        1 RW1      0.135500
@<TRIPOS>BOND
     1    1    2 ar  
     2    1    5 ar  
     3    1   13 1   
     4    2    3 ar  
     5    3    4 ar  
     6    3   14 1   
     7    4    6 ar  
     8    4   15 1   
     9    5    6 ar  
    10    6    7 1   
    11    7    8 ar  
    12    7    9 ar  
    13    8   12 ar  
    14    8   16 1   
    15    9   10 ar  
    16    9   17 1   
    17   10   11 ar  
    18   10   18 1   
    19   11   12 ar  
    20   11   19 1   
    21   12   20 1   
@<TRIPOS>SUBSTRUCTURE
     1 RW1         1 TEMP              0 ****  ****    0 ROOT
