@<TRIPOS>MOLECULE
RW2
   43    44     1     0     0
SMALL
bcc


@<TRIPOS>ATOM
      1 O2          1.9870    0.2500    1.4350 o         1 RW2     -0.914167
      2 P           2.7960   -0.1880    0.2540 p5        1 RW2      1.315900
      3 O4          3.8120   -1.2810    0.4920 o         1 RW2     -0.914167
      4 O3          3.2310    0.8690   -0.7230 o         1 RW2     -0.914167
      5 O           1.6310   -1.0720   -0.7080 os        1 RW2     -0.553200
      6 C6          1.9250   -1.1650   -2.0390 c3        1 RW2      0.246700
      7 C3          2.3130   -2.5690   -2.4460 ca        1 RW2     -0.137600
      8 C2          3.2390   -3.2640   -1.6020 ca        1 RW2      0.379200
      9 N           3.6760   -4.4980   -1.8380 nb        1 RW2     -0.673000
     10 C1          3.2010   -5.1580   -2.9380 ca        1 RW2      0.333600
     11 C7          3.6770   -6.5460   -3.2140 c3        1 RW2     -0.121400
     12 C           2.2850   -4.5560   -3.8200 ca        1 RW2     -0.006200
     13 O1          1.8790   -5.2500   -4.9440 oh        1 RW2     -0.551100
     14 C4          1.8490   -3.2260   -3.5810 ca        1 RW2     -0.207300
     15 C5          0.9210   -2.5940   -4.5630 c3        1 RW2      0.184100
     16 N1         -0.5050   -2.7890   -4.1400 ny        1 RW2     -0.630800
     17 C8         -1.4560   -2.5720   -5.2090 c2        1 RW2     -0.123200
     18 C12        -2.1470   -3.5590   -5.8410 ce        1 RW2     -0.090400
     19 C15        -2.0600   -5.0330   -5.5560 c         1 RW2      0.904800
     20 O6         -1.1780   -5.4170   -4.7150 o         1 RW2     -0.830300
     21 O7         -2.8510   -5.8280   -6.1230 o         1 RW2     -0.830300
     22 C9         -1.7920   -1.1990   -5.7360 c3        1 RW2     -0.029200
     23 C10        -2.9970   -1.4460   -6.6590 c3        1 RW2     -0.180700
     24 C11        -3.0550   -2.9690   -6.8750 c3        1 RW2     -0.027200
     25 C13        -2.9120   -0.6850   -7.9960 c         1 RW2      0.915600
     26 O5         -4.0050   -0.3200   -8.5240 o         1 RW2     -0.850800
     27 O14        -1.7810   -0.4530   -8.5110 o         1 RW2     -0.850800
     28 H3          1.0120   -0.8680   -2.6440 h1        1 RW2      0.011200
     29 H4          2.7780   -0.4700   -2.3150 h1        1 RW2      0.011200
     30 H5          3.5990   -2.6950   -0.6690 h4        1 RW2      0.168100
     31 H6          3.7910   -7.1330   -2.2710 hc        1 RW2      0.030367
     32 H7          2.9490   -7.0680   -3.8830 hc        1 RW2      0.030367
     33 H8          4.6690   -6.5100   -3.7290 hc        1 RW2      0.030367
     34 H9          0.9090   -5.3480   -4.8880 ho        1 RW2      0.454000
     35 H10         1.1120   -1.4880   -4.6550 hx        1 RW2      0.098200
     36 H11         1.0400   -3.0690   -5.5790 hx        1 RW2      0.098200
     37 H12        -0.7060   -2.1540   -3.3610 hn        1 RW2      0.466800
     38 H14        -0.9380   -0.7790   -6.3300 hc        1 RW2      0.060700
     39 H15        -2.0420   -0.4880   -4.9120 hc        1 RW2      0.060700
     40 H16        -3.9330   -1.1150   -6.1390 hc        1 RW2      0.037700
     41 H17        -4.0910   -3.3710   -6.7650 hc        1 RW2      0.066700
     42 H18        -2.6860   -3.2410   -7.8980 hc        1 RW2      0.066700
     43 H121       -0.6130   -3.7820   -3.8190 hn        1 RW2      0.466800
@<TRIPOS>BOND
     1    1    2 1   
     2    2    3 1   
     3    2    4 1   
     4    2    5 1   
     5    5    6 1   
     6    6    7 1   
     7    6   28 1   
     8    6   29 1   
     9    7    8 ar  
    10    7   14 ar  
    11    8    9 ar  
    12    8   30 1   
    13    9   10 ar  
    14   10   11 1   
    15   10   12 ar  
    16   11   31 1   
    17   11   32 1   
    18   11   33 1   
    19   12   13 1   
    20   12   14 ar  
    21   13   34 1   
    22   14   15 1   
    23   15   16 1   
    24   15   35 1   
    25   15   36 1   
    26   16   17 1   
    27   16   37 1   
    28   16   43 1   
    29   17   18 2   
    30   17   22 1   
    31   18   19 1   
    32   18   24 1   
    33   19   20 1   
    34   19   21 1   
    35   22   23 1   
    36   22   38 1   
    37   22   39 1   
    38   23   24 1   
    39   23   25 1   
    40   23   40 1   
    41   24   41 1   
    42   24   42 1   
    43   25   26 1   
    44   25   27 1   
@<TRIPOS>SUBSTRUCTURE
     1 RW2         1 TEMP              0 ****  ****    0 ROOT
