@<TRIPOS>MOLECULE
RW2
   43    44     1     0     0
SMALL
bcc


@<TRIPOS>ATOM
      1 O2          2.0160    0.3080    1.3950 o         1 RW2     -0.914167
      2 P           2.8170   -0.1380    0.2110 p5        1 RW2      1.315900
      3 O4          3.8400   -1.2240    0.4510 o         1 RW2     -0.914167
      4 O3          3.2410    0.9110   -0.7790 o         1 RW2     -0.914167
      5 O           1.6490   -1.0360   -0.7340 os        1 RW2     -0.553200
      6 C6          1.9340   -1.1400   -2.0660 c3        1 RW2      0.246700
      7 C3          2.3250   -2.5460   -2.4630 ca        1 RW2     -0.137600
      8 C2          3.2590   -3.2300   -1.6190 ca        1 RW2      0.379200
      9 N           3.6990   -4.4640   -1.8470 nb        1 RW2     -0.673000
     10 C1          3.2190   -5.1360   -2.9370 ca        1 RW2      0.333600
     11 C7          3.6990   -6.5240   -3.2040 c3        1 RW2     -0.121400
     12 C           2.2940   -4.5460   -3.8180 ca        1 RW2     -0.006200
     13 O1          1.8830   -5.2520   -4.9320 oh        1 RW2     -0.551100
     14 C4          1.8550   -3.2160   -3.5880 ca        1 RW2     -0.207300
     15 C5          0.9160   -2.5960   -4.5690 c3        1 RW2      0.184100
     16 N1         -0.5060   -2.7940   -4.1330 n4        1 RW2     -0.630800
     17 C8         -1.4650   -2.5900   -5.1970 c2        1 RW2     -0.123200
     18 C12        -2.1570   -3.5860   -5.8150 ce        1 RW2     -0.090400
     19 C15        -2.0620   -5.0570   -5.5160 c         1 RW2      0.904800
     20 O6         -2.8540   -5.8600   -6.0690 o         1 RW2     -0.830300
     21 O7         -1.1720   -5.4300   -4.6780 o         1 RW2     -0.830300
     22 C9         -1.8110   -1.2230   -5.7340 c3        1 RW2     -0.029200
     23 C10        -3.0210   -1.4840   -6.6460 c3        1 RW2     -0.180700
     24 C11        -3.0750   -3.0090   -6.8470 c3        1 RW2     -0.027200
     25 C13        -2.9500   -0.7360   -7.9910 c         1 RW2      0.915600
     26 O5         -1.8240   -0.5040   -8.5160 o         1 RW2     -0.850800
     27 O14        -4.0480   -0.3790   -8.5130 o         1 RW2     -0.850800
     28 H3          2.7820   -0.4440   -2.3540 h1        1 RW2      0.011200
     29 H4          1.0150   -0.8520   -2.6670 h1        1 RW2      0.011200
     30 H5          3.6240   -2.6500   -0.6950 h4        1 RW2      0.168100
     31 H6          2.9670   -7.0560   -3.8610 hc        1 RW2      0.030367
     32 H7          4.6860   -6.4890   -3.7280 hc        1 RW2      0.030367
     33 H8          3.8230   -7.1020   -2.2560 hc        1 RW2      0.030367
     34 H9          0.9130   -5.3530   -4.8690 ho        1 RW2      0.454000
     35 H10         1.0300   -3.0810   -5.5810 hx        1 RW2      0.098200
     36 H11         1.1020   -1.4910   -4.6730 hx        1 RW2      0.098200
     37 H12        -0.6070   -3.7830   -3.8020 hn        1 RW2      0.466800
     38 H14        -2.0570   -0.5060   -4.9150 hc        1 RW2      0.060700
     39 H15        -0.9630   -0.8060   -6.3390 hc        1 RW2      0.060700
     40 H16        -3.9550   -1.1510   -6.1220 hc        1 RW2      0.037700
     41 H17        -4.1090   -3.4140   -6.7260 hc        1 RW2      0.066700
     42 H18        -2.7130   -3.2890   -7.8700 hc        1 RW2      0.066700
     43 H121       -0.7030   -2.1510   -3.3590 hn        1 RW2      0.466800
@<TRIPOS>BOND
     1    1    2 1   
     2    2    3 1   
     3    2    4 1   
     4    2    5 1   
     5    5    6 1   
     6    6    7 1   
     7    6   28 1   
     8    6   29 1   
     9    7    8 ar  
    10    7   14 ar  
    11    8    9 ar  
    12    8   30 1   
    13    9   10 ar  
    14   10   11 1   
    15   10   12 ar  
    16   11   31 1   
    17   11   32 1   
    18   11   33 1   
    19   12   13 1   
    20   12   14 ar  
    21   13   34 1   
    22   14   15 1   
    23   15   16 1   
    24   15   35 1   
    25   15   36 1   
    26   16   17 1   
    27   16   37 1   
    28   16   43 1   
    29   17   18 2   
    30   17   22 1   
    31   18   19 1   
    32   18   24 1   
    33   19   20 1   
    34   19   21 1   
    35   22   23 1   
    36   22   38 1   
    37   22   39 1   
    38   23   24 1   
    39   23   25 1   
    40   23   40 1   
    41   24   41 1   
    42   24   42 1   
    43   25   26 1   
    44   25   27 1   
@<TRIPOS>SUBSTRUCTURE
     1 RW2         1 TEMP              0 ****  ****    0 ROOT
