@<TRIPOS>MOLECULE
RW3
   69    75     1     0     0
SMALL
bcc


@<TRIPOS>ATOM
      1 CAA         2.2880    3.2380   -0.4690 c3        1 RW3      0.167800
      2 CAB         2.0400    4.3920   -1.4610 c3        1 RW3      0.168300
      3 NAI         3.1040    5.3860   -1.4600 n3        1 RW3     -0.734600
      4 CAJ         2.8790    6.4350   -2.4280 c3        1 RW3      0.158100
      5 CAQ         4.4270    4.7920   -1.5810 c3        1 RW3      0.168300
      6 CAP         4.6650    3.6460   -0.5750 c3        1 RW3      0.167800
      7 NAH         3.6090    2.6410   -0.6560 nh        1 RW3     -0.733300
      8 CAG         3.8110    1.4760    0.1670 ca        1 RW3      0.632200
      9 NAF         4.4030    1.5850    1.3640 nb        1 RW3     -0.702000
     10 CAE         4.6360    0.4530    2.1070 ca        1 RW3      0.422600
     11 CAD         5.2720    0.5620    3.3880 ca        1 RW3     -0.172300
     12 CAC         5.5060   -0.5610    4.1400 ca        1 RW3     -0.118000
     13 CAK         5.1310   -1.8440    3.6730 ca        1 RW3     -0.134000
     14 CAL         4.5210   -1.9840    2.4520 ca        1 RW3     -0.102000
     15 CAM         4.2600   -0.8450    1.6470 ca        1 RW3     -0.160300
     16 CAN         3.6320   -0.9380    0.3780 ca        1 RW3     -0.061000
     17 CAO         3.3930    0.1910   -0.3720 ca        1 RW3     -0.210600
     18 CAR         2.7730    0.0570   -1.7320 c3        1 RW3      0.111600
     19 NAV         1.4590   -0.5730   -1.7400 na        1 RW3      0.000200
     20 NBA         0.3310    0.0510   -1.3420 nc        1 RW3     -0.503100
     21 C6          1.2290   -1.9520   -1.9330 ca        1 RW3      0.467800
     22 N1          2.0830   -2.9480   -2.3250 nb        1 RW3     -0.747000
     23 C2          1.4630   -4.1400   -2.4710 ca        1 RW3      0.695900
     24 N3          0.1570   -4.4760   -2.2920 nb        1 RW3     -0.799000
     25 C4         -0.7000   -3.4780   -1.8850 ca        1 RW3      0.760200
     26 NAZ        -2.0230   -3.7570   -1.6410 nh        1 RW3     -0.955500
     27 C5         -0.1880   -2.1590   -1.6840 ca        1 RW3     -0.496500
     28 CBB        -0.6850   -0.8480   -1.3100 cd        1 RW3      0.425500
     29 CBD        -2.0580   -0.5080   -0.9560 ca        1 RW3     -0.109900
     30 CBC        -2.6860   -1.1560    0.1030 ca        1 RW3     -0.072000
     31 CBE        -2.7350    0.4930   -1.6870 ca        1 RW3     -0.099000
     32 CBH        -4.0390    0.8400   -1.3860 ca        1 RW3     -0.092000
     33 CBG        -4.6970    0.1850   -0.3230 ca        1 RW3      0.118400
     34 NBO        -6.0060    0.4320    0.0940 nc        1 RW3     -0.592100
     35 CBF        -4.0020   -0.8230    0.4270 ca        1 RW3     -0.153100
     36 SBJ        -4.9960   -1.4350    1.6410 ss        1 RW3      0.086900
     37 CBN        -6.2930   -0.3670    1.1380 cd        1 RW3      0.411800
     38 NBM        -7.5270   -0.3530    1.7820 n         1 RW3     -0.466400
     39 CBL        -7.8480   -1.1830    2.8560 c         1 RW3      0.662100
     40 CBK        -9.2280   -1.0290    3.4380 c3        1 RW3     -0.172100
     41 OBI        -7.0220   -2.0020    3.2970 o         1 RW3     -0.573100
     42 HAA1        2.1580    3.6270    0.5820 h1        1 RW3      0.056200
     43 HAA2        1.5110    2.4450   -0.6510 h1        1 RW3      0.056200
     44 HAB1        1.8780    3.9550   -2.4900 h1        1 RW3      0.036950
     45 HAB2        1.0890    4.9080   -1.1510 h1        1 RW3      0.036950
     46 HAJ1        1.8840    6.9090   -2.2220 h1        1 RW3      0.031700
     47 HAJ2        3.6800    7.2110   -2.3110 h1        1 RW3      0.031700
     48 HAJ3        2.8880    6.0710   -3.4920 h1        1 RW3      0.031700
     49 HAQ1        4.6190    4.4070   -2.6250 h1        1 RW3      0.036950
     50 HAQ2        5.1850    5.5960   -1.3640 h1        1 RW3      0.036950
     51 HAP1        5.6410    3.1480   -0.8330 h1        1 RW3      0.056200
     52 HAP2        4.7560    4.0910    0.4570 h1        1 RW3      0.056200
     53 HAD         5.5650    1.5590    3.7550 ha        1 RW3      0.150000
     54 HAC         5.9930   -0.4760    5.1240 ha        1 RW3      0.135000
     55 HAK         5.3350   -2.7220    4.3030 ha        1 RW3      0.135000
     56 HAL         4.2230   -2.9740    2.0760 ha        1 RW3      0.137000
     57 HAN         3.3470   -1.9340   -0.0000 ha        1 RW3      0.153000
     58 HAR1        2.6670    1.0590   -2.2380 h1        1 RW3      0.095700
     59 HAR2        3.4460   -0.5900   -2.3690 h1        1 RW3      0.095700
     60 H2          2.1170   -4.9810   -2.7910 h5        1 RW3      0.053100
     61 HAZ1       -2.3970   -4.6380   -1.8990 hn        1 RW3      0.442800
     62 HAZ2       -2.6430   -2.9920   -1.5200 hn        1 RW3      0.442800
     63 HBC        -2.1460   -1.9150    0.6910 ha        1 RW3      0.152000
     64 HBE        -2.2070    1.0040   -2.5080 ha        1 RW3      0.148000
     65 HBH        -4.5630    1.6200   -1.9580 ha        1 RW3      0.153000
     66 HBM        -8.2120    0.2930    1.4510 hn        1 RW3      0.340500
     67 HBK1       -9.3750    0.0060    3.8300 hc        1 RW3      0.076033
     68 HBK2      -10.0060   -1.2430    2.6650 hc        1 RW3      0.076033
     69 HBK3       -9.3410   -1.7570    4.2790 hc        1 RW3      0.076033
@<TRIPOS>BOND
     1    1    2 1   
     2    1    7 1   
     3    1   42 1   
     4    1   43 1   
     5    2    3 1   
     6    2   44 1   
     7    2   45 1   
     8    3    4 1   
     9    3    5 1   
    10    4   46 1   
    11    4   47 1   
    12    4   48 1   
    13    5    6 1   
    14    5   49 1   
    15    5   50 1   
    16    6    7 1   
    17    6   51 1   
    18    6   52 1   
    19    7    8 1   
    20    8    9 ar  
    21    8   17 ar  
    22    9   10 ar  
    23   10   11 ar  
    24   10   15 ar  
    25   11   12 ar  
    26   11   53 1   
    27   12   13 ar  
    28   12   54 1   
    29   13   14 ar  
    30   13   55 1   
    31   14   15 ar  
    32   14   56 1   
    33   15   16 ar  
    34   16   17 ar  
    35   16   57 1   
    36   17   18 1   
    37   18   19 1   
    38   18   58 1   
    39   18   59 1   
    40   19   20 1   
    41   19   21 1   
    42   20   28 2   
    43   21   22 ar  
    44   21   27 ar  
    45   22   23 ar  
    46   23   24 ar  
    47   23   60 1   
    48   24   25 ar  
    49   25   26 1   
    50   25   27 ar  
    51   26   61 1   
    52   26   62 1   
    53   27   28 1   
    54   28   29 1   
    55   29   30 ar  
    56   29   31 ar  
    57   30   35 ar  
    58   30   63 1   
    59   31   32 ar  
    60   31   64 1   
    61   32   33 ar  
    62   32   65 1   
    63   33   34 1   
    64   33   35 ar  
    65   34   37 2   
    66   35   36 1   
    67   36   37 1   
    68   37   38 1   
    69   38   39 1   
    70   38   66 1   
    71   39   40 1   
    72   39   41 2   
    73   40   67 1   
    74   40   68 1   
    75   40   69 1   
@<TRIPOS>SUBSTRUCTURE
     1 RW3         1 TEMP              0 ****  ****    0 ROOT
