@<TRIPOS>MOLECULE
RW3
   69    75     1     0     0
SMALL
bcc


@<TRIPOS>ATOM
      1 CAA         0.6760   -0.6060    0.9910 c3        1 RW3      0.167800
      2 CAB         1.9690   -0.9670    1.7490 c3        1 RW3      0.168300
      3 NAI         1.9170   -0.6280    3.1640 n3        1 RW3     -0.734600
      4 CAJ         3.1180   -1.0160    3.8690 c3        1 RW3      0.158100
      5 CAQ         0.7090   -1.1160    3.8140 c3        1 RW3      0.168300
      6 CAP        -0.5780   -0.7380    3.0500 c3        1 RW3      0.167800
      7 NAH        -0.5060   -1.1550    1.6530 nh        1 RW3     -0.733300
      8 CAG        -1.7120   -0.9460    0.8910 ca        1 RW3      0.632200
      9 NAF        -2.4890    0.1190    1.1310 nb        1 RW3     -0.702000
     10 CAE        -3.6630    0.2680    0.4320 ca        1 RW3      0.422600
     11 CAD        -4.5010    1.4050    0.6840 ca        1 RW3     -0.172300
     12 CAC        -5.6730    1.5650   -0.0100 ca        1 RW3     -0.118000
     13 CAK        -6.0810    0.6210   -0.9830 ca        1 RW3     -0.134000
     14 CAL        -5.3030   -0.4780   -1.2490 ca        1 RW3     -0.102000
     15 CAM        -4.0830   -0.6760   -0.5520 ca        1 RW3     -0.160300
     16 CAN        -3.2440   -1.7960   -0.7920 ca        1 RW3     -0.061000
     17 CAO        -2.0660   -1.9520   -0.0980 ca        1 RW3     -0.210600
     18 CAR        -1.2240   -3.1710   -0.3350 c3        1 RW3      0.111600
     19 NAV        -0.7690   -3.3340   -1.7100 na        1 RW3     -0.000800
     20 NBA         0.2230   -2.6030   -2.2590 nc        1 RW3     -0.503100
     21 C6         -1.4390   -4.0910   -2.6950 ca        1 RW3      0.467800
     22 N1         -2.4950   -4.9550   -2.5840 nb        1 RW3     -0.747000
     23 C2         -2.8080   -5.5520   -3.7560 ca        1 RW3      0.695900
     24 N3         -2.2380   -5.4210   -4.9840 nb        1 RW3     -0.799000
     25 C4         -1.1850   -4.5430   -5.1000 ca        1 RW3      0.760200
     26 NAZ        -0.5930   -4.3270   -6.3210 nh        1 RW3     -0.955500
     27 C5         -0.7420   -3.8300   -3.9430 ca        1 RW3     -0.496500
     28 CBB         0.2920   -2.8760   -3.5870 cd        1 RW3      0.425500
     29 CBD         1.2770   -2.2870   -4.4860 ca        1 RW3     -0.109900
     30 CBC         0.8600   -1.5670   -5.6020 ca        1 RW3     -0.072000
     31 CBE         2.6530   -2.4380   -4.2040 ca        1 RW3     -0.099000
     32 CBH         3.6170   -1.8990   -5.0350 ca        1 RW3     -0.092000
     33 CBG         3.2130   -1.1770   -6.1790 ca        1 RW3      0.118400
     34 NBO         4.0710   -0.5780   -7.1030 nc        1 RW3     -0.592100
     35 CBF         1.8140   -1.0130   -6.4560 ca        1 RW3     -0.153100
     36 SBJ         1.6010   -0.1070   -7.8600 ss        1 RW3      0.086900
     37 CBN         3.3380    0.0300   -8.0540 cd        1 RW3      0.411800
     38 NBM         3.9080    0.7220   -9.1180 n         1 RW3     -0.466400
     39 CBL         3.1660    1.3450  -10.1210 c         1 RW3      0.662100
     40 CBK         3.9460    2.0570  -11.1950 c3        1 RW3     -0.172100
     41 OBI         1.9220    1.3040  -10.1120 o         1 RW3     -0.573100
     42 HAA1        0.6110    0.5160    0.8960 h1        1 RW3      0.056200
     43 HAA2        0.7410   -1.0460   -0.0420 h1        1 RW3      0.056200
     44 HAB1        2.1860   -2.0640    1.5900 h1        1 RW3      0.036950
     45 HAB2        2.8100   -0.3780    1.2870 h1        1 RW3      0.036950
     46 HAJ1        3.0520   -0.6450    4.9250 h1        1 RW3      0.031700
     47 HAJ2        3.2840   -2.1280    3.8910 h1        1 RW3      0.031700
     48 HAJ3        4.0000   -0.5350    3.3700 h1        1 RW3      0.031700
     49 HAQ1        0.6520   -0.6390    4.8320 h1        1 RW3      0.036950
     50 HAQ2        0.7340   -2.2350    3.9570 h1        1 RW3      0.036950
     51 HAP1       -0.7440    0.3720    3.1590 h1        1 RW3      0.056200
     52 HAP2       -1.4420   -1.2740    3.5300 h1        1 RW3      0.056200
     53 HAD        -4.1860    2.1420    1.4400 ha        1 RW3      0.150000
     54 HAC        -6.3150    2.4380    0.1830 ha        1 RW3      0.135000
     55 HAK        -7.0280    0.7820   -1.5200 ha        1 RW3      0.135000
     56 HAL        -5.6070   -1.2200   -2.0020 ha        1 RW3      0.137000
     57 HAN        -3.5590   -2.5440   -1.5390 ha        1 RW3      0.153000
     58 HAR1       -1.8410   -4.0850   -0.0880 h1        1 RW3      0.095700
     59 HAR2       -0.3080   -3.1750    0.3230 h1        1 RW3      0.095700
     60 H2         -3.6600   -6.2660   -3.7150 h5        1 RW3      0.053100
     61 HAZ1        0.2640   -3.8270   -6.3380 hn        1 RW3      0.442800
     62 HAZ2       -0.8210   -4.9100   -7.0900 hn        1 RW3      0.442800
     63 HBC        -0.2140   -1.4240   -5.8030 ha        1 RW3      0.152000
     64 HBE         2.9540   -2.9950   -3.3030 ha        1 RW3      0.148000
     65 HBH         4.6880   -2.0200   -4.8130 ha        1 RW3      0.153000
     66 HBM         4.9040    0.7730   -9.1550 hn        1 RW3      0.340500
     67 HBK1        4.6160    1.3430  -11.7320 hc        1 RW3      0.076033
     68 HBK2        4.5630    2.8770  -10.7520 hc        1 RW3      0.076033
     69 HBK3        3.2240    2.4980  -11.9250 hc        1 RW3      0.076033
@<TRIPOS>BOND
     1    1    2 1   
     2    1    7 1   
     3    1   42 1   
     4    1   43 1   
     5    2    3 1   
     6    2   44 1   
     7    2   45 1   
     8    3    4 1   
     9    3    5 1   
    10    4   46 1   
    11    4   47 1   
    12    4   48 1   
    13    5    6 1   
    14    5   49 1   
    15    5   50 1   
    16    6    7 1   
    17    6   51 1   
    18    6   52 1   
    19    7    8 1   
    20    8    9 ar  
    21    8   17 ar  
    22    9   10 ar  
    23   10   11 ar  
    24   10   15 ar  
    25   11   12 ar  
    26   11   53 1   
    27   12   13 ar  
    28   12   54 1   
    29   13   14 ar  
    30   13   55 1   
    31   14   15 ar  
    32   14   56 1   
    33   15   16 ar  
    34   16   17 ar  
    35   16   57 1   
    36   17   18 1   
    37   18   19 1   
    38   18   58 1   
    39   18   59 1   
    40   19   20 1   
    41   19   21 1   
    42   20   28 2   
    43   21   22 ar  
    44   21   27 ar  
    45   22   23 ar  
    46   23   24 ar  
    47   23   60 1   
    48   24   25 ar  
    49   25   26 1   
    50   25   27 ar  
    51   26   61 1   
    52   26   62 1   
    53   27   28 1   
    54   28   29 1   
    55   29   30 ar  
    56   29   31 ar  
    57   30   35 ar  
    58   30   63 1   
    59   31   32 ar  
    60   31   64 1   
    61   32   33 ar  
    62   32   65 1   
    63   33   34 1   
    64   33   35 ar  
    65   34   37 2   
    66   35   36 1   
    67   36   37 1   
    68   37   38 1   
    69   38   39 1   
    70   38   66 1   
    71   39   40 1   
    72   39   41 2   
    73   40   67 1   
    74   40   68 1   
    75   40   69 1   
@<TRIPOS>SUBSTRUCTURE
     1 RW3         1 TEMP              0 ****  ****    0 ROOT
