@<TRIPOS>MOLECULE
RW3
   71    77     1     0     0
SMALL
bcc


@<TRIPOS>ATOM
      1 CAA        -1.1400    0.6550   -0.8640 c3        1 RW3      0.158800
      2 CAB         0.0830    1.2000   -1.6280 c3        1 RW3      0.180800
      3 NAI         1.3250    1.0840   -0.8900 n3        1 RW3     -0.747600
      4 CAJ         2.4740    1.5810   -1.5910 c3        1 RW3      0.192100
      5 CAQ         1.5280   -0.2050   -0.2540 c3        1 RW3      0.180800
      6 CAP         0.2850   -0.7050    0.5100 c3        1 RW3      0.158800
      7 NAH        -0.9130   -0.6930   -0.3350 nh        1 RW3     -0.728300
      8 CAG        -2.0620   -1.2370    0.3610 ca        1 RW3      0.605200
      9 NAF        -2.8820   -0.4350    1.0500 nb        1 RW3     -0.682000
     10 CAE        -3.9960   -0.9650    1.6590 ca        1 RW3      0.428600
     11 CAD        -4.8720   -0.1100    2.4030 ca        1 RW3     -0.174300
     12 CAC        -5.9830   -0.6320    3.0180 ca        1 RW3     -0.093000
     13 CAK        -6.2870   -2.0130    2.9310 ca        1 RW3     -0.110000
     14 CAL        -5.4680   -2.8600    2.2260 ca        1 RW3     -0.106000
     15 CAM        -4.3090   -2.3580    1.5790 ca        1 RW3     -0.162300
     16 CAN        -3.4270   -3.1920    0.8480 ca        1 RW3     -0.024000
     17 CAO        -2.3020   -2.6640    0.2480 ca        1 RW3     -0.260600
     18 CAR        -1.3500   -3.5880   -0.4320 c3        1 RW3      0.125600
     19 NAV        -1.1780   -3.3350   -1.8710 na        1 RW3      0.073200
     20 NBA        -0.0430   -2.9270   -2.4250 nc        1 RW3     -0.397100
     21 C6         -2.2170   -3.3800   -2.8220 ca        1 RW3      0.458800
     22 N1         -3.5240   -3.7410   -2.6930 nb        1 RW3     -0.603000
     23 C2         -4.2370   -3.6590   -3.8360 ca        1 RW3      0.685900
     24 N3         -3.8050   -3.2590   -5.0750 nb        1 RW3     -0.684000
     25 C4         -2.5040   -2.9130   -5.1850 ca        1 RW3      0.542200
     26 NAZ        -2.0330   -2.4610   -6.5130 n4        1 RW3     -0.830300
     27 C5         -1.6080   -2.9590   -4.1030 ca        1 RW3     -0.404500
     28 CBB        -0.2260   -2.7010   -3.7630 cd        1 RW3      0.343500
     29 CBD         0.8730   -2.2460   -4.6040 ca        1 RW3     -0.066900
     30 CBC         1.6710   -1.2060   -4.1380 ca        1 RW3     -0.060000
     31 CBE         1.1840   -2.8950   -5.8240 ca        1 RW3     -0.163000
     32 CBH         2.2700   -2.5120   -6.5850 ca        1 RW3     -0.039000
     33 CBG         3.0880   -1.4470   -6.1320 ca        1 RW3      0.084400
     34 NBO         4.2260   -0.9630   -6.7660 nc        1 RW3     -0.479100
     35 CBF         2.7770   -0.7920   -4.8880 ca        1 RW3     -0.103100
     36 SBJ         3.9060    0.3950   -4.5510 ss        1 RW3      0.220900
     37 CBN         4.7520    0.0220   -6.0130 cd        1 RW3      0.300100
     38 NBM         5.9690    0.7130   -6.4120 n4        1 RW3     -0.611800
     39 CBL         7.2160   -0.1780   -6.1890 c         1 RW3      0.575100
     40 CBK         7.6260   -0.9930   -7.3600 c3        1 RW3     -0.185100
     41 OBI         7.7090   -0.0690   -5.0840 o         1 RW3     -0.381100
     42 HAA1       -2.0070    0.6070   -1.5780 h1        1 RW3      0.063700
     43 HAA2       -1.3950    1.3980   -0.0520 h1        1 RW3      0.063700
     44 HAB1       -0.1000    2.2950   -1.8210 h1        1 RW3      0.031450
     45 HAB2        0.1420    0.6860   -2.6340 h1        1 RW3      0.031450
     46 HAJ1        2.2790    2.6390   -1.9100 h1        1 RW3      0.020700
     47 HAJ2        2.7380    0.9820   -2.5230 h1        1 RW3      0.020700
     48 HAJ3        3.3620    1.5590   -0.9060 h1        1 RW3      0.020700
     49 HAQ1        1.8370   -0.9930   -1.0030 h1        1 RW3      0.031450
     50 HAQ2        2.3630   -0.0920    0.4930 h1        1 RW3      0.031450
     51 HAP1        0.4840   -1.7620    0.8370 h1        1 RW3      0.063700
     52 HAP2        0.1480   -0.0720    1.4340 h1        1 RW3      0.063700
     53 HAD        -4.6380    0.9650    2.4770 ha        1 RW3      0.162000
     54 HAC        -6.6560    0.0240    3.5950 ha        1 RW3      0.156000
     55 HAK        -7.1860   -2.3950    3.4400 ha        1 RW3      0.155000
     56 HAL        -5.6920   -3.9350    2.1560 ha        1 RW3      0.145000
     57 HAN        -3.6540   -4.2690    0.7780 ha        1 RW3      0.150000
     58 HAR1       -0.3330   -3.5190    0.0560 h1        1 RW3      0.097200
     59 HAR2       -1.7180   -4.6550   -0.3550 h1        1 RW3      0.097200
     60 H2         -5.3160   -3.9440   -3.7790 h5        1 RW3      0.109100
     61 HAZ1       -2.5650   -1.6290   -6.8030 hn        1 RW3      0.475467
     62 HAZ2       -1.0330   -2.2330   -6.4520 hn        1 RW3      0.475467
     63 HBC         1.4540   -0.7250   -3.1660 ha        1 RW3      0.190000
     64 HBE         0.5980   -3.7780   -6.1290 ha        1 RW3      0.148000
     65 HBH         2.5250   -3.0360   -7.5220 ha        1 RW3      0.179000
     66 HBM         5.9160    0.9690   -7.4080 hn        1 RW3      0.472800
     67 HBK1        8.0370   -0.3310   -8.1670 hc        1 RW3      0.125700
     68 HBK2        8.4370   -1.6990   -7.0300 hc        1 RW3      0.125700
     69 HBK3        6.7710   -1.5890   -7.7710 hc        1 RW3      0.125700
     70 HAZ3       -2.1820   -3.2050   -7.2090 hn        1 RW3      0.475467
     71 HBM2        6.0530    1.5690   -5.8480 hn        1 RW3      0.472800
@<TRIPOS>BOND
     1    1    2 1   
     2    1    7 1   
     3    1   42 1   
     4    1   43 1   
     5    2    3 1   
     6    2   44 1   
     7    2   45 1   
     8    3    4 1   
     9    3    5 1   
    10    4   46 1   
    11    4   47 1   
    12    4   48 1   
    13    5    6 1   
    14    5   49 1   
    15    5   50 1   
    16    6    7 1   
    17    6   51 1   
    18    6   52 1   
    19    7    8 1   
    20    8    9 ar  
    21    8   17 ar  
    22    9   10 ar  
    23   10   11 ar  
    24   10   15 ar  
    25   11   12 ar  
    26   11   53 1   
    27   12   13 ar  
    28   12   54 1   
    29   13   14 ar  
    30   13   55 1   
    31   14   15 ar  
    32   14   56 1   
    33   15   16 ar  
    34   16   17 ar  
    35   16   57 1   
    36   17   18 1   
    37   18   19 1   
    38   18   58 1   
    39   18   59 1   
    40   19   20 1   
    41   19   21 1   
    42   20   28 2   
    43   21   22 ar  
    44   21   27 ar  
    45   22   23 ar  
    46   23   24 ar  
    47   23   60 1   
    48   24   25 ar  
    49   25   26 1   
    50   25   27 ar  
    51   26   61 1   
    52   26   62 1   
    53   26   70 1   
    54   27   28 1   
    55   28   29 1   
    56   29   30 ar  
    57   29   31 ar  
    58   30   35 ar  
    59   30   63 1   
    60   31   32 ar  
    61   31   64 1   
    62   32   33 ar  
    63   32   65 1   
    64   33   34 1   
    65   33   35 ar  
    66   34   37 2   
    67   35   36 1   
    68   36   37 1   
    69   37   38 1   
    70   38   39 1   
    71   38   66 1   
    72   38   71 1   
    73   39   40 1   
    74   39   41 2   
    75   40   67 1   
    76   40   68 1   
    77   40   69 1   
@<TRIPOS>SUBSTRUCTURE
     1 RW3         1 TEMP              0 ****  ****    0 ROOT
