@<TRIPOS>MOLECULE
RW3
   69    75     1     0     0
SMALL
bcc


@<TRIPOS>ATOM
      1 CAA         0.6960   -0.6490    0.9910 c3        1 RW3      0.167800
      2 CAB         1.9890   -1.0300    1.7390 c3        1 RW3      0.168300
      3 NAI         1.9480   -0.7040    3.1570 n3        1 RW3     -0.734600
      4 CAJ         3.1480   -1.1100    3.8520 c3        1 RW3      0.158100
      5 CAQ         0.7380   -1.1860    3.8080 c3        1 RW3      0.168300
      6 CAP        -0.5490   -0.7880    3.0550 c3        1 RW3      0.167800
      7 NAH        -0.4880   -1.1920    1.6530 nh        1 RW3     -0.733300
      8 CAG        -1.6960   -0.9630    0.9000 ca        1 RW3      0.632200
      9 NAF        -2.4600    0.1080    1.1530 nb        1 RW3     -0.702000
     10 CAE        -3.6360    0.2760    0.4610 ca        1 RW3      0.422600
     11 CAD        -4.4610    1.4190    0.7290 ca        1 RW3     -0.172300
     12 CAC        -5.6340    1.5980    0.0420 ca        1 RW3     -0.118000
     13 CAK        -6.0570    0.6670   -0.9370 ca        1 RW3     -0.134000
     14 CAL        -5.2920   -0.4370   -1.2180 ca        1 RW3     -0.102000
     15 CAM        -4.0710   -0.6550   -0.5290 ca        1 RW3     -0.160300
     16 CAN        -3.2450   -1.7810   -0.7830 ca        1 RW3     -0.061000
     17 CAO        -2.0650   -1.9560   -0.0970 ca        1 RW3     -0.210600
     18 CAR        -1.2370   -3.1820   -0.3500 c3        1 RW3      0.111600
     19 NAV        -0.7900   -3.3360   -1.7290 na        1 RW3      0.000200
     20 NBA         0.2080   -2.6100   -2.2740 nc        1 RW3     -0.503100
     21 C6         -1.4730   -4.0740   -2.7180 ca        1 RW3      0.467800
     22 N1         -2.5390   -4.9270   -2.6120 nb        1 RW3     -0.747000
     23 C2         -2.8630   -5.5080   -3.7890 ca        1 RW3      0.695900
     24 N3         -2.2970   -5.3700   -5.0180 nb        1 RW3     -0.799000
     25 C4         -1.2340   -4.5020   -5.1300 ca        1 RW3      0.760200
     26 NAZ        -0.6450   -4.2800   -6.3510 nv        1 RW3     -0.955500
     27 C5         -0.7780   -3.8080   -3.9670 ca        1 RW3     -0.496500
     28 CBB         0.2690   -2.8690   -3.6050 cd        1 RW3      0.425500
     29 CBD         1.2560   -2.2820   -4.5020 ca        1 RW3     -0.109900
     30 CBC         0.8430   -1.5440   -5.6070 ca        1 RW3     -0.072000
     31 CBE         2.6310   -2.4540   -4.2290 ca        1 RW3     -0.099000
     32 CBH         3.5980   -1.9170   -5.0580 ca        1 RW3     -0.092000
     33 CBG         3.1980   -1.1770   -6.1910 ca        1 RW3      0.118400
     34 NBO         4.0590   -0.5770   -7.1120 nc        1 RW3     -0.592100
     35 CBF         1.8000   -0.9920   -6.4600 ca        1 RW3     -0.153100
     36 SBJ         1.5920   -0.0660   -7.8510 ss        1 RW3      0.086900
     37 CBN         3.3290    0.0520   -8.0510 cd        1 RW3      0.411800
     38 NBM         3.9030    0.7500   -9.1100 ns        1 RW3     -0.466400
     39 CBL         3.1640    1.3960  -10.1010 c         1 RW3      0.662100
     40 CBK         3.9480    2.1120  -11.1690 c3        1 RW3     -0.172100
     41 OBI         1.9200    1.3700  -10.0860 o         1 RW3     -0.573100
     42 HAA1        0.7510   -1.0790   -0.0470 h1        1 RW3      0.056200
     43 HAA2        0.6420    0.4750    0.9060 h1        1 RW3      0.056200
     44 HAB1        2.1950   -2.1280    1.5680 h1        1 RW3      0.036950
     45 HAB2        2.8330   -0.4450    1.2780 h1        1 RW3      0.036950
     46 HAJ1        4.0320   -0.6330    3.3540 h1        1 RW3      0.031700
     47 HAJ2        3.3030   -2.2250    3.8630 h1        1 RW3      0.031700
     48 HAJ3        3.0910   -0.7490    4.9120 h1        1 RW3      0.031700
     49 HAQ1        0.6900   -0.7190    4.8310 h1        1 RW3      0.036950
     50 HAQ2        0.7520   -2.3070    3.9400 h1        1 RW3      0.036950
     51 HAP1       -0.7030    0.3220    3.1760 h1        1 RW3      0.056200
     52 HAP2       -1.4160   -1.3200    3.5340 h1        1 RW3      0.056200
     53 HAD        -4.1340    2.1450    1.4900 ha        1 RW3      0.150000
     54 HAC        -6.2660    2.4760    0.2470 ha        1 RW3      0.135000
     55 HAK        -7.0050    0.8430   -1.4680 ha        1 RW3      0.135000
     56 HAL        -5.6070   -1.1690   -1.9760 ha        1 RW3      0.137000
     57 HAN        -3.5710   -2.5180   -1.5360 ha        1 RW3      0.153000
     58 HAR1       -0.3190   -3.2020    0.3030 h1        1 RW3      0.095700
     59 HAR2       -1.8630   -4.0910   -0.1100 h1        1 RW3      0.095700
     60 H2         -3.7230   -6.2120   -3.7520 h5        1 RW3      0.053100
     61 HAZ1       -0.8830   -4.8520   -7.1250 hn        1 RW3      0.442800
     62 HAZ2        0.2170   -3.7900   -6.3670 hn        1 RW3      0.442800
     63 HBC        -0.2300   -1.3860   -5.8020 ha        1 RW3      0.152000
     64 HBE         2.9300   -3.0250   -3.3360 ha        1 RW3      0.148000
     65 HBH         4.6680   -2.0540   -4.8420 ha        1 RW3      0.153000
     66 HBM         4.8990    0.7890   -9.1510 hn        1 RW3      0.340500
     67 HBK1        4.5770    2.9170  -10.7190 hc        1 RW3      0.076033
     68 HBK2        3.2280    2.5720  -11.8890 hc        1 RW3      0.076033
     69 HBK3        4.6060    1.3960  -11.7190 hc        1 RW3      0.076033
@<TRIPOS>BOND
     1    1    2 1   
     2    1    7 1   
     3    1   42 1   
     4    1   43 1   
     5    2    3 1   
     6    2   44 1   
     7    2   45 1   
     8    3    4 1   
     9    3    5 1   
    10    4   46 1   
    11    4   47 1   
    12    4   48 1   
    13    5    6 1   
    14    5   49 1   
    15    5   50 1   
    16    6    7 1   
    17    6   51 1   
    18    6   52 1   
    19    7    8 1   
    20    8    9 ar  
    21    8   17 ar  
    22    9   10 ar  
    23   10   11 ar  
    24   10   15 ar  
    25   11   12 ar  
    26   11   53 1   
    27   12   13 ar  
    28   12   54 1   
    29   13   14 ar  
    30   13   55 1   
    31   14   15 ar  
    32   14   56 1   
    33   15   16 ar  
    34   16   17 ar  
    35   16   57 1   
    36   17   18 1   
    37   18   19 1   
    38   18   58 1   
    39   18   59 1   
    40   19   20 1   
    41   19   21 1   
    42   20   28 2   
    43   21   22 ar  
    44   21   27 ar  
    45   22   23 ar  
    46   23   24 ar  
    47   23   60 1   
    48   24   25 ar  
    49   25   26 1   
    50   25   27 ar  
    51   26   61 1   
    52   26   62 1   
    53   27   28 1   
    54   28   29 1   
    55   29   30 ar  
    56   29   31 ar  
    57   30   35 ar  
    58   30   63 1   
    59   31   32 ar  
    60   31   64 1   
    61   32   33 ar  
    62   32   65 1   
    63   33   34 1   
    64   33   35 ar  
    65   34   37 2   
    66   35   36 1   
    67   36   37 1   
    68   37   38 1   
    69   38   39 1   
    70   38   66 1   
    71   39   40 1   
    72   39   41 2   
    73   40   67 1   
    74   40   68 1   
    75   40   69 1   
@<TRIPOS>SUBSTRUCTURE
     1 RW3         1 TEMP              0 ****  ****    0 ROOT
