@<TRIPOS>MOLECULE
RW3
   69    61     1     0     0
SMALL
bcc


@<TRIPOS>ATOM
      1 CAA         0.2840    1.2180    5.3990 c3        1 RW3     -0.071000
      2 CAB         0.8130    0.4630    6.6130 c3        1 RW3     -0.068500
      3 NAI        -0.2320   -0.2130    7.3330 n3        1 RW3     -0.259000
      4 CAJ         0.3310   -1.0040    8.3600 c3        1 RW3     -0.118000
      5 CAQ        -1.0450   -1.0410    6.4840 c3        1 RW3     -0.068500
      6 CAP        -1.5730   -0.2860    5.2700 c3        1 RW3     -0.071000
      7 NAH        -0.5300    0.3900    4.5490 n3        1 RW3     -0.222000
      8 CAG        -1.1240    1.2160    3.4930 c2        1 RW3      0.087000
      9 NAF        -1.5650    2.5170    3.7400 n2        1 RW3     -0.164000
     10 CAE        -2.1400    3.2630    2.7200 c1        1 RW3      0.016000
     11 CAD        -2.5730    4.6000    2.9630 c1        1 RW3     -0.114750
     12 CAC        -3.1310    5.3510    1.9290 c1        1 RW3     -0.114750
     13 CAK        -3.2670    4.7940    0.6480 c1        1 RW3     -0.114750
     14 CAL        -2.8440    3.4820    0.4050 c1        1 RW3     -0.114750
     15 CAM        -2.2760    2.7130    1.4510 c1        1 RW3     -0.083000
     16 CAN        -1.8310    1.3980    1.2000 c1        1 RW3     -0.069000
     17 CAO        -1.2610    0.6600    2.2130 c1        1 RW3     -0.119000
     18 CAR        -0.8840   -0.7150    1.6380 c3        1 RW3      0.055000
     19 NAV        -0.8250   -0.6350    0.2130 n3        1 RW3     -0.141000
     20 NBA         0.2940   -1.1610   -0.4100 n2        1 RW3     -0.034000
     21 C6         -1.8100   -0.4820   -0.7350 c1        1 RW3      0.082000
     22 N1         -3.1040   -0.0340   -0.6460 n1        1 RW3     -0.212000
     23 C2         -3.9070   -0.0120   -1.7620 c1        1 RW3      0.033000
     24 N3         -3.4180   -0.4360   -2.9660 n1        1 RW3     -0.271000
     25 C4         -2.1320   -0.8820   -3.0610 c1        1 RW3      0.237000
     26 NAZ        -2.1600   -0.9080   -4.5560 n2        1 RW3     -0.352000
     27 C5         -1.3180   -0.9040   -1.9250 c1        1 RW3     -0.284000
     28 CBB         0.0040   -1.3300   -1.7170 c1        1 RW3     -0.032000
     29 CBD         0.9640   -1.7210   -2.6360 c1        1 RW3     -0.026000
     30 CBC         1.5470   -0.7710   -3.5030 c1        1 RW3     -0.082500
     31 CBE         1.3600   -3.0860   -2.7080 c1        1 RW3     -0.098000
     32 CBH         2.3270   -3.4860   -3.6380 c1        1 RW3     -0.082500
     33 CBG         2.9050   -2.5410   -4.4990 c1        1 RW3     -0.200500
     34 NBO         4.0180   -2.6830   -5.6510 n1        1 RW3     -0.165000
     35 CBF         2.5060   -1.1690   -4.4260 c1        1 RW3     -0.200500
     36 SBJ         3.3020   -0.3950   -5.4750 s         1 RW3      0.536000
     37 CBN         4.2380   -1.4200   -6.2110 c1        1 RW3     -0.107000
     38 NBM         4.9890   -1.7310   -7.3860 n2        1 RW3     -0.306000
     39 CBL         4.7690   -0.9880   -8.5930 c2        1 RW3      0.306000
     40 CBK         5.5760   -1.2930   -9.8220 c3        1 RW3     -0.240000
     41 OBI         3.9640   -0.1180   -8.6150 o         1 RW3     -0.334000
     42 HAA1        1.0540    1.5590    4.8710 h1        1 RW3      0.092750
     43 HAA2       -0.2680    2.0030    5.7180 h1        1 RW3      0.092750
     44 HAB1        1.2640    1.1180    7.2340 h1        1 RW3      0.076500
     45 HAB2        1.5060   -0.2310    6.2970 h1        1 RW3      0.076500
     46 HAJ1        0.9710   -1.6000    7.9860 h1        1 RW3      0.071333
     47 HAJ2       -0.3930   -1.5330    8.8100 h1        1 RW3      0.071333
     48 HAJ3        0.7760   -0.4130    9.0290 h1        1 RW3      0.071333
     49 HAQ1       -0.5020   -1.8150    6.1710 h1        1 RW3      0.076500
     50 HAQ2       -1.8260   -1.3830    7.0150 h1        1 RW3      0.076500
     51 HAP1       -2.2100    0.3520    5.5590 h1        1 RW3      0.092750
     52 HAP2       -2.0090   -0.9170    4.6750 h1        1 RW3      0.092750
     53 HAD        -2.4810    4.9880    3.8500 ha        1 RW3      0.139250
     54 HAC        -3.4250    6.2590    2.0940 ha        1 RW3      0.139250
     55 HAK        -3.6520    5.3130   -0.0620 ha        1 RW3      0.139250
     56 HAL        -2.9370    3.1050   -0.4690 ha        1 RW3      0.139250
     57 HAN        -1.9300    1.0010    0.2830 ha        1 RW3      0.150000
     58 HAR1       -0.0200   -0.9830    1.9820 h1        1 RW3      0.135500
     59 HAR2       -1.5760   -1.3900    1.9060 h1        1 RW3      0.135500
     60 H2         -4.8520    0.3160   -1.6930 ha        1 RW3      0.190000
     61 HAZ1       -1.3800   -1.0760   -5.0310 hn        1 RW3      0.236500
     62 HAZ2       -2.9740   -0.7960   -5.0150 hn        1 RW3      0.236500
     63 HBC         1.2560    0.1600   -3.4740 ha        1 RW3      0.152500
     64 HBE         1.0020   -3.7340   -2.0680 ha        1 RW3      0.150000
     65 HBH         2.6020   -4.4370   -3.6900 ha        1 RW3      0.152500
     66 HBM         5.5270   -2.4220   -7.3900 hn        1 RW3      0.254000
     67 HBK1        4.9760   -1.4640  -10.5710 hc        1 RW3      0.115667
     68 HBK2        6.1170   -2.0630   -9.6650 hc        1 RW3      0.115667
     69 HBK3        6.1450   -0.5360  -10.0320 hc        1 RW3      0.115667
@<TRIPOS>BOND
     1    1    2 1   
     2    1    7 1   
     3    1   42 1   
     4    1   43 1   
     5    2    3 1   
     6    2   44 1   
     7    2   45 1   
     8    3    4 1   
     9    3    5 1   
    10    4   46 1   
    11    4   47 1   
    12    4   48 1   
    13    5    6 1   
    14    5   49 1   
    15    5   50 1   
    16    6    7 1   
    17    6   51 1   
    18    6   52 1   
    19    7    8 1   
    20    8    9 1   
    21    8   17 1   
    22    9   10 1   
    23   10   15 1   
    24   11   12 1   
    25   11   53 1   
    26   12   54 1   
    27   13   14 1   
    28   13   55 1   
    29   14   56 1   
    30   15   16 1   
    31   16   57 1   
    32   17   18 1   
    33   18   19 1   
    34   18   58 1   
    35   18   59 1   
    36   19   20 1   
    37   19   21 1   
    38   20   28 1   
    39   21   27 1   
    40   22   23 1   
    41   23   60 1   
    42   24   25 1   
    43   25   27 1   
    44   26   61 1   
    45   26   62 1   
    46   28   29 1   
    47   29   31 1   
    48   30   35 1   
    49   30   63 1   
    50   31   64 1   
    51   32   33 1   
    52   32   65 1   
    53   34   37 1   
    54   36   37 1   
    55   38   39 1   
    56   38   66 1   
    57   39   40 1   
    58   39   41 1   
    59   40   67 1   
    60   40   68 1   
    61   40   69 1   
@<TRIPOS>SUBSTRUCTURE
     1 RW3         1 TEMP              0 ****  ****    0 ROOT
