@<TRIPOS>MOLECULE
RW4
   64    57     1     0     0
SMALL
bcc


@<TRIPOS>ATOM
      1 CAA         3.9580   -2.9570   -0.6310 c3        1 RW4     -0.104500
      2 CAB         5.4810   -2.9670   -0.5730 c3        1 RW4     -0.075000
      3 NAI         5.9720   -2.9910    0.7660 n3        1 RW4     -0.246000
      4 CAJ         5.7100   -4.2860    1.3620 c3        1 RW4     -0.130000
      5 CAQ         5.3960   -1.9610    1.5820 c3        1 RW4     -0.075000
      6 CAP         3.8910   -1.9560    1.5250 c3        1 RW4     -0.104500
      7 NAH         3.3910   -1.9310    0.1840 n3        1 RW4     -0.217000
      8 CAG         1.9100   -2.0690    0.2070 c2        1 RW4      0.086000
      9 NAF         1.3610   -3.2920    0.1570 n2        1 RW4     -0.166000
     10 CAE        -0.0120   -3.4340    0.1720 c1        1 RW4      0.015000
     11 CAD        -0.5860   -4.7080    0.1190 c1        1 RW4     -0.115000
     12 CAC        -1.9660   -4.8480    0.1330 c1        1 RW4     -0.115000
     13 CAK        -2.7840   -3.7190    0.2000 c1        1 RW4     -0.115000
     14 CAL        -2.2240   -2.4650    0.2520 c1        1 RW4     -0.115000
     15 CAM        -0.8220   -2.3180    0.2380 c1        1 RW4     -0.082000
     16 CAN        -0.2690   -1.0760    0.2890 c1        1 RW4     -0.069000
     17 CAO         1.0860   -0.9320    0.2750 c1        1 RW4     -0.118000
     18 CAR         1.4810    0.6000    0.4330 c3        1 RW4      0.055000
     19 NAV         0.5330    1.4270   -0.2990 n3        1 RW4     -0.140000
     20 NBA        -0.7680    1.5170    0.1020 n2        1 RW4     -0.036000
     21 C6          0.7400    2.3620   -1.2960 c1        1 RW4      0.082000
     22 N1          1.8410    2.6470   -2.0790 n1        1 RW4     -0.212000
     23 C2          1.7540    3.5980   -3.0710 c1        1 RW4      0.033000
     24 N3          0.5740    4.2650   -3.2820 n1        1 RW4     -0.272000
     25 C4         -0.4970    3.9880   -2.5210 c1        1 RW4      0.238000
     26 NAZ        -1.4760    4.8540   -3.0970 n2        1 RW4     -0.328000
     27 C5         -0.4070    3.0070   -1.4980 c1        1 RW4     -0.284000
     28 CBB        -1.3590    2.4770   -0.6190 c1        1 RW4     -0.032000
     29 CBD        -2.6980    2.6370   -0.2010 c1        1 RW4     -0.031000
     30 CBC        -3.1250    3.4740    0.8370 c1        1 RW4     -0.049000
     31 CBF        -4.5070    3.6920    1.0430 c1        1 RW4     -0.333000
     32 SBI        -5.2800    4.5270    2.0960 s         1 RW4      0.389000
     33 CBK        -6.7710    4.3490    1.8170 c1        1 RW4     -0.089000
     34 NBJ        -7.8930    5.0650    2.3850 n2        1 RW4     -0.328000
     35 NBL        -6.9060    3.4710    0.6790 n2        1 RW4     -0.173000
     36 CBG        -5.4670    3.0600    0.1950 c1        1 RW4     -0.013000
     37 CBH        -5.0420    2.2220   -0.8450 c1        1 RW4     -0.097000
     38 CBE        -3.6650    2.0020   -1.0540 c1        1 RW4     -0.119000
     39 HAA1        3.6950   -2.8230   -1.5000 h1        1 RW4      0.089250
     40 HAA2        3.6150   -3.8400   -0.3230 h1        1 RW4      0.089250
     41 HAB1        5.8250   -2.1600   -1.0260 h1        1 RW4      0.098000
     42 HAB2        5.8140   -3.7700   -1.0510 h1        1 RW4      0.098000
     43 HAJ1        6.2910   -4.4070    2.1510 h1        1 RW4      0.072667
     44 HAJ2        4.7650   -4.3340    1.6380 h1        1 RW4      0.072667
     45 HAJ3        5.9050   -5.0180    0.6850 h1        1 RW4      0.072667
     46 HAQ1        5.7280   -1.0860    1.2710 h1        1 RW4      0.098000
     47 HAQ2        5.6820   -2.0980    2.5320 h1        1 RW4      0.098000
     48 HAP1        3.5630   -2.7470    1.9630 h1        1 RW4      0.089250
     49 HAP2        3.5650   -1.1830    1.9950 h1        1 RW4      0.089250
     50 HAD        -0.0200   -5.4920    0.0730 ha        1 RW4      0.139000
     51 HAC        -2.3470   -5.6930    0.0980 ha        1 RW4      0.139000
     52 HAK        -3.7700   -3.8200    0.2090 ha        1 RW4      0.139000
     53 HAL        -2.7990   -1.6730    0.2990 ha        1 RW4      0.139000
     54 HAN        -0.8150   -0.3280    0.3330 ha        1 RW4      0.150000
     55 HAR1        2.3550    0.7380    0.0870 h1        1 RW4      0.136500
     56 HAR2        1.4640    0.8460    1.3790 h1        1 RW4      0.136500
     57 H2          2.5530    3.8040   -3.6370 ha        1 RW4      0.190000
     58 HAZ1       -1.2430    5.4340   -3.6870 hn        1 RW4      0.222750
     59 HAZ2       -2.3480    4.7520   -2.8860 hn        1 RW4      0.222750
     60 HBC        -2.4690    3.8050    1.5080 ha        1 RW4      0.154000
     61 HBE        -3.3650    1.4180   -1.7950 ha        1 RW4      0.148000
     62 HBJ1       -7.7690    5.6080    3.0740 hn        1 RW4      0.222750
     63 HBJ2       -8.7430    4.9370    2.0450 hn        1 RW4      0.222750
     64 HBH        -5.6920    1.7960   -1.4150 ha        1 RW4      0.155000
@<TRIPOS>BOND
     1    1    2 1   
     2    1    7 1   
     3    1   39 1   
     4    1   40 1   
     5    2    3 1   
     6    2   41 1   
     7    2   42 1   
     8    3    4 1   
     9    3    5 1   
    10    4   43 1   
    11    4   44 1   
    12    4   45 1   
    13    5    6 1   
    14    5   46 1   
    15    5   47 1   
    16    6    7 1   
    17    6   48 1   
    18    6   49 1   
    19    7    8 1   
    20    8    9 1   
    21    8   17 1   
    22    9   10 1   
    23   10   15 1   
    24   11   12 1   
    25   11   50 1   
    26   12   51 1   
    27   13   14 1   
    28   13   52 1   
    29   14   53 1   
    30   15   16 1   
    31   16   54 1   
    32   17   18 1   
    33   18   19 1   
    34   18   55 1   
    35   18   56 1   
    36   19   20 1   
    37   19   21 1   
    38   20   28 1   
    39   21   27 1   
    40   22   23 1   
    41   23   57 1   
    42   24   25 1   
    43   25   27 1   
    44   26   58 1   
    45   26   59 1   
    46   28   29 1   
    47   29   38 1   
    48   30   31 1   
    49   30   60 1   
    50   32   33 1   
    51   33   35 1   
    52   34   62 1   
    53   34   63 1   
    54   35   36 1   
    55   36   37 1   
    56   37   64 1   
    57   38   61 1   
@<TRIPOS>SUBSTRUCTURE
     1 RW4         1 TEMP              0 ****  ****    0 ROOT
