@<TRIPOS>MOLECULE
RW4
   64    70     1     0     0
SMALL
bcc


@<TRIPOS>ATOM
      1 CAA         0.2840    0.4740    0.2660 c3        1 RW4      0.136800
      2 CAB         1.7530    0.2380    0.6820 c3        1 RW4      0.161300
      3 NAI         1.9390   -0.5930    1.8620 n3        1 RW4     -0.720600
      4 CAJ         1.8490   -2.0100    1.5910 c3        1 RW4      0.147100
      5 CAQ         1.0740   -0.1530    2.9460 c3        1 RW4      0.161300
      6 CAP        -0.4060    0.0630    2.5560 c3        1 RW4      0.136800
      7 NAH        -0.5250    0.9360    1.3910 nh        1 RW4     -0.727300
      8 CAG        -1.8820    1.2360    1.0010 ca        1 RW4      0.626200
      9 NAF        -2.8200    0.2790    1.0250 nb        1 RW4     -0.704000
     10 CAE        -4.1170    0.6000    0.7050 ca        1 RW4      0.420600
     11 CAD        -5.1280   -0.4180    0.7270 ca        1 RW4     -0.173300
     12 CAC        -6.4260   -0.1070    0.4090 ca        1 RW4     -0.117000
     13 CAK        -6.7960    1.2130    0.0560 ca        1 RW4     -0.134000
     14 CAL        -5.8530    2.2100    0.0250 ca        1 RW4     -0.101000
     15 CAM        -4.5000    1.9270    0.3450 ca        1 RW4     -0.162300
     16 CAN        -3.4900    2.9240    0.3240 ca        1 RW4     -0.052000
     17 CAO        -2.1850    2.6090    0.6280 ca        1 RW4     -0.210600
     18 CAR        -1.1380    3.6840    0.6380 c3        1 RW4      0.115600
     19 NAV        -0.8970    4.3140   -0.6540 na        1 RW4     -0.000800
     20 NBA        -1.8380    4.9890   -1.3440 nc        1 RW4     -0.511100
     21 C6          0.3120    4.2570   -1.3760 ca        1 RW4      0.476800
     22 N1          1.5200    3.6980   -1.0520 nb        1 RW4     -0.741000
     23 C2          2.4630    3.9030   -1.9970 ca        1 RW4      0.694900
     24 N3          2.3870    4.5670   -3.1820 nb        1 RW4     -0.798000
     25 C4          1.1730    5.1200   -3.5160 ca        1 RW4      0.756200
     26 NAZ         1.0080    5.7590   -4.7240 nv        1 RW4     -0.953500
     27 C5          0.0740    4.9860   -2.6130 ca        1 RW4     -0.496500
     28 CBB        -1.3090    5.4120   -2.5210 cd        1 RW4      0.425500
     29 CBD        -2.0500    6.1830   -3.5110 ca        1 RW4     -0.111900
     30 CBC        -2.1880    5.6980   -4.8110 ca        1 RW4     -0.073000
     31 CBF        -2.8990    6.4470   -5.7450 ca        1 RW4     -0.107100
     32 SBI        -3.2310    6.1050   -7.3680 ss        1 RW4     -0.069100
     33 CBK        -4.1170    7.6310   -7.5230 cc        1 RW4      0.577100
     34 NBJ        -4.7740    7.9120   -8.7110 nv        1 RW4     -0.863800
     35 NBL        -4.1600    8.3700   -6.4060 nd        1 RW4     -0.599100
     36 CBG        -3.4880    7.7030   -5.3770 ca        1 RW4      0.127400
     37 CBH        -3.3490    8.1700   -4.0550 ca        1 RW4     -0.096000
     38 CBE        -2.6410    7.4090   -3.1400 ca        1 RW4     -0.097000
     39 HAA1       -0.1290   -0.4770   -0.1790 h1        1 RW4      0.049700
     40 HAA2        0.2620    1.2720   -0.5260 h1        1 RW4      0.049700
     41 HAB1        2.2870   -0.2250   -0.1930 h1        1 RW4      0.060700
     42 HAB2        2.2330    1.2340    0.9020 h1        1 RW4      0.060700
     43 HAJ1        0.8350   -2.3360    1.2280 h1        1 RW4      0.032033
     44 HAJ2        2.0880   -2.5740    2.5300 h1        1 RW4      0.032033
     45 HAJ3        2.6080   -2.2780    0.8100 h1        1 RW4      0.032033
     46 HAQ1        1.4990    0.8170    3.3280 h1        1 RW4      0.060700
     47 HAQ2        1.1030   -0.9040    3.7800 h1        1 RW4      0.060700
     48 HAP1       -0.9370    0.5600    3.4130 h1        1 RW4      0.049700
     49 HAP2       -0.8800   -0.9470    2.3880 h1        1 RW4      0.049700
     50 HAD        -4.8440   -1.4460    1.0010 ha        1 RW4      0.149000
     51 HAC        -7.2010   -0.8880    0.4260 ha        1 RW4      0.135000
     52 HAK        -7.8460    1.4250   -0.1930 ha        1 RW4      0.136000
     53 HAL        -6.1250    3.2410   -0.2510 ha        1 RW4      0.138000
     54 HAN        -3.7800    3.9550    0.0620 ha        1 RW4      0.159000
     55 HAR1       -1.4800    4.4930    1.3510 h1        1 RW4      0.093200
     56 HAR2       -0.1440    3.2940    0.9990 h1        1 RW4      0.093200
     57 H2          3.4630    3.4680   -1.7740 h5        1 RW4      0.053100
     58 HAZ1        1.8040    5.9700   -5.2760 hn        1 RW4      0.439300
     59 HAZ2        0.1930    6.3130   -4.8400 hn        1 RW4      0.439300
     60 HBC        -1.7510    4.7260   -5.0910 ha        1 RW4      0.154000
     61 HBE        -2.5360    7.7600   -2.1010 ha        1 RW4      0.149000
     62 HBJ1       -4.2660    7.6540   -9.5280 hn        1 RW4      0.413300
     63 HBJ2       -5.2060    8.8100   -8.7670 hn        1 RW4      0.413300
     64 HBH        -3.8070    9.1260   -3.7590 ha        1 RW4      0.155000
@<TRIPOS>BOND
     1    1    2 1   
     2    1    7 1   
     3    1   39 1   
     4    1   40 1   
     5    2    3 1   
     6    2   41 1   
     7    2   42 1   
     8    3    4 1   
     9    3    5 1   
    10    4   43 1   
    11    4   44 1   
    12    4   45 1   
    13    5    6 1   
    14    5   46 1   
    15    5   47 1   
    16    6    7 1   
    17    6   48 1   
    18    6   49 1   
    19    7    8 1   
    20    8    9 ar  
    21    8   17 ar  
    22    9   10 ar  
    23   10   11 ar  
    24   10   15 ar  
    25   11   12 ar  
    26   11   50 1   
    27   12   13 ar  
    28   12   51 1   
    29   13   14 ar  
    30   13   52 1   
    31   14   15 ar  
    32   14   53 1   
    33   15   16 ar  
    34   16   17 ar  
    35   16   54 1   
    36   17   18 1   
    37   18   19 1   
    38   18   55 1   
    39   18   56 1   
    40   19   20 1   
    41   19   21 1   
    42   20   28 2   
    43   21   22 ar  
    44   21   27 ar  
    45   22   23 ar  
    46   23   24 ar  
    47   23   57 1   
    48   24   25 ar  
    49   25   26 1   
    50   25   27 ar  
    51   26   58 1   
    52   26   59 1   
    53   27   28 1   
    54   28   29 1   
    55   29   30 ar  
    56   29   38 ar  
    57   30   31 ar  
    58   30   60 1   
    59   31   32 1   
    60   31   36 ar  
    61   32   33 1   
    62   33   34 1   
    63   33   35 2   
    64   34   62 1   
    65   34   63 1   
    66   35   36 1   
    67   36   37 ar  
    68   37   38 ar  
    69   37   64 1   
    70   38   61 1   
@<TRIPOS>SUBSTRUCTURE
     1 RW4         1 TEMP              0 ****  ****    0 ROOT
