@<TRIPOS>MOLECULE
RW4
   66    72     1     0     0
SMALL
bcc


@<TRIPOS>ATOM
      1 CAA        -0.9620    1.0410   -1.4300 c3        1 RW4      0.128800
      2 CAB         0.5240    1.0280   -1.8540 c3        1 RW4      0.169800
      3 NAI         1.4380    0.3830   -0.9290 n3        1 RW4     -0.727600
      4 CAJ         1.5290   -1.0520   -1.1040 c3        1 RW4      0.143100
      5 CAQ         1.1880    0.7880    0.4450 c3        1 RW4      0.169800
      6 CAP        -0.2940    0.8040    0.8770 c3        1 RW4      0.128800
      7 NAH        -1.1240    1.5550   -0.0700 nh        1 RW4     -0.734300
      8 CAG        -2.5030    1.6250    0.3670 ca        1 RW4      0.606200
      9 NAF        -3.3730    0.6550    0.0710 nb        1 RW4     -0.684000
     10 CAE        -4.6780    0.7710    0.4930 ca        1 RW4      0.423600
     11 CAD        -5.6140   -0.2730    0.1990 ca        1 RW4     -0.176300
     12 CAC        -6.9140   -0.1740    0.6270 ca        1 RW4     -0.096000
     13 CAK        -7.3590    0.9540    1.3600 ca        1 RW4     -0.112000
     14 CAL        -6.4880    1.9730    1.6580 ca        1 RW4     -0.106000
     15 CAM        -5.1360    1.9050    1.2350 ca        1 RW4     -0.160300
     16 CAN        -4.1980    2.9280    1.5280 ca        1 RW4     -0.032000
     17 CAO        -2.8890    2.8060    1.1190 ca        1 RW4     -0.241600
     18 CAR        -1.8940    3.8510    1.4920 c3        1 RW4      0.125600
     19 NAV        -1.2360    4.5060    0.3480 na        1 RW4      0.078200
     20 NBA        -1.7950    4.7060   -0.8380 nc        1 RW4     -0.394100
     21 C6          0.1230    4.8780    0.3370 ca        1 RW4      0.460800
     22 N1          1.0630    4.8390    1.3230 nb        1 RW4     -0.609000
     23 C2          2.2800    5.2840    0.9490 ca        1 RW4      0.689900
     24 N3          2.6670    5.7470   -0.2830 nb        1 RW4     -0.682000
     25 C4          1.7220    5.7790   -1.2480 ca        1 RW4      0.544200
     26 NAZ         2.1450    6.2390   -2.5890 n4        1 RW4     -0.830300
     27 C5          0.3920    5.3810   -1.0280 ca        1 RW4     -0.402500
     28 CBB        -0.8810    5.2470   -1.7020 cd        1 RW4      0.333500
     29 CBD        -1.2440    5.6120   -3.0640 ca        1 RW4     -0.053900
     30 CBC        -1.9270    4.6940   -3.8580 ca        1 RW4     -0.059000
     31 CBF        -2.3560    5.0760   -5.1350 ca        1 RW4     -0.091100
     32 SBI        -3.2330    4.2150   -6.2750 ss        1 RW4      0.208900
     33 CBK        -3.2210    5.5780   -7.3370 cc        1 RW4      0.281100
     34 NBJ        -3.8740    5.5700   -8.6380 n4        1 RW4     -0.747600
     35 NBL        -2.5810    6.6720   -6.8870 nd        1 RW4     -0.449100
     36 CBG        -2.0820    6.4050   -5.6200 ca        1 RW4      0.077400
     37 CBH        -1.3860    7.3250   -4.7960 ca        1 RW4     -0.030000
     38 CBE        -0.9810    6.9210   -3.5410 ca        1 RW4     -0.165000
     39 HAA1       -1.3720   -0.0030   -1.5490 h1        1 RW4      0.053200
     40 HAA2       -1.5310    1.7180   -2.1230 h1        1 RW4      0.053200
     41 HAB1        0.5880    0.5260   -2.8590 h1        1 RW4      0.048700
     42 HAB2        0.8790    2.0900   -1.9720 h1        1 RW4      0.048700
     43 HAJ1        2.3260   -1.4480   -0.4220 h1        1 RW4      0.044367
     44 HAJ2        1.8290   -1.2690   -2.1630 h1        1 RW4      0.044367
     45 HAJ3        0.5670   -1.5900   -0.8850 h1        1 RW4      0.044367
     46 HAQ1        1.7420    0.1060    1.1470 h1        1 RW4      0.048700
     47 HAQ2        1.6120    1.8250    0.5600 h1        1 RW4      0.048700
     48 HAP1       -0.6540   -0.2590    0.9920 h1        1 RW4      0.053200
     49 HAP2       -0.3680    1.3040    1.8820 h1        1 RW4      0.053200
     50 HAD        -5.2710   -1.1570   -0.3630 ha        1 RW4      0.159000
     51 HAC        -7.6320   -0.9820    0.4090 ha        1 RW4      0.154000
     52 HAK        -8.4080    0.9970    1.6920 ha        1 RW4      0.155000
     53 HAL        -6.8210    2.8520    2.2320 ha        1 RW4      0.146000
     54 HAN        -4.5370    3.8110    2.0960 ha        1 RW4      0.150000
     55 HAR1       -2.3910    4.6760    2.0850 h1        1 RW4      0.097700
     56 HAR2       -1.0740    3.3900    2.1170 h1        1 RW4      0.097700
     57 H2          3.0830    5.2730    1.7260 h5        1 RW4      0.110100
     58 HAZ1        1.3140    6.3410   -3.1840 hn        1 RW4      0.475800
     59 HAZ2        2.7860    5.5450   -2.9990 hn        1 RW4      0.475800
     60 HBC        -2.1500    3.6820   -3.4750 ha        1 RW4      0.185000
     61 HBE        -0.5170    7.6550   -2.8610 ha        1 RW4      0.155000
     62 HBJ1       -4.8950    5.5300   -8.5060 hn        1 RW4      0.483467
     63 HBJ2       -3.6450    6.4280   -9.1690 hn        1 RW4      0.483467
     64 HBH        -1.2040    8.3530   -5.1560 ha        1 RW4      0.185000
     65 HAZ3        2.6390    7.1390   -2.5170 hn        1 RW4      0.475800
     66 HBJ3       -3.5580    4.7530   -9.1760 hn        1 RW4      0.483467
@<TRIPOS>BOND
     1    1    2 1   
     2    1    7 1   
     3    1   39 1   
     4    1   40 1   
     5    2    3 1   
     6    2   41 1   
     7    2   42 1   
     8    3    4 1   
     9    3    5 1   
    10    4   43 1   
    11    4   44 1   
    12    4   45 1   
    13    5    6 1   
    14    5   46 1   
    15    5   47 1   
    16    6    7 1   
    17    6   48 1   
    18    6   49 1   
    19    7    8 1   
    20    8    9 ar  
    21    8   17 ar  
    22    9   10 ar  
    23   10   11 ar  
    24   10   15 ar  
    25   11   12 ar  
    26   11   50 1   
    27   12   13 ar  
    28   12   51 1   
    29   13   14 ar  
    30   13   52 1   
    31   14   15 ar  
    32   14   53 1   
    33   15   16 ar  
    34   16   17 ar  
    35   16   54 1   
    36   17   18 1   
    37   18   19 1   
    38   18   55 1   
    39   18   56 1   
    40   19   20 1   
    41   19   21 1   
    42   20   28 2   
    43   21   22 ar  
    44   21   27 ar  
    45   22   23 ar  
    46   23   24 ar  
    47   23   57 1   
    48   24   25 ar  
    49   25   26 1   
    50   25   27 ar  
    51   26   58 1   
    52   26   59 1   
    53   26   65 1   
    54   27   28 1   
    55   28   29 1   
    56   29   30 ar  
    57   29   38 ar  
    58   30   31 ar  
    59   30   60 1   
    60   31   32 1   
    61   31   36 ar  
    62   32   33 1   
    63   33   34 1   
    64   33   35 2   
    65   34   62 1   
    66   34   63 1   
    67   34   66 1   
    68   35   36 1   
    69   36   37 ar  
    70   37   38 ar  
    71   37   64 1   
    72   38   61 1   
@<TRIPOS>SUBSTRUCTURE
     1 RW4         1 TEMP              0 ****  ****    0 ROOT
