@<TRIPOS>MOLECULE
RW4
   64    70     1     0     0
SMALL
bcc


@<TRIPOS>ATOM
      1 CAA        -3.6150   -1.4540   -0.7340 c3        1 RW4      0.139800
      2 CAB        -4.2100   -2.8790   -0.7540 c3        1 RW4      0.160800
      3 NAI        -5.6640   -2.9460   -0.7600 n3        1 RW4     -0.720600
      4 CAJ        -6.2450   -2.7480   -2.0700 c3        1 RW4      0.147100
      5 CAQ        -6.2260   -2.0770    0.2620 c3        1 RW4      0.160800
      6 CAP        -5.6630   -0.6370    0.2790 c3        1 RW4      0.139800
      7 NAH        -4.2040   -0.6390    0.3270 nh        1 RW4     -0.729300
      8 CAG        -3.5940    0.6620    0.4250 ca        1 RW4      0.631200
      9 NAF        -4.1450    1.7180   -0.1900 nb        1 RW4     -0.707000
     10 CAE        -3.5800    2.9600   -0.0320 ca        1 RW4      0.424600
     11 CAD        -4.1670    4.0960   -0.6840 ca        1 RW4     -0.174300
     12 CAC        -3.6070    5.3390   -0.5390 ca        1 RW4     -0.116000
     13 CAK        -2.4480    5.5310    0.2520 ca        1 RW4     -0.135000
     14 CAL        -1.8630    4.4660    0.8890 ca        1 RW4     -0.100000
     15 CAM        -2.4120    3.1650    0.7620 ca        1 RW4     -0.164300
     16 CAN        -1.8430    2.0330    1.4030 ca        1 RW4     -0.046000
     17 CAO        -2.4010    0.7850    1.2500 ca        1 RW4     -0.212600
     18 CAR        -1.8080   -0.3830    1.9820 c3        1 RW4      0.115600
     19 NAV        -0.4980   -0.7980    1.4960 na        1 RW4     -0.001800
     20 NBA         0.5510    0.0370    1.3610 nc        1 RW4     -0.509100
     21 C6         -0.1620   -2.1020    1.0810 ca        1 RW4      0.473800
     22 N1         -0.9040   -3.2530    1.0660 nb        1 RW4     -0.741000
     23 C2         -0.2020   -4.3240    0.6360 ca        1 RW4      0.694900
     24 N3          1.0950   -4.4170    0.2320 nb        1 RW4     -0.798000
     25 C4          1.8400   -3.2610    0.2350 ca        1 RW4      0.757200
     26 NAZ         3.1410   -3.2710   -0.2110 nh        1 RW4     -0.953500
     27 C5          1.2320   -2.0410    0.6660 ca        1 RW4     -0.496500
     28 CBB         1.6090   -0.6560    0.8680 cd        1 RW4      0.424500
     29 CBD         2.9140   -0.0620    0.6030 ca        1 RW4     -0.110900
     30 CBC         3.4590   -0.1230   -0.6790 ca        1 RW4     -0.074000
     31 CBF         4.7090    0.4440   -0.9150 ca        1 RW4     -0.107100
     32 SBI         5.6040    0.5110   -2.3480 ss        1 RW4     -0.069100
     33 CBK         6.8930    1.3980   -1.5170 cc        1 RW4      0.575100
     34 NBJ         8.0640    1.6850   -2.2030 nh        1 RW4     -0.862800
     35 NBL         6.6610    1.6400   -0.2200 nd        1 RW4     -0.598100
     36 CBG         5.4260    1.0940    0.1440 ca        1 RW4      0.126400
     37 CBH         4.8540    1.1550    1.4310 ca        1 RW4     -0.095000
     38 CBE         3.6100    0.5840    1.6450 ca        1 RW4     -0.097000
     39 HAA1       -2.5100   -1.5330   -0.5380 h1        1 RW4      0.048950
     40 HAA2       -3.7610   -0.9800   -1.7470 h1        1 RW4      0.048950
     41 HAB1       -3.8040   -3.4070   -1.6590 h1        1 RW4      0.061450
     42 HAB2       -3.8610   -3.4310    0.1640 h1        1 RW4      0.061450
     43 HAJ1       -5.8230   -3.5140   -2.7720 h1        1 RW4      0.032033
     44 HAJ2       -7.3540   -2.9000   -2.0000 h1        1 RW4      0.032033
     45 HAJ3       -6.0520   -1.7260   -2.4990 h1        1 RW4      0.032033
     46 HAQ1       -7.3400   -2.0080    0.1280 h1        1 RW4      0.061450
     47 HAQ2       -6.0180   -2.5660    1.2550 h1        1 RW4      0.061450
     48 HAP1       -6.0630   -0.0880   -0.6220 h1        1 RW4      0.048950
     49 HAP2       -6.0370   -0.1140    1.2010 h1        1 RW4      0.048950
     50 HAD        -5.0680    3.9500   -1.3000 ha        1 RW4      0.150000
     51 HAC        -4.0570    6.2100   -1.0400 ha        1 RW4      0.135000
     52 HAK        -2.0270    6.5430    0.3450 ha        1 RW4      0.135000
     53 HAL        -0.9600    4.5990    1.5050 ha        1 RW4      0.137000
     54 HAN        -0.9450    2.1770    2.0270 ha        1 RW4      0.156000
     55 HAR1       -1.6870   -0.0870    3.0670 h1        1 RW4      0.090700
     56 HAR2       -2.4800   -1.2870    1.9380 h1        1 RW4      0.090700
     57 H2         -0.7640   -5.2830    0.6110 h5        1 RW4      0.054100
     58 HAZ1        3.5940   -4.1370   -0.3770 hn        1 RW4      0.440300
     59 HAZ2        3.7000   -2.4760   -0.0110 hn        1 RW4      0.440300
     60 HBC         2.9010   -0.6060   -1.4980 ha        1 RW4      0.153000
     61 HBE         3.1510    0.6340    2.6450 ha        1 RW4      0.148000
     62 HBJ1        7.9200    1.9730   -3.1460 hn        1 RW4      0.412800
     63 HBJ2        8.7290    2.2420   -1.7090 hn        1 RW4      0.412800
     64 HBH         5.3940    1.6550    2.2490 ha        1 RW4      0.155000
@<TRIPOS>BOND
     1    1    2 1   
     2    1    7 1   
     3    1   39 1   
     4    1   40 1   
     5    2    3 1   
     6    2   41 1   
     7    2   42 1   
     8    3    4 1   
     9    3    5 1   
    10    4   43 1   
    11    4   44 1   
    12    4   45 1   
    13    5    6 1   
    14    5   46 1   
    15    5   47 1   
    16    6    7 1   
    17    6   48 1   
    18    6   49 1   
    19    7    8 1   
    20    8    9 ar  
    21    8   17 ar  
    22    9   10 ar  
    23   10   11 ar  
    24   10   15 ar  
    25   11   12 ar  
    26   11   50 1   
    27   12   13 ar  
    28   12   51 1   
    29   13   14 ar  
    30   13   52 1   
    31   14   15 ar  
    32   14   53 1   
    33   15   16 ar  
    34   16   17 ar  
    35   16   54 1   
    36   17   18 1   
    37   18   19 1   
    38   18   55 1   
    39   18   56 1   
    40   19   20 1   
    41   19   21 1   
    42   20   28 2   
    43   21   22 ar  
    44   21   27 ar  
    45   22   23 ar  
    46   23   24 ar  
    47   23   57 1   
    48   24   25 ar  
    49   25   26 1   
    50   25   27 ar  
    51   26   58 1   
    52   26   59 1   
    53   27   28 1   
    54   28   29 1   
    55   29   30 ar  
    56   29   38 ar  
    57   30   31 ar  
    58   30   60 1   
    59   31   32 1   
    60   31   36 ar  
    61   32   33 1   
    62   33   34 1   
    63   33   35 2   
    64   34   62 1   
    65   34   63 1   
    66   35   36 1   
    67   36   37 ar  
    68   37   38 ar  
    69   37   64 1   
    70   38   61 1   
@<TRIPOS>SUBSTRUCTURE
     1 RW4         1 TEMP              0 ****  ****    0 ROOT
