@<TRIPOS>MOLECULE
RW4
   64    70     1     0     0
SMALL
bcc


@<TRIPOS>ATOM
      1 CAA         0.5960    0.3450    0.9580 c3        1 RW4      0.131800
      2 CAB         1.9280    0.4020    1.7370 c3        1 RW4      0.161800
      3 NAI         1.8550   -0.0210    3.1270 n3        1 RW4     -0.721600
      4 CAJ         1.8900   -1.4570    3.2970 c3        1 RW4      0.147100
      5 CAQ         0.7370    0.6170    3.8050 c3        1 RW4      0.161800
      6 CAP        -0.6120    0.5470    3.0540 c3        1 RW4      0.131800
      7 NAH        -0.4790    1.0250    1.6810 nh        1 RW4     -0.728300
      8 CAG        -1.7140    1.0370    0.9310 ca        1 RW4      0.621200
      9 NAF        -2.5670    0.0100    1.0140 nb        1 RW4     -0.699000
     10 CAE        -3.7600    0.0680    0.3310 ca        1 RW4      0.415600
     11 CAD        -4.6810   -1.0270    0.4150 ca        1 RW4     -0.170300
     12 CAC        -5.8750   -0.9760   -0.2600 ca        1 RW4     -0.120000
     13 CAK        -6.2210    0.1480   -1.0470 ca        1 RW4     -0.132000
     14 CAL        -5.3600    1.2130   -1.1480 ca        1 RW4     -0.104000
     15 CAM        -4.1160    1.1950   -0.4670 ca        1 RW4     -0.155300
     16 CAN        -3.1920    2.2720   -0.5460 ca        1 RW4     -0.067000
     17 CAO        -1.9920    2.2160    0.1210 ca        1 RW4     -0.199600
     18 CAR        -1.0120    3.3530    0.0900 c3        1 RW4      0.117600
     19 NAV        -0.8860    4.0400   -1.1860 na        1 RW4     -0.004800
     20 NBA        -1.6660    5.0710   -1.5730 nc        1 RW4     -0.508100
     21 C6         -0.0390    3.6280   -2.2360 ca        1 RW4      0.477800
     22 N1          0.8990    2.6320   -2.2780 nb        1 RW4     -0.741000
     23 C2          1.5540    2.5830   -3.4600 ca        1 RW4      0.695900
     24 N3          1.4210    3.3610   -4.5680 nb        1 RW4     -0.797000
     25 C4          0.4720    4.3570   -4.5290 ca        1 RW4      0.757200
     26 NAZ         0.2530    5.1500   -5.6310 nh        1 RW4     -0.953500
     27 C5         -0.3100    4.5280   -3.3450 ca        1 RW4     -0.497500
     28 CBB        -1.3520    5.4080   -2.8500 cd        1 RW4      0.424500
     29 CBD        -1.9860    6.5010   -3.5770 ca        1 RW4     -0.111900
     30 CBC        -2.6180    6.2530   -4.7950 ca        1 RW4     -0.076000
     31 CBF        -3.2130    7.3100   -5.4800 ca        1 RW4     -0.107100
     32 SBI        -4.0300    7.3050   -6.9610 ss        1 RW4     -0.071100
     33 CBK        -4.3220    9.0470   -6.8210 cc        1 RW4      0.576100
     34 NBJ        -4.9220    9.7170   -7.8760 nh        1 RW4     -0.862800
     35 NBL        -3.8340    9.6090   -5.7070 nd        1 RW4     -0.598100
     36 CBG        -3.1880    8.6370   -4.9360 ca        1 RW4      0.127400
     37 CBH        -2.5550    8.8650   -3.6980 ca        1 RW4     -0.095000
     38 CBE        -1.9680    7.8020   -3.0340 ca        1 RW4     -0.095000
     39 HAA1        0.3390   -0.7340    0.7530 h1        1 RW4      0.052700
     40 HAA2        0.7360    0.8650   -0.0300 h1        1 RW4      0.052700
     41 HAB1        2.3040    1.4640    1.7400 h1        1 RW4      0.058700
     42 HAB2        2.6740   -0.2340    1.1880 h1        1 RW4      0.058700
     43 HAJ1        1.0080   -1.9860    2.8410 h1        1 RW4      0.032700
     44 HAJ2        2.8260   -1.8540    2.8230 h1        1 RW4      0.032700
     45 HAJ3        1.9180   -1.6910    4.3930 h1        1 RW4      0.032700
     46 HAQ1        0.5920    0.1470    4.8160 h1        1 RW4      0.058700
     47 HAQ2        1.0200    1.6970    3.9550 h1        1 RW4      0.058700
     48 HAP1       -1.3520    1.2110    3.5780 h1        1 RW4      0.052700
     49 HAP2       -0.9940   -0.5130    3.1080 h1        1 RW4      0.052700
     50 HAD        -4.4150   -1.9040    1.0260 ha        1 RW4      0.149000
     51 HAC        -6.5820   -1.8170   -0.1970 ha        1 RW4      0.135000
     52 HAK        -7.1870    0.1560   -1.5730 ha        1 RW4      0.135000
     53 HAL        -5.6160    2.0940   -1.7560 ha        1 RW4      0.137000
     54 HAN        -3.4770    3.1480   -1.1510 ha        1 RW4      0.154000
     55 HAR1       -1.3320    4.1070    0.8690 h1        1 RW4      0.096700
     56 HAR2        0.0290    2.9980    0.3430 h1        1 RW4      0.096700
     57 H2          2.3270    1.7870   -3.5440 h5        1 RW4      0.052100
     58 HAZ1       -0.2850    5.9740   -5.5030 hn        1 RW4      0.440300
     59 HAZ2        0.8880    5.1150   -6.3920 hn        1 RW4      0.440300
     60 HBC        -2.6540    5.2320   -5.2060 ha        1 RW4      0.152000
     61 HBE        -1.4790    7.9680   -2.0600 ha        1 RW4      0.151000
     62 HBJ1       -5.6720    9.2150   -8.3000 hn        1 RW4      0.412800
     63 HBJ2       -5.1210   10.6830   -7.7190 hn        1 RW4      0.412800
     64 HBH        -2.5350    9.8790   -3.2700 ha        1 RW4      0.156000
@<TRIPOS>BOND
     1    1    2 1   
     2    1    7 1   
     3    1   39 1   
     4    1   40 1   
     5    2    3 1   
     6    2   41 1   
     7    2   42 1   
     8    3    4 1   
     9    3    5 1   
    10    4   43 1   
    11    4   44 1   
    12    4   45 1   
    13    5    6 1   
    14    5   46 1   
    15    5   47 1   
    16    6    7 1   
    17    6   48 1   
    18    6   49 1   
    19    7    8 1   
    20    8    9 ar  
    21    8   17 ar  
    22    9   10 ar  
    23   10   11 ar  
    24   10   15 ar  
    25   11   12 ar  
    26   11   50 1   
    27   12   13 ar  
    28   12   51 1   
    29   13   14 ar  
    30   13   52 1   
    31   14   15 ar  
    32   14   53 1   
    33   15   16 ar  
    34   16   17 ar  
    35   16   54 1   
    36   17   18 1   
    37   18   19 1   
    38   18   55 1   
    39   18   56 1   
    40   19   20 1   
    41   19   21 1   
    42   20   28 2   
    43   21   22 ar  
    44   21   27 ar  
    45   22   23 ar  
    46   23   24 ar  
    47   23   57 1   
    48   24   25 ar  
    49   25   26 1   
    50   25   27 ar  
    51   26   58 1   
    52   26   59 1   
    53   27   28 1   
    54   28   29 1   
    55   29   30 ar  
    56   29   38 ar  
    57   30   31 ar  
    58   30   60 1   
    59   31   32 1   
    60   31   36 ar  
    61   32   33 1   
    62   33   34 1   
    63   33   35 2   
    64   34   62 1   
    65   34   63 1   
    66   35   36 1   
    67   36   37 ar  
    68   37   38 ar  
    69   37   64 1   
    70   38   61 1   
@<TRIPOS>SUBSTRUCTURE
     1 RW4         1 TEMP              0 ****  ****    0 ROOT
