@<TRIPOS>MOLECULE
RWF
   39    41     1     0     0
SMALL
bcc


@<TRIPOS>ATOM
      1 C1         -0.0740    0.0620   -0.1820 ca        1 RWF     -0.183800
      2 C2          3.5550   -0.0050    1.1830 c3        1 RWF      0.046800
      3 C3          4.2290    1.1640    0.4710 c3        1 RWF     -0.180400
      4 C4          4.1550    2.4520    1.2440 c         1 RWF      0.563100
      5 C5          4.0810    3.6870    0.4020 c3        1 RWF     -0.202100
      6 C6          4.1500   -1.3170    0.7580 ca        1 RWF     -0.081300
      7 C7          4.4120   -2.2920    1.7290 ca        1 RWF     -0.121000
      8 C8          4.9770   -3.5130    1.3630 ca        1 RWF     -0.133500
      9 C9          5.2860   -3.7700    0.0270 ca        1 RWF     -0.129000
     10 C10         5.0230   -2.8040   -0.9440 ca        1 RWF     -0.133500
     11 C11         1.3120   -0.2020    2.2560 c         1 RWF      0.733800
     12 C12         4.4560   -1.5830   -0.5810 ca        1 RWF     -0.121000
     13 C13         2.0650   -0.0210    1.0170 cc        1 RWF     -0.226400
     14 C14         1.3800    0.0790   -0.1620 cd        1 RWF      0.218900
     15 C15        -0.8500    0.2160   -1.3460 ca        1 RWF     -0.085000
     16 C16        -2.2330    0.1880   -1.2810 ca        1 RWF     -0.154000
     17 C17        -2.8850    0.0090   -0.0510 ca        1 RWF     -0.080000
     18 C18        -2.1530   -0.1340    1.1160 ca        1 RWF     -0.145000
     19 C19        -0.7450   -0.1020    1.0450 ca        1 RWF      0.169100
     20 O1         -0.0860   -0.2400    2.2410 os        1 RWF     -0.324200
     21 O2          1.7230   -0.3610    3.4040 o         1 RWF     -0.555500
     22 O3          4.1850    2.5020    2.4770 o         1 RWF     -0.524100
     23 O4          2.0840    0.2310   -1.3300 oh        1 RWF     -0.490100
     24 H2          3.7680    0.1270    2.2920 hc        1 RWF      0.107700
     25 H3C1        3.7970    1.3140   -0.5510 hc        1 RWF      0.076700
     26 H3C2        5.3210    0.9220    0.3410 hc        1 RWF      0.076700
     27 H5C1        3.0870    3.7290   -0.1070 hc        1 RWF      0.062700
     28 H5C2        4.2050    4.6030    1.0280 hc        1 RWF      0.062700
     29 H5C3        4.8810    3.6660   -0.3780 hc        1 RWF      0.062700
     30 H7          4.1670   -2.0920    2.7840 ha        1 RWF      0.141500
     31 H8          5.1810   -4.2730    2.1310 ha        1 RWF      0.130500
     32 H9          5.7340   -4.7320   -0.2600 ha        1 RWF      0.130000
     33 H10         5.2630   -3.0040   -1.9980 ha        1 RWF      0.130500
     34 H12         4.2370   -0.8250   -1.3490 ha        1 RWF      0.141500
     35 H15        -0.3650    0.3730   -2.3210 ha        1 RWF      0.130000
     36 H16        -2.8290    0.3090   -2.1980 ha        1 RWF      0.143000
     37 H17        -3.9850   -0.0130   -0.0150 ha        1 RWF      0.145000
     38 H18        -2.6380   -0.2690    2.0940 ha        1 RWF      0.165000
     39 H4          1.5140   -0.0200   -2.0720 ho        1 RWF      0.431000
@<TRIPOS>BOND
     1    1   14 1   
     2    1   15 ar  
     3    1   19 ar  
     4    2    3 1   
     5    2    6 1   
     6    2   13 1   
     7    2   24 1   
     8    3    4 1   
     9    3   25 1   
    10    3   26 1   
    11    4    5 1   
    12    4   22 2   
    13    5   27 1   
    14    5   28 1   
    15    5   29 1   
    16    6    7 ar  
    17    6   12 ar  
    18    7    8 ar  
    19    7   30 1   
    20    8    9 ar  
    21    8   31 1   
    22    9   10 ar  
    23    9   32 1   
    24   10   12 ar  
    25   10   33 1   
    26   11   13 1   
    27   11   20 1   
    28   11   21 2   
    29   12   34 1   
    30   13   14 2   
    31   14   23 1   
    32   15   16 ar  
    33   15   35 1   
    34   16   17 ar  
    35   16   36 1   
    36   17   18 ar  
    37   17   37 1   
    38   18   19 ar  
    39   18   38 1   
    40   19   20 1   
    41   23   39 1   
@<TRIPOS>SUBSTRUCTURE
     1 RWF         1 TEMP              0 ****  ****    0 ROOT
