@<TRIPOS>MOLECULE
RWF
   39    41     1     0     0
SMALL
bcc


@<TRIPOS>ATOM
      1 C1         -0.5960    0.7080    2.1310 ca        1 RWF     -0.183800
      2 C2          0.7100   -0.3230   -1.3720 c3        1 RWF      0.046800
      3 C3          1.7620    0.7330   -1.6890 c3        1 RWF     -0.180400
      4 C4          3.1480    0.3410   -1.2560 c         1 RWF      0.563100
      5 C5          4.0220    1.4800   -0.8360 c3        1 RWF     -0.202100
      6 C6         -0.4580   -0.2280   -2.3110 ca        1 RWF     -0.081300
      7 C7         -1.0070   -1.4040   -2.8370 ca        1 RWF     -0.121000
      8 C8         -2.0820   -1.3420   -3.7230 ca        1 RWF     -0.133500
      9 C9         -2.6170   -0.1080   -4.0900 ca        1 RWF     -0.129000
     10 C10        -2.0770    1.0660   -3.5660 ca        1 RWF     -0.133500
     11 C11         0.2310   -1.5880    0.7250 c         1 RWF      0.733800
     12 C12        -1.0030    1.0070   -2.6790 ca        1 RWF     -0.121000
     13 C13         0.2460   -0.2900    0.0540 cc        1 RWF     -0.226400
     14 C14        -0.1840    0.8110    0.7400 cd        1 RWF      0.218900
     15 C15        -0.9970    1.8030    2.9190 ca        1 RWF     -0.085000
     16 C16        -1.3770    1.6210    4.2390 ca        1 RWF     -0.154000
     17 C17        -1.3640    0.3400    4.8130 ca        1 RWF     -0.080000
     18 C18        -0.9650   -0.7580    4.0700 ca        1 RWF     -0.145000
     19 C19        -0.5770   -0.5670    2.7270 ca        1 RWF      0.169100
     20 O1         -0.1840   -1.6970    2.0560 os        1 RWF     -0.324200
     21 O2          0.5240   -2.6980    0.2850 o         1 RWF     -0.555500
     22 O3          3.5550   -0.8250   -1.2730 o         1 RWF     -0.524100
     23 O4         -0.1880    2.0300    0.1080 oh        1 RWF     -0.490100
     24 H2          1.2060   -1.3330   -1.5400 hc        1 RWF      0.107700
     25 H3C1        1.4920    1.7200   -1.2310 hc        1 RWF      0.076700
     26 H3C2        1.7970    0.8800   -2.8040 hc        1 RWF      0.076700
     27 H5C1        5.0770    1.1400   -0.6960 hc        1 RWF      0.062700
     28 H5C2        3.9960    2.2870   -1.6070 hc        1 RWF      0.062700
     29 H5C3        3.6470    1.8970    0.1310 hc        1 RWF      0.062700
     30 H7         -0.5880   -2.3810   -2.5470 ha        1 RWF      0.141500
     31 H8         -2.5070   -2.2710   -4.1320 ha        1 RWF      0.130500
     32 H9         -3.4630   -0.0610   -4.7910 ha        1 RWF      0.130000
     33 H10        -2.4970    2.0410   -3.8520 ha        1 RWF      0.130500
     34 H12        -0.5850    1.9330   -2.2550 ha        1 RWF      0.141500
     35 H15        -1.0010    2.8200    2.4990 ha        1 RWF      0.130000
     36 H16        -1.6880    2.4840    4.8460 ha        1 RWF      0.143000
     37 H17        -1.6710    0.2100    5.8630 ha        1 RWF      0.145000
     38 H18        -0.9390   -1.7710    4.4970 ha        1 RWF      0.165000
     39 H4         -0.7850    2.6260    0.5850 ho        1 RWF      0.431000
@<TRIPOS>BOND
     1    1   14 1   
     2    1   15 ar  
     3    1   19 ar  
     4    2    3 1   
     5    2    6 1   
     6    2   13 1   
     7    2   24 1   
     8    3    4 1   
     9    3   25 1   
    10    3   26 1   
    11    4    5 1   
    12    4   22 2   
    13    5   27 1   
    14    5   28 1   
    15    5   29 1   
    16    6    7 ar  
    17    6   12 ar  
    18    7    8 ar  
    19    7   30 1   
    20    8    9 ar  
    21    8   31 1   
    22    9   10 ar  
    23    9   32 1   
    24   10   12 ar  
    25   10   33 1   
    26   11   13 1   
    27   11   20 1   
    28   11   21 2   
    29   12   34 1   
    30   13   14 2   
    31   14   23 1   
    32   15   16 ar  
    33   15   35 1   
    34   16   17 ar  
    35   16   36 1   
    36   17   18 ar  
    37   17   37 1   
    38   18   19 ar  
    39   18   38 1   
    40   19   20 1   
    41   23   39 1   
@<TRIPOS>SUBSTRUCTURE
     1 RWF         1 TEMP              0 ****  ****    0 ROOT
