@<TRIPOS>MOLECULE
RWF
   39    41     1     0     0
SMALL
bcc


@<TRIPOS>ATOM
      1 C1         -0.0780    0.0530   -0.1600 ca        1 RWF     -0.183800
      2 C2          3.5630   -0.0030    1.1720 c3        1 RWF      0.046800
      3 C3          4.2270    1.1690    0.4570 c3        1 RWF     -0.180400
      4 C4          4.1550    2.4570    1.2310 c         1 RWF      0.563100
      5 C5          4.0670    3.6920    0.3910 c3        1 RWF     -0.202100
      6 C6          4.1590   -1.3120    0.7410 ca        1 RWF     -0.081300
      7 C7          4.4320   -2.2880    1.7080 ca        1 RWF     -0.121000
      8 C8          4.9990   -3.5060    1.3360 ca        1 RWF     -0.133500
      9 C9          5.2970   -3.7600   -0.0030 ca        1 RWF     -0.129000
     10 C10         5.0220   -2.7940   -0.9700 ca        1 RWF     -0.133500
     11 C11         1.3300   -0.2090    2.2650 c         1 RWF      0.733800
     12 C12         4.4540   -1.5760   -0.6010 ca        1 RWF     -0.121000
     13 C13         2.0720   -0.0240    1.0200 cc        1 RWF     -0.226400
     14 C14         1.3760    0.0750   -0.1530 cd        1 RWF      0.218900
     15 C15        -0.8640    0.2050   -1.3170 ca        1 RWF     -0.085000
     16 C16        -2.2480    0.1720   -1.2400 ca        1 RWF     -0.154000
     17 C17        -2.8870   -0.0090   -0.0050 ca        1 RWF     -0.080000
     18 C18        -2.1450   -0.1510    1.1550 ca        1 RWF     -0.145000
     19 C19        -0.7380   -0.1150    1.0720 ca        1 RWF      0.169100
     20 O1         -0.0680   -0.2510    2.2620 os        1 RWF     -0.324200
     21 O2          1.7520   -0.3680    3.4090 o         1 RWF     -0.555500
     22 O3          4.1970    2.5050    2.4640 o         1 RWF     -0.524100
     23 O4          2.0690    0.2310   -1.3270 oh        1 RWF     -0.490100
     24 H2          3.7860    0.1290    2.2800 hc        1 RWF      0.107700
     25 H3C1        3.7850    1.3190   -0.5620 hc        1 RWF      0.076700
     26 H3C2        5.3180    0.9310    0.3170 hc        1 RWF      0.076700
     27 H5C1        4.8590    3.6760   -0.3960 hc        1 RWF      0.062367
     28 H5C2        4.1910    4.6080    1.0180 hc        1 RWF      0.062367
     29 H5C3        3.0680    3.7300   -0.1090 hc        1 RWF      0.062367
     30 H7          4.1960   -2.0900    2.7660 ha        1 RWF      0.141500
     31 H8          5.2110   -4.2660    2.1020 ha        1 RWF      0.130500
     32 H9          5.7460   -4.7210   -0.2940 ha        1 RWF      0.130000
     33 H10         5.2540   -2.9920   -2.0260 ha        1 RWF      0.130500
     34 H12         4.2260   -0.8180   -1.3660 ha        1 RWF      0.141500
     35 H15        -0.3890    0.3650   -2.2970 ha        1 RWF      0.130000
     36 H16        -2.8520    0.2920   -2.1520 ha        1 RWF      0.143000
     37 H17        -3.9870   -0.0360    0.0410 ha        1 RWF      0.145000
     38 H18        -2.6210   -0.2890    2.1380 ha        1 RWF      0.165000
     39 H4          1.4940   -0.0210   -2.0640 ho        1 RWF      0.431000
@<TRIPOS>BOND
     1    1   14 1   
     2    1   15 ar  
     3    1   19 ar  
     4    2    3 1   
     5    2    6 1   
     6    2   13 1   
     7    2   24 1   
     8    3    4 1   
     9    3   25 1   
    10    3   26 1   
    11    4    5 1   
    12    4   22 2   
    13    5   27 1   
    14    5   28 1   
    15    5   29 1   
    16    6    7 ar  
    17    6   12 ar  
    18    7    8 ar  
    19    7   30 1   
    20    8    9 ar  
    21    8   31 1   
    22    9   10 ar  
    23    9   32 1   
    24   10   12 ar  
    25   10   33 1   
    26   11   13 1   
    27   11   20 1   
    28   11   21 2   
    29   12   34 1   
    30   13   14 2   
    31   14   23 1   
    32   15   16 ar  
    33   15   35 1   
    34   16   17 ar  
    35   16   36 1   
    36   17   18 ar  
    37   17   37 1   
    38   18   19 ar  
    39   18   38 1   
    40   19   20 1   
    41   23   39 1   
@<TRIPOS>SUBSTRUCTURE
     1 RWF         1 TEMP              0 ****  ****    0 ROOT
