@<TRIPOS>MOLECULE
RWF
   39    35     1     0     0
SMALL
bcc


@<TRIPOS>ATOM
      1 C1         -2.4670   -0.7480   -0.9000 c1        1 RWF     -0.149000
      2 C2          1.1320   -0.1980    0.1380 c3        1 RWF      0.012000
      3 C3          1.6040   -0.5680    1.5260 c3        1 RWF     -0.221000
      4 C4          1.9080   -2.0500    1.5770 c2        1 RWF      0.242000
      5 C5          2.9960   -2.5680    2.4930 c3        1 RWF     -0.272000
      6 C6          1.6870    1.1580   -0.2400 c2        1 RWF     -0.082000
      7 C7          2.4770    1.2930   -1.3700 c2        1 RWF     -0.121000
      8 C8          2.9710    2.5390   -1.7260 c1        1 RWF     -0.133000
      9 C9          2.6730    3.6490   -0.9520 c1        1 RWF     -0.121750
     10 C10         1.8830    3.5140    0.1790 c1        1 RWF     -0.121750
     11 C11        -1.0730    0.4550    1.1640 c1        1 RWF      0.367000
     12 C12         1.3900    2.2690    0.5350 c1        1 RWF     -0.111000
     13 C13        -0.3820   -0.1480    0.1160 c1        1 RWF     -0.295000
     14 C14        -1.0740   -0.7450   -0.9100 c1        1 RWF      0.210000
     15 C15        -3.1790   -1.3600   -1.9490 c2        1 RWF     -0.049000
     16 C16        -4.5680   -1.3630   -1.9370 c1        1 RWF     -0.168000
     17 C17        -5.2570   -0.7600   -0.8890 c1        1 RWF     -0.121750
     18 C18        -4.5560   -0.1560    0.1460 c1        1 RWF     -0.121750
     19 C19        -3.1480   -0.1520    0.1360 c1        1 RWF      0.117000
     20 O1         -2.4450    0.4530    1.1730 os        1 RWF     -0.190000
     21 O2         -0.4620    0.9680    2.0780 o         1 RWF     -0.315000
     22 O3          1.2560   -2.8270    0.9090 o         1 RWF     -0.332000
     23 O4         -0.3770   -1.2820   -2.0100 oh        1 RWF     -0.248000
     24 H2          1.4440   -0.8660   -0.5010 hc        1 RWF      0.100000
     25 H3C1        0.9060   -0.3560    2.1740 hc        1 RWF      0.129000
     26 H3C2        2.4130   -0.0610    1.7400 hc        1 RWF      0.129000
     27 H5C1        2.9230   -3.5420    2.5670 hc        1 RWF      0.108000
     28 H5C2        2.8950   -2.1640    3.3800 hc        1 RWF      0.108000
     29 H5C3        3.8730   -2.3320    2.1240 hc        1 RWF      0.108000
     30 H7          2.6870    0.5110   -1.9160 ha        1 RWF      0.130000
     31 H8          3.5270    2.6340   -2.5230 ha        1 RWF      0.131000
     32 H9          3.0210    4.5260   -1.2020 ha        1 RWF      0.141500
     33 H10         1.6740    4.2960    0.7250 ha        1 RWF      0.141500
     34 H12         0.8340    2.1740    1.3300 ha        1 RWF      0.153000
     35 H15        -2.6960   -1.7830   -2.6840 ha        1 RWF      0.157000
     36 H16        -5.0610   -1.7880   -2.6640 ha        1 RWF      0.142000
     37 H17        -6.2320   -0.7630   -0.8810 ha        1 RWF      0.141500
     38 H18        -5.0390    0.2670    0.8820 ha        1 RWF      0.141500
     39 H4         -0.1580   -2.1260   -1.8390 ho        1 RWF      0.264000
@<TRIPOS>BOND
     1    1   15 1   
     2    1   19 1   
     3    2    3 1   
     4    2    6 1   
     5    2   13 1   
     6    2   24 1   
     7    3    4 1   
     8    3   25 1   
     9    3   26 1   
    10    4    5 1   
    11    4   22 1   
    12    5   27 1   
    13    5   28 1   
    14    5   29 1   
    15    6    7 1   
    16    6   12 1   
    17    7    8 1   
    18    7   30 1   
    19    8   31 1   
    20    9   10 1   
    21    9   32 1   
    22   10   33 1   
    23   11   20 1   
    24   11   21 1   
    25   12   34 1   
    26   13   14 1   
    27   14   23 1   
    28   15   16 1   
    29   15   35 1   
    30   16   36 1   
    31   17   18 1   
    32   17   37 1   
    33   18   38 1   
    34   19   20 1   
    35   23   39 1   
@<TRIPOS>SUBSTRUCTURE
     1 RWF         1 TEMP              0 ****  ****    0 ROOT
