@<TRIPOS>MOLECULE
RWJ
   52    53     1     0     0
SMALL
bcc


@<TRIPOS>ATOM
      1 C51        -1.1410   -0.4470   -0.3630 c2        1 RWJ     -0.187700
      2 C52         0.2710   -0.4910    0.1400 c3        1 RWJ     -0.064200
      3 C53         0.1870   -0.0280    1.6010 c3        1 RWJ     -0.091400
      4 C54        -1.2980    0.2440    1.8850 c3        1 RWJ     -0.064200
      5 C55        -1.9980   -0.0430    0.5910 c2        1 RWJ     -0.187700
      6 CP          0.7700    3.5420   -0.1470 c         1 RWJ      0.667900
      7 OP          1.1410    4.6140   -0.6540 o         1 RWJ     -0.608100
      8 N          -0.5030    3.0180   -0.2670 n         1 RWJ     -0.570900
      9 CA         -1.5230    3.4950   -1.1640 c3        1 RWJ      0.027700
     10 CB         -1.7590    5.0140   -1.1310 c3        1 RWJ     -0.091400
     11 CG         -2.4420    5.4870    0.1330 c3        1 RWJ     -0.081400
     12 CD         -1.4870    5.6900    1.3110 c3        1 RWJ      0.166800
     13 NE         -1.5330    4.6250    2.3000 nh        1 RWJ     -0.792200
     14 CZ         -0.3570    4.5370    3.1400 c2        1 RWJ      0.755100
     15 NH1        -0.0430    5.7160    3.8800 nh        1 RWJ     -0.932800
     16 NH2         0.3390    3.4250    3.1590 n2        1 RWJ     -0.899100
     17 N5         -3.6630    2.7950   -3.2870 ne        1 RWJ     -0.490300
     18 C5         -2.4700    3.2990   -3.5240 cf        1 RWJ      0.360200
     19 S5         -2.2440    4.2550   -4.9790 ss        1 RWJ     -0.166300
     20 C61        -4.5170    3.0810   -4.3590 ce        1 RWJ      0.027300
     21 C62        -4.0130    4.2820   -5.2120 c3        1 RWJ     -0.007200
     22 C63        -4.7280    4.5230   -6.4710 c2        1 RWJ     -0.113200
     23 C64        -5.9090    3.9090   -6.7600 ce        1 RWJ     -0.128000
     24 C65        -6.1980    2.6620   -6.0800 ce        1 RWJ     -0.128100
     25 C66        -5.5760    2.4850   -4.9040 c1        1 RWJ      0.009200
     26 C          -1.3010    3.0670   -2.6220 c         1 RWJ      0.480800
     27 H511        1.4300    2.9260    0.5110 h5        1 RWJ      0.046200
     28 H521       -1.3760   -0.7280   -1.3910 ha        1 RWJ      0.141000
     29 H522        0.6830   -1.5280    0.0660 hc        1 RWJ      0.054700
     30 H531        0.9310    0.1810   -0.4640 hc        1 RWJ      0.054700
     31 H532        0.5820   -0.8140    2.2880 hc        1 RWJ      0.050200
     32 H541        0.7900    0.8990    1.7600 hc        1 RWJ      0.050200
     33 H542       -1.4590    1.3040    2.2050 hc        1 RWJ      0.054700
     34 H551       -1.6830   -0.4200    2.6980 hc        1 RWJ      0.054700
     35 H552       -3.0800    0.0700    0.5020 ha        1 RWJ      0.141000
     36 H1N        -1.7430    3.7350    1.8820 hn        1 RWJ      0.400800
     37 HA1        -0.6290    2.0730    0.0390 hn        1 RWJ      0.328500
     38 HB1        -2.4900    2.9880   -0.8440 h1        1 RWJ      0.090700
     39 HB2        -2.4250    5.2690   -2.0010 hc        1 RWJ      0.071200
     40 HG1        -0.7880    5.5590   -1.2800 hc        1 RWJ      0.071200
     41 HG2        -2.9100    6.4860   -0.0860 hc        1 RWJ      0.052200
     42 HD1        -3.2810    4.7910    0.4010 hc        1 RWJ      0.052200
     43 HD2        -0.4420    5.8430    0.9090 h1        1 RWJ      0.052200
     44 HE1        -1.7850    6.6380    1.8470 h1        1 RWJ      0.052200
     45 HN11       -0.7660    6.3990    3.9320 hn        1 RWJ      0.396800
     46 HN21        0.3890    5.5420    4.7600 hn        1 RWJ      0.396800
     47 HN22        1.0730    3.3840    3.8310 hn        1 RWJ      0.390400
     48 H631       -4.3670    5.1440   -4.5480 h1        1 RWJ      0.121700
     49 H641       -4.3020    5.2780   -7.1500 ha        1 RWJ      0.150000
     50 H651       -6.5280    4.2140   -7.6150 ha        1 RWJ      0.146000
     51 H661       -6.7330    1.8660   -6.6130 ha        1 RWJ      0.167000
     52 O          -0.2750    2.5410   -3.0460 o         1 RWJ     -0.475100
@<TRIPOS>BOND
     1    1    2 1   
     2    1    5 2   
     3    1   28 1   
     4    2    3 1   
     5    2   29 1   
     6    2   30 1   
     7    3    4 1   
     8    3   31 1   
     9    3   32 1   
    10    4    5 1   
    11    4   33 1   
    12    4   34 1   
    13    5   35 1   
    14    6    7 2   
    15    6    8 1   
    16    6   27 1   
    17    8    9 1   
    18    8   37 1   
    19    9   10 1   
    20    9   26 1   
    21    9   38 1   
    22   10   11 1   
    23   10   39 1   
    24   10   40 1   
    25   11   12 1   
    26   11   41 1   
    27   11   42 1   
    28   12   13 1   
    29   12   43 1   
    30   12   44 1   
    31   13   14 1   
    32   13   36 1   
    33   14   15 1   
    34   14   16 2   
    35   15   45 1   
    36   15   46 1   
    37   16   47 1   
    38   17   18 2   
    39   17   20 1   
    40   18   19 1   
    41   18   26 1   
    42   19   21 1   
    43   20   21 1   
    44   20   25 2   
    45   21   22 1   
    46   21   48 1   
    47   22   23 2   
    48   22   49 1   
    49   23   24 1   
    50   23   50 1   
    51   24   25 2   
    52   24   51 1   
    53   26   52 2   
@<TRIPOS>SUBSTRUCTURE
     1 RWJ         1 TEMP              0 ****  ****    0 ROOT
