@<TRIPOS>MOLECULE
RWJ
   52    54     1     0     0
SMALL
bcc


@<TRIPOS>ATOM
      1 C51         3.1730   -0.2930    3.0850 c3        1 RWJ     -0.140700
      2 C52         3.4470    0.7410    4.1770 c3        1 RWJ     -0.074400
      3 C53         3.8790   -0.0260    5.4200 c3        1 RWJ     -0.079400
      4 C54         3.6710   -1.5100    5.1450 c3        1 RWJ     -0.079400
      5 C55         2.9680   -1.6290    3.8000 c3        1 RWJ     -0.074400
      6 CP          1.9940    0.0970    2.2040 c         1 RWJ      0.664100
      7 OP          1.4510    1.2130    2.2870 o         1 RWJ     -0.594100
      8 N           1.5380   -0.8860    1.3260 n         1 RWJ     -0.548900
      9 CA          0.6670   -0.6490    0.2030 c3        1 RWJ      0.032700
     10 CB         -0.5450    0.2520    0.4870 c3        1 RWJ     -0.078400
     11 CG         -1.4090   -0.3100    1.5950 c3        1 RWJ     -0.079400
     12 CD         -2.7140    0.4830    1.6770 c3        1 RWJ      0.176800
     13 NE         -3.6020   -0.0030    2.7110 nh        1 RWJ     -0.840200
     14 CZ         -4.7190    0.8390    3.0500 c2        1 RWJ      0.743100
     15 NH1        -5.2940    1.7190    2.2690 n2        1 RWJ     -0.878100
     16 NH2        -5.2360    0.6400    4.3780 nh        1 RWJ     -0.881800
     17 N5         -0.0970   -1.1550   -2.7030 nc        1 RWJ     -0.504100
     18 C5          0.6080   -0.1080   -2.2910 cd        1 RWJ      0.261200
     19 S5          0.5860    1.2700   -3.3380 ss        1 RWJ      0.064900
     20 C61        -0.7050   -0.8540   -3.9270 ca        1 RWJ      0.073400
     21 C62        -0.4290    0.4690   -4.4150 ca        1 RWJ     -0.102100
     22 C63        -0.9850    0.8970   -5.6250 ca        1 RWJ     -0.092000
     23 C64        -1.7950    0.0320   -6.3410 ca        1 RWJ     -0.110000
     24 C65        -2.0650   -1.2670   -5.8680 ca        1 RWJ     -0.131000
     25 C66        -1.5320   -1.7200   -4.6760 ca        1 RWJ     -0.068000
     26 C           1.3960   -0.1000   -1.0310 c         1 RWJ      0.485800
     27 H511        4.0730   -0.3620    2.4120 hc        1 RWJ      0.073700
     28 H521        4.2410    1.4540    3.8440 hc        1 RWJ      0.054700
     29 H522        2.5250    1.3430    4.3830 hc        1 RWJ      0.054700
     30 H531        4.9520    0.1810    5.6560 hc        1 RWJ      0.043950
     31 H532        3.2760    0.2990    6.3040 hc        1 RWJ      0.043950
     32 H541        4.6560   -2.0410    5.1150 hc        1 RWJ      0.043950
     33 H542        3.0610   -1.9850    5.9520 hc        1 RWJ      0.043950
     34 H551        1.8770   -1.8290    3.9540 hc        1 RWJ      0.054700
     35 H552        3.3860   -2.4730    3.1980 hc        1 RWJ      0.054700
     36 H1N         2.1440   -1.6690    1.2060 hn        1 RWJ      0.304500
     37 HA1         0.2690   -1.6720   -0.0970 h1        1 RWJ      0.093700
     38 HB1        -1.1450    0.3210   -0.4590 hc        1 RWJ      0.070200
     39 HB2        -0.2030    1.2850    0.7610 hc        1 RWJ      0.070200
     40 HG1        -0.8560   -0.2400    2.5690 hc        1 RWJ      0.055700
     41 HG2        -1.6290   -1.3920    1.4010 hc        1 RWJ      0.055700
     42 HD1        -3.2560    0.3900    0.6920 h1        1 RWJ      0.041700
     43 HD2        -2.4570    1.5740    1.8220 h1        1 RWJ      0.041700
     44 HE1        -3.1070   -0.3570    3.5050 hn        1 RWJ      0.399800
     45 HN11       -4.8390    1.8990    1.4020 hn        1 RWJ      0.393400
     46 HN21       -6.0660    1.1730    4.5440 hn        1 RWJ      0.390300
     47 HN22       -5.3840   -0.3270    4.5840 hn        1 RWJ      0.390300
     48 H631       -0.7770    1.9100   -6.0000 ha        1 RWJ      0.143000
     49 H641       -2.2380    0.3580   -7.2940 ha        1 RWJ      0.140000
     50 H651       -2.7130   -1.9280   -6.4640 ha        1 RWJ      0.140000
     51 H661       -1.7410   -2.7340   -4.3050 ha        1 RWJ      0.153000
     52 O           2.5600    0.3040   -1.0160 o         1 RWJ     -0.497100
@<TRIPOS>BOND
     1    1    2 1   
     2    1    5 1   
     3    1    6 1   
     4    1   27 1   
     5    2    3 1   
     6    2   28 1   
     7    2   29 1   
     8    3    4 1   
     9    3   30 1   
    10    3   31 1   
    11    4    5 1   
    12    4   32 1   
    13    4   33 1   
    14    5   34 1   
    15    5   35 1   
    16    6    7 2   
    17    6    8 1   
    18    8    9 1   
    19    8   36 1   
    20    9   10 1   
    21    9   26 1   
    22    9   37 1   
    23   10   11 1   
    24   10   38 1   
    25   10   39 1   
    26   11   12 1   
    27   11   40 1   
    28   11   41 1   
    29   12   13 1   
    30   12   42 1   
    31   12   43 1   
    32   13   14 1   
    33   13   44 1   
    34   14   15 2   
    35   14   16 1   
    36   15   45 1   
    37   16   46 1   
    38   16   47 1   
    39   17   18 2   
    40   17   20 1   
    41   18   19 1   
    42   18   26 1   
    43   19   21 1   
    44   20   21 ar  
    45   20   25 ar  
    46   21   22 ar  
    47   22   23 ar  
    48   22   48 1   
    49   23   24 ar  
    50   23   49 1   
    51   24   25 ar  
    52   24   50 1   
    53   25   51 1   
    54   26   52 2   
@<TRIPOS>SUBSTRUCTURE
     1 RWJ         1 TEMP              0 ****  ****    0 ROOT
