@<TRIPOS>MOLECULE
RWX
   53    56     1     0     0
SMALL
bcc


@<TRIPOS>ATOM
      1 C28        -7.2430    1.8060   -2.1210 cc        1 RWX      0.474900
      2 C3          6.9490   -0.2140    0.9750 cc        1 RWX     -0.048600
      3 C4          5.7630    0.5940    1.0920 cc        1 RWX     -0.054900
      4 C20        -5.2760    0.1500    0.3970 cd        1 RWX      0.250300
      5 C5          4.7520   -0.0760    0.3750 cd        1 RWX     -0.130900
      6 C21        -5.6470   -0.7310    1.4150 cc        1 RWX     -0.158000
      7 C2          6.6290   -1.3440    0.1950 cd        1 RWX     -0.088600
      8 C26        -6.1820    0.9200   -0.4510 cd        1 RWX      0.422500
      9 C18        -3.2570   -0.5800    0.9990 cc        1 RWX      0.474300
     10 C7          3.3340    0.3280    0.1540 c         1 RWX      0.685700
     11 C23        -7.0480   -1.0510    1.9210 c         1 RWX      0.934200
     12 C11         0.3710    0.0800    1.7310 c3        1 RWX     -0.098400
     13 C12        -1.1220    0.3580    1.5780 c3        1 RWX      0.165800
     14 C14        -1.3030   -1.2760   -0.1970 c3        1 RWX      0.134800
     15 C10         0.9710   -0.3740    0.3920 c3        1 RWX      0.098700
     16 C15         0.1910   -1.6220   -0.1070 c3        1 RWX      0.137100
     17 C1          7.5000   -2.4590   -0.2160 c3        1 RWX     -0.035800
     18 C17        -0.2820   -3.8540    0.6090 c3        1 RWX      0.119700
     19 N27        -6.2600    0.8610   -1.8120 nc        1 RWX     -0.684000
     20 N29        -7.7550    2.4310   -1.0200 nd        1 RWX     -0.549800
     21 N19        -3.9080    0.2420    0.1580 nd        1 RWX     -0.624000
     22 N6          5.2830   -1.2510   -0.1510 na        1 RWX     -0.149100
     23 N30        -7.0950    1.8990    0.0180 na        1 RWX     -0.016400
     24 N13        -1.8520   -0.8070    1.0740 nh        1 RWX     -0.675300
     25 N9          2.3940   -0.6370    0.4550 n         1 RWX     -0.551900
     26 O8          3.0420    1.4320   -0.3370 o         1 RWX     -0.568100
     27 O24        -7.5710   -0.2180    2.7090 o         1 RWX     -0.797300
     28 O25        -7.5660   -2.1320    1.5460 o         1 RWX     -0.797300
     29 O16         0.5050   -2.6890    0.7860 os        1 RWX     -0.431600
     30 S22        -4.2970   -1.4580    2.0710 ss        1 RWX     -0.034300
     31 H28        -7.5650    2.0150   -3.1440 h5        1 RWX      0.048100
     32 H6          4.7950   -1.8860   -0.7280 hn        1 RWX      0.310700
     33 H11C        7.1180   -3.4320    0.1840 hc        1 RWX      0.055700
     34 H12C        7.5560   -2.5310   -1.3310 hc        1 RWX      0.055700
     35 H13C        8.5320   -2.2920    0.1820 hc        1 RWX      0.055700
     36 H9          2.6570   -1.4070    1.0270 hn        1 RWX      0.318500
     37 H111        0.8720    1.0200    2.0770 hc        1 RWX      0.058200
     38 H112        0.5350   -0.7160    2.5040 hc        1 RWX      0.058200
     39 H121       -1.5500    0.6110    2.5880 h1        1 RWX      0.050200
     40 H122       -1.2580    1.2590    0.9110 h1        1 RWX      0.050200
     41 H10         0.8060    0.4470   -0.3720 h1        1 RWX      0.090700
     42 H141       -1.4190   -0.5110   -1.0190 h1        1 RWX      0.059200
     43 H142       -1.8800   -2.1930   -0.5020 h1        1 RWX      0.059200
     44 H15         0.5390   -1.9170   -1.1380 h1        1 RWX      0.038700
     45 H171       -1.3120   -3.6950    1.0120 h1        1 RWX      0.036700
     46 H172       -0.3270   -4.1500   -0.4680 h1        1 RWX      0.036700
     47 H173        0.2510   -4.6370    1.2060 h1        1 RWX      0.036700
     48 C31        -7.3730    2.2170    1.3990 c3        1 RWX      0.031600
     49 CL3         8.4350    0.1330    1.6510 cl        1 RWX     -0.047400
     50 H311       -7.3660    3.3290    1.5410 h1        1 RWX      0.071700
     51 H312       -8.3710    1.7940    1.6980 h1        1 RWX      0.071700
     52 H313       -6.5890    1.7300    2.0410 h1        1 RWX      0.071700
     53 BR3         5.6230    2.1670    2.0180 br        1 RWX     -0.020100
@<TRIPOS>BOND
     1    1   19 1   
     2    1   20 2   
     3    1   31 1   
     4    2    3 1   
     5    2    7 2   
     6    2   49 1   
     7    3    5 2   
     8    3   53 1   
     9    4    6 2   
    10    4    8 1   
    11    4   21 1   
    12    5   10 1   
    13    5   22 1   
    14    6   11 1   
    15    6   30 1   
    16    7   17 1   
    17    7   22 1   
    18    8   19 2   
    19    8   23 1   
    20    9   21 2   
    21    9   24 1   
    22    9   30 1   
    23   10   25 1   
    24   10   26 2   
    25   11   27 1   
    26   11   28 1   
    27   12   13 1   
    28   12   15 1   
    29   12   37 1   
    30   12   38 1   
    31   13   24 1   
    32   13   39 1   
    33   13   40 1   
    34   14   16 1   
    35   14   24 1   
    36   14   42 1   
    37   14   43 1   
    38   15   16 1   
    39   15   25 1   
    40   15   41 1   
    41   16   29 1   
    42   16   44 1   
    43   17   33 1   
    44   17   34 1   
    45   17   35 1   
    46   18   29 1   
    47   18   45 1   
    48   18   46 1   
    49   18   47 1   
    50   20   23 1   
    51   22   32 1   
    52   23   48 1   
    53   25   36 1   
    54   48   50 1   
    55   48   51 1   
    56   48   52 1   
@<TRIPOS>SUBSTRUCTURE
     1 RWX         1 TEMP              0 ****  ****    0 ROOT
