@<TRIPOS>MOLECULE
RWY
   32    33     1     0     0
SMALL
bcc


@<TRIPOS>ATOM
      1 NAA        -4.4510   -2.9080   10.2390 n1        1 RWY     -0.319800
      2 CAB        -3.3970   -2.6290   10.6630 c1        1 RWY      0.176900
      3 CAC         0.0390   -0.7430    0.0380 ca        1 RWY     -0.153000
      4 CAD         1.4200   -0.5930    0.1760 ca        1 RWY     -0.105500
      5 CAE        -0.8070   -0.4330    1.1010 ca        1 RWY     -0.105500
      6 CAF         1.9660   -0.1380    1.3730 ca        1 RWY     -0.162500
      7 CAG        -0.2850    0.0300    2.3080 ca        1 RWY     -0.162500
      8 CAH         0.0020   -0.8650    6.4460 ca        1 RWY     -0.160000
      9 CAI         0.5390    1.4700    6.9300 ca        1 RWY     -0.160000
     10 CAJ         0.5380   -0.7180    5.1680 ca        1 RWY     -0.117000
     11 CAK         1.0640    1.6170    5.6540 ca        1 RWY     -0.117000
     12 CAL        -0.9970   -1.0620    9.0620 c3        1 RWY      0.131400
     13 CAM        -1.4470   -0.8310   10.4890 c3        1 RWY     -0.070300
     14 SAP        -1.9500   -2.3100   11.2990 ss        1 RWY      0.005800
     15 CAQ         0.0060    0.2260    7.3220 ca        1 RWY      0.109100
     16 CAR         1.1010    0.1750    2.4350 ca        1 RWY      0.107100
     17 CAS         1.0640    0.5170    4.7790 ca        1 RWY      0.069100
     18 HAC        -0.3810   -1.1060   -0.9110 ha        1 RWY      0.134000
     19 HAD         2.0860   -0.8380   -0.6650 ha        1 RWY      0.135000
     20 HAE        -1.8960   -0.5480    0.9910 ha        1 RWY      0.135000
     21 HAF         3.0500   -0.0110    1.4970 ha        1 RWY      0.148500
     22 HAG        -0.9460    0.2800    3.1500 ha        1 RWY      0.148500
     23 HAH        -0.4120   -1.8370    6.7460 ha        1 RWY      0.148000
     24 HAI         0.5290    2.3100    7.6380 ha        1 RWY      0.148000
     25 HAJ         0.5430   -1.5640    4.4650 ha        1 RWY      0.153000
     26 HAK         1.4890    2.5760    5.3240 ha        1 RWY      0.153000
     27 HAL        -1.8560   -1.3790    8.4130 h1        1 RWY      0.053200
     28 HALA       -0.1790   -1.8290    9.0130 h1        1 RWY      0.053200
     29 HAM        -2.2380   -0.0420   10.5100 h1        1 RWY      0.102700
     30 HAMA       -0.5850   -0.4600   11.1040 h1        1 RWY      0.102700
     31 OAO         1.7190    0.7050    3.5640 os        1 RWY     -0.248200
     32 OAN        -0.4980    0.2030    8.6100 os        1 RWY     -0.331900
@<TRIPOS>BOND
     1    1    2 3   
     2    2   14 1   
     3    3    4 ar  
     4    3    5 ar  
     5    3   18 1   
     6    4    6 ar  
     7    4   19 1   
     8    5    7 ar  
     9    5   20 1   
    10    6   16 ar  
    11    6   21 1   
    12    7   16 ar  
    13    7   22 1   
    14    8   10 ar  
    15    8   15 ar  
    16    8   23 1   
    17    9   11 ar  
    18    9   15 ar  
    19    9   24 1   
    20   10   17 ar  
    21   10   25 1   
    22   11   17 ar  
    23   11   26 1   
    24   12   13 1   
    25   12   27 1   
    26   12   28 1   
    27   12   32 1   
    28   13   14 1   
    29   13   29 1   
    30   13   30 1   
    31   15   32 1   
    32   16   31 1   
    33   17   31 1   
@<TRIPOS>SUBSTRUCTURE
     1 RWY         1 TEMP              0 ****  ****    0 ROOT
