@<TRIPOS>MOLECULE
RWY
   32    33     1     0     0
SMALL
bcc


@<TRIPOS>ATOM
      1 NAA        -5.5950   -2.7220   -0.1440 n1        1 RWY     -0.319800
      2 CAB        -5.5660   -1.6110    0.2210 c1        1 RWY      0.176900
      3 CAC         5.7430   -2.1760    0.0750 ca        1 RWY     -0.153000
      4 CAD         6.1260   -0.9950    0.7150 ca        1 RWY     -0.105500
      5 CAE         4.5260   -2.2410   -0.6030 ca        1 RWY     -0.105500
      6 CAF         5.2980    0.1240    0.6870 ca        1 RWY     -0.162500
      7 CAG         3.6840   -1.1310   -0.6490 ca        1 RWY     -0.162500
      8 CAH        -0.1830    0.2390    0.4350 ca        1 RWY     -0.160000
      9 CAI        -0.0150    2.0510   -1.1970 ca        1 RWY     -0.160000
     10 CAJ         1.2060    0.2230    0.5510 ca        1 RWY     -0.117000
     11 CAK         1.3680    2.0260   -1.0870 ca        1 RWY     -0.117000
     12 CAL        -2.9720    0.4010    0.1640 c3        1 RWY      0.131400
     13 CAM        -4.3990    0.7370   -0.2150 c3        1 RWY     -0.070300
     14 SAP        -5.5890   -0.0980    0.7770 ss        1 RWY      0.005800
     15 CAQ        -0.7890    1.1530   -0.4350 ca        1 RWY      0.109100
     16 CAR         4.0770    0.0460   -0.0030 ca        1 RWY      0.107100
     17 CAS         1.9720    1.1130   -0.2070 ca        1 RWY      0.069100
     18 HAC         6.4030   -3.0550    0.1060 ha        1 RWY      0.134000
     19 HAD         7.0870   -0.9460    1.2480 ha        1 RWY      0.135000
     20 HAE         4.2270   -3.1710   -1.1090 ha        1 RWY      0.135000
     21 HAF         5.5860    1.0620    1.1820 ha        1 RWY      0.148500
     22 HAG         2.7240   -1.1750   -1.1840 ha        1 RWY      0.148500
     23 HAH        -0.7800   -0.4640    1.0320 ha        1 RWY      0.148000
     24 HAI        -0.5170    2.7580   -1.8730 ha        1 RWY      0.148000
     25 HAJ         1.7000   -0.4890    1.2300 ha        1 RWY      0.153000
     26 HAK         1.9940    2.7190   -1.6680 ha        1 RWY      0.153000
     27 HAL        -2.7820    0.6040    1.2510 h1        1 RWY      0.053200
     28 HALA       -2.7330   -0.6700   -0.0720 h1        1 RWY      0.053200
     29 HAM        -4.5960    1.8250   -0.0240 h1        1 RWY      0.102700
     30 HAMA       -4.5510    0.5550   -1.3070 h1        1 RWY      0.102700
     31 OAO         3.3510    1.2320   -0.0560 os        1 RWY     -0.248200
     32 OAN        -2.1530    1.2620   -0.6370 os        1 RWY     -0.331900
@<TRIPOS>BOND
     1    1    2 3   
     2    2   14 1   
     3    3    4 ar  
     4    3    5 ar  
     5    3   18 1   
     6    4    6 ar  
     7    4   19 1   
     8    5    7 ar  
     9    5   20 1   
    10    6   16 ar  
    11    6   21 1   
    12    7   16 ar  
    13    7   22 1   
    14    8   10 ar  
    15    8   15 ar  
    16    8   23 1   
    17    9   11 ar  
    18    9   15 ar  
    19    9   24 1   
    20   10   17 ar  
    21   10   25 1   
    22   11   17 ar  
    23   11   26 1   
    24   12   13 1   
    25   12   27 1   
    26   12   28 1   
    27   12   32 1   
    28   13   14 1   
    29   13   29 1   
    30   13   30 1   
    31   15   32 1   
    32   16   31 1   
    33   17   31 1   
@<TRIPOS>SUBSTRUCTURE
     1 RWY         1 TEMP              0 ****  ****    0 ROOT
