@<TRIPOS>MOLECULE
RWY
   32    33     1     0     0
SMALL
bcc


@<TRIPOS>ATOM
      1 NAA        -4.4320   -2.8280   10.3050 n1        1 RWY     -0.319800
      2 CAB        -3.3600   -2.5890   10.7070 c1        1 RWY      0.176900
      3 CAC        -0.0860   -0.6750    0.0300 ca        1 RWY     -0.153000
      4 CAD         1.3020   -0.5770    0.1410 ca        1 RWY     -0.105500
      5 CAE        -0.8990   -0.3480    1.1150 ca        1 RWY     -0.105500
      6 CAF         1.8880   -0.1580    1.3320 ca        1 RWY     -0.162500
      7 CAG        -0.3350    0.0790    2.3160 ca        1 RWY     -0.162500
      8 CAH         0.0030   -0.8830    6.4360 ca        1 RWY     -0.160000
      9 CAI         0.6340    1.4240    6.9380 ca        1 RWY     -0.160000
     10 CAJ         0.5170   -0.7380    5.1480 ca        1 RWY     -0.117000
     11 CAK         1.1380    1.5690    5.6530 ca        1 RWY     -0.117000
     12 CAL        -0.9450   -1.0810    9.0700 c3        1 RWY      0.131400
     13 CAM        -1.3560   -0.8540   10.5100 c3        1 RWY     -0.070300
     14 SAP        -1.8890   -2.3260   11.3130 ss        1 RWY      0.005800
     15 CAQ         0.0650    0.1950    7.3250 ca        1 RWY      0.109100
     16 CAR         1.0580    0.1710    2.4160 ca        1 RWY      0.107100
     17 CAS         1.0810    0.4830    4.7640 ca        1 RWY      0.069100
     18 HAC        -0.5380   -1.0090   -0.9150 ha        1 RWY      0.134000
     19 HAD         1.9410   -0.8340   -0.7170 ha        1 RWY      0.135000
     20 HAE        -1.9930   -0.4220    1.0250 ha        1 RWY      0.135000
     21 HAF         2.9790   -0.0730    1.4350 ha        1 RWY      0.148500
     22 HAG        -0.9700    0.3410    3.1750 ha        1 RWY      0.148500
     23 HAH        -0.4410   -1.8440    6.7310 ha        1 RWY      0.148000
     24 HAI         0.6700    2.2550    7.6570 ha        1 RWY      0.148000
     25 HAJ         0.4780   -1.5740    4.4340 ha        1 RWY      0.153000
     26 HAK         1.5910    2.5170    5.3270 ha        1 RWY      0.153000
     27 HAL        -1.8290   -1.3600    8.4370 h1        1 RWY      0.053200
     28 HALA       -0.1550   -1.8740    8.9930 h1        1 RWY      0.053200
     29 HAM        -2.1190   -0.0400   10.5590 h1        1 RWY      0.102700
     30 HAMA       -0.4680   -0.5190   11.1090 h1        1 RWY      0.102700
     31 OAO         1.7170    0.6630    3.5380 os        1 RWY     -0.248200
     32 OAN        -0.4140    0.1730    8.6230 os        1 RWY     -0.331900
@<TRIPOS>BOND
     1    1    2 3   
     2    2   14 1   
     3    3    4 ar  
     4    3    5 ar  
     5    3   18 1   
     6    4    6 ar  
     7    4   19 1   
     8    5    7 ar  
     9    5   20 1   
    10    6   16 ar  
    11    6   21 1   
    12    7   16 ar  
    13    7   22 1   
    14    8   10 ar  
    15    8   15 ar  
    16    8   23 1   
    17    9   11 ar  
    18    9   15 ar  
    19    9   24 1   
    20   10   17 ar  
    21   10   25 1   
    22   11   17 ar  
    23   11   26 1   
    24   12   13 1   
    25   12   27 1   
    26   12   28 1   
    27   12   32 1   
    28   13   14 1   
    29   13   29 1   
    30   13   30 1   
    31   15   32 1   
    32   16   31 1   
    33   17   31 1   
@<TRIPOS>SUBSTRUCTURE
     1 RWY         1 TEMP              0 ****  ****    0 ROOT
