@<TRIPOS>MOLECULE
RWY
   32    33     1     0     0
SMALL
bcc


@<TRIPOS>ATOM
      1 NAA        -0.5070   -2.0540   12.9320 n1        1 RWY     -0.318800
      2 CAB        -1.4590   -1.8930   12.2710 c1        1 RWY      0.175900
      3 CAC         0.6850    0.5430   -0.1560 ca        1 RWY     -0.154000
      4 CAD         2.0240    0.4840    0.2340 ca        1 RWY     -0.104500
      5 CAE        -0.3230    0.2180    0.7510 ca        1 RWY     -0.104500
      6 CAF         2.3670    0.1060    1.5290 ca        1 RWY     -0.163500
      7 CAG        -0.0030   -0.1690    2.0520 ca        1 RWY     -0.163500
      8 CAH         0.0090   -1.4470    6.7800 ca        1 RWY     -0.160500
      9 CAI        -0.5460    0.8430    6.1310 ca        1 RWY     -0.160500
     10 CAJ         0.7790   -1.5840    5.6260 ca        1 RWY     -0.116000
     11 CAK         0.2280    0.7070    4.9860 ca        1 RWY     -0.116000
     12 CAL        -1.5330   -1.0470    9.0910 c3        1 RWY      0.131400
     13 CAM        -2.4030   -0.5090   10.2070 c3        1 RWY     -0.070300
     14 SAP        -2.8120   -1.7270   11.4090 ss        1 RWY      0.005800
     15 CAQ        -0.6520   -0.2380    7.0270 ca        1 RWY      0.110100
     16 CAR         1.3420   -0.2220    2.4320 ca        1 RWY      0.108100
     17 CAS         0.8880   -0.5060    4.7400 ca        1 RWY      0.067100
     18 HAC         0.4250    0.8460   -1.1800 ha        1 RWY      0.134000
     19 HAD         2.8170    0.7400   -0.4840 ha        1 RWY      0.134500
     20 HAE        -1.3770    0.2630    0.4420 ha        1 RWY      0.134500
     21 HAF         3.4160    0.0520    1.8510 ha        1 RWY      0.148500
     22 HAG        -0.7930   -0.4280    2.7720 ha        1 RWY      0.148500
     23 HAH        -0.0690   -2.2930    7.4760 ha        1 RWY      0.147500
     24 HAI        -1.0740    1.7820    6.3500 ha        1 RWY      0.147500
     25 HAJ         1.3110   -2.5230    5.4140 ha        1 RWY      0.153500
     26 HAK         0.3250    1.5380    4.2720 ha        1 RWY      0.153500
     27 HAL        -1.9960   -1.9520    8.6160 h1        1 RWY      0.053200
     28 HALA       -0.5040   -1.2960    9.4650 h1        1 RWY      0.053200
     29 HAM        -3.3960   -0.1880    9.7920 h1        1 RWY      0.102700
     30 HAMA       -1.9220    0.3930   10.6590 h1        1 RWY      0.102700
     31 OAO         1.7740   -0.6690    3.6780 os        1 RWY     -0.248200
     32 OAN        -1.4530    0.0100    8.1270 os        1 RWY     -0.331900
@<TRIPOS>BOND
     1    1    2 3   
     2    2   14 1   
     3    3    4 ar  
     4    3    5 ar  
     5    3   18 1   
     6    4    6 ar  
     7    4   19 1   
     8    5    7 ar  
     9    5   20 1   
    10    6   16 ar  
    11    6   21 1   
    12    7   16 ar  
    13    7   22 1   
    14    8   10 ar  
    15    8   15 ar  
    16    8   23 1   
    17    9   11 ar  
    18    9   15 ar  
    19    9   24 1   
    20   10   17 ar  
    21   10   25 1   
    22   11   17 ar  
    23   11   26 1   
    24   12   13 1   
    25   12   27 1   
    26   12   28 1   
    27   12   32 1   
    28   13   14 1   
    29   13   29 1   
    30   13   30 1   
    31   15   32 1   
    32   16   31 1   
    33   17   31 1   
@<TRIPOS>SUBSTRUCTURE
     1 RWY         1 TEMP              0 ****  ****    0 ROOT
