@<TRIPOS>MOLECULE
RWZ
   64    66     1     0     0
SMALL
bcc


@<TRIPOS>ATOM
      1 CAA        -0.9160   -1.4680   -2.3400 c3        1 RWZ     -0.082900
      2 CAB        -1.4880   -0.2090   -0.2470 c3        1 RWZ     -0.082900
      3 CAC         2.1180    1.0910   -5.5020 c3        1 RWZ     -0.103900
      4 CAD         0.6090    0.2890   -1.4450 c2        1 RWZ     -0.223200
      5 CAE         0.5940    2.6310   -4.3470 c2        1 RWZ     -0.337200
      6 CAF         1.6900    0.0420   -2.4260 c3        1 RWZ     -0.055200
      7 CAG         0.0500    3.4120   -3.2200 c3        1 RWZ      0.191000
      8 CAH        -1.8910    3.5880   -1.6850 c3        1 RWZ      0.074800
      9 CAI        -3.1810    2.9410   -1.1390 c3        1 RWZ      0.070800
     10 CAJ         2.2770    1.3190   -3.0080 c3        1 RWZ     -0.087200
     11 CAK        -8.3920    4.6680    0.8950 c3        1 RWZ     -0.078400
     12 CAL        -6.0470    5.3380    1.3950 c3        1 RWZ     -0.080900
     13 CAM        -6.8810    3.0930    2.0950 c3        1 RWZ     -0.080900
     14 CAN        -6.7380    4.8580   -0.9530 c3        1 RWZ     -0.080900
     15 CAO        -7.5620    2.6150   -0.2500 c3        1 RWZ     -0.080900
     16 NAP        -1.1650    2.7090   -2.6320 n4        1 RWZ     -0.785000
     17 NAQ        -3.9140    3.8360   -0.2100 n4        1 RWZ     -0.764000
     18 CAR        -0.5440   -0.4040   -1.3770 c2        1 RWZ     -0.123400
     19 CAS         1.5960    1.7310   -4.2690 c2        1 RWZ      0.055600
     20 CAT        -7.1820    5.4440    0.3830 c3        1 RWZ     -0.070700
     21 CAU        -8.0140    3.2020    1.0820 c3        1 RWZ     -0.070700
     22 CAV        -5.6650    3.8770    1.5990 c3        1 RWZ     -0.078700
     23 CAW        -6.3530    3.3940   -0.7770 c3        1 RWZ     -0.078700
     24 CAX        -5.2280    3.2310    0.2650 c3        1 RWZ      0.130500
     25 HAA        -1.9700   -1.8080   -2.1890 hc        1 RWZ      0.056700
     26 HAAA       -0.8040   -1.1200   -3.3970 hc        1 RWZ      0.056700
     27 HAAB       -0.2470   -2.3570   -2.1990 hc        1 RWZ      0.056700
     28 HAB        -1.4130   -1.0910    0.4440 hc        1 RWZ      0.056700
     29 HABA       -2.5440   -0.1560   -0.6110 hc        1 RWZ      0.056700
     30 HABB       -1.2520    0.7090    0.3450 hc        1 RWZ      0.056700
     31 HAC         1.4430    1.2480   -6.3790 hc        1 RWZ      0.082700
     32 HACA        3.1210    1.5300   -5.7490 hc        1 RWZ      0.082700
     33 HACB        2.2550   -0.0090   -5.3430 hc        1 RWZ      0.082700
     34 HAD         0.8610    1.0230   -0.6580 ha        1 RWZ      0.119000
     35 HAE         0.1660    2.8860   -5.3330 ha        1 RWZ      0.164000
     36 HAF         2.5120   -0.5090   -1.8830 hc        1 RWZ      0.085200
     37 HAFA        1.3480   -0.6340   -3.2560 hc        1 RWZ      0.085200
     38 HAG        -0.2890    4.4280   -3.5750 hx        1 RWZ      0.104200
     39 HAGA        0.7880    3.5430   -2.3780 hx        1 RWZ      0.104200
     40 HAH        -2.1400    4.5500   -2.2240 hx        1 RWZ      0.118700
     41 HAHA       -1.1870    3.8320   -0.8360 hx        1 RWZ      0.118700
     42 HAI        -2.9300    1.9860   -0.5840 hx        1 RWZ      0.126200
     43 HAIA       -3.8800    2.6810   -1.9900 hx        1 RWZ      0.126200
     44 HAJ         3.3650    1.1350   -3.2410 hc        1 RWZ      0.075200
     45 HAJA        2.2520    2.1390   -2.2430 hc        1 RWZ      0.075200
     46 HAL        -5.1650    5.9390    1.0570 hc        1 RWZ      0.065825
     47 HALA       -6.3820    5.7670    2.3780 hc        1 RWZ      0.065825
     48 HAM        -6.6090    2.0190    2.2610 hc        1 RWZ      0.065825
     49 HAMA       -7.2070    3.5190    3.0800 hc        1 RWZ      0.065825
     50 HAN        -5.8920    5.4550   -1.3790 hc        1 RWZ      0.065825
     51 HANA       -7.5850    4.9240   -1.6870 hc        1 RWZ      0.065825
     52 HAO        -7.3010    1.5330   -0.1290 hc        1 RWZ      0.065825
     53 HAOA       -8.3920    2.6870   -1.0010 hc        1 RWZ      0.065825
     54 HNAP       -1.7840    2.4370   -3.4060 hn        1 RWZ      0.464300
     55 HNAQ       -3.3340    4.0330    0.6160 hn        1 RWZ      0.458800
     56 HAT        -7.4600    6.5240    0.2440 hc        1 RWZ      0.096200
     57 HAU        -8.9060    2.6280    1.4570 hc        1 RWZ      0.096200
     58 HAV        -4.8420    3.7940    2.3600 hc        1 RWZ      0.058700
     59 HAW        -6.0360    2.9580   -1.7620 hc        1 RWZ      0.058700
     60 HAX        -5.0260    2.1310    0.4350 hx        1 RWZ      0.101700
     61 HAK        -8.7370    5.1000    1.8690 hc        1 RWZ      0.075200
     62 HAP2       -0.8480    1.8360   -2.1610 hn        1 RWZ      0.464300
     63 HAQ2       -4.1270    4.7310   -0.6720 hn        1 RWZ      0.458800
     64 HAKA       -9.2370    4.7550    0.1640 hc        1 RWZ      0.075200
@<TRIPOS>BOND
     1    1   18 1   
     2    1   25 1   
     3    1   26 1   
     4    1   27 1   
     5    2   18 1   
     6    2   28 1   
     7    2   29 1   
     8    2   30 1   
     9    3   19 1   
    10    3   31 1   
    11    3   32 1   
    12    3   33 1   
    13    4    6 1   
    14    4   18 2   
    15    4   34 1   
    16    5    7 1   
    17    5   19 2   
    18    5   35 1   
    19    6   10 1   
    20    6   36 1   
    21    6   37 1   
    22    7   16 1   
    23    7   38 1   
    24    7   39 1   
    25    8    9 1   
    26    8   16 1   
    27    8   40 1   
    28    8   41 1   
    29    9   17 1   
    30    9   42 1   
    31    9   43 1   
    32   10   19 1   
    33   10   44 1   
    34   10   45 1   
    35   11   20 1   
    36   11   21 1   
    37   11   61 1   
    38   11   64 1   
    39   12   20 1   
    40   12   22 1   
    41   12   46 1   
    42   12   47 1   
    43   13   21 1   
    44   13   22 1   
    45   13   48 1   
    46   13   49 1   
    47   14   20 1   
    48   14   23 1   
    49   14   50 1   
    50   14   51 1   
    51   15   21 1   
    52   15   23 1   
    53   15   52 1   
    54   15   53 1   
    55   16   54 1   
    56   16   62 1   
    57   17   24 1   
    58   17   55 1   
    59   17   63 1   
    60   20   56 1   
    61   21   57 1   
    62   22   24 1   
    63   22   58 1   
    64   23   24 1   
    65   23   59 1   
    66   24   60 1   
@<TRIPOS>SUBSTRUCTURE
     1 RWZ         1 TEMP              0 ****  ****    0 ROOT
