@<TRIPOS>MOLECULE
RWZ
   64    66     1     0     0
SMALL
bcc


@<TRIPOS>ATOM
      1 CAA        -0.8690   -1.4750   -2.2360 c3        1 RWZ     -0.082900
      2 CAB        -1.4230   -0.1500   -0.1800 c3        1 RWZ     -0.082900
      3 CAC         2.0580    1.0200   -5.5480 c3        1 RWZ     -0.103900
      4 CAD         0.6410    0.3400   -1.4360 c2        1 RWZ     -0.223200
      5 CAE         0.5290    2.5750   -4.4200 c2        1 RWZ     -0.337200
      6 CAF         1.7060    0.0760   -2.4290 c3        1 RWZ     -0.055200
      7 CAG        -0.0060    3.3860   -3.3110 c3        1 RWZ      0.191000
      8 CAH        -1.9200    3.5840   -1.7440 c3        1 RWZ      0.074800
      9 CAI        -3.1890    2.9370   -1.1530 c3        1 RWZ      0.070800
     10 CAJ         2.2610    1.3410   -3.0680 c3        1 RWZ     -0.087200
     11 CAK        -8.3840    4.6590    0.9260 c3        1 RWZ     -0.078400
     12 CAL        -6.0400    5.3710    1.3630 c3        1 RWZ     -0.080900
     13 CAM        -6.8330    3.1370    2.1420 c3        1 RWZ     -0.080900
     14 CAN        -6.7680    4.8170   -0.9570 c3        1 RWZ     -0.080900
     15 CAO        -7.5500    2.5850   -0.1760 c3        1 RWZ     -0.080900
     16 NAP        -1.1980    2.6850   -2.6760 ny        1 RWZ     -0.785000
     17 NAQ        -3.9180    3.8500   -0.2390 ny        1 RWZ     -0.764000
     18 CAR        -0.4980   -0.3700   -1.3200 c2        1 RWZ     -0.123400
     19 CAS         1.5490    1.6950   -4.3290 c2        1 RWZ      0.055600
     20 CAT        -7.1940    5.4350    0.3700 c3        1 RWZ     -0.070700
     21 CAU        -7.9850    3.2040    1.1470 c3        1 RWZ     -0.070700
     22 CAV        -5.6360    3.9210    1.6010 c3        1 RWZ     -0.078700
     23 CAW        -6.3610    3.3630   -0.7470 c3        1 RWZ     -0.078700
     24 CAX        -5.2150    3.2430    0.2780 c3        1 RWZ      0.130500
     25 HAA        -1.9140   -1.8270   -2.0520 hc        1 RWZ      0.056700
     26 HAAA       -0.1810   -2.3460   -2.0760 hc        1 RWZ      0.056700
     27 HAAB       -0.7840   -1.1640   -3.3070 hc        1 RWZ      0.056700
     28 HAB        -1.3190   -1.0030    0.5420 hc        1 RWZ      0.056700
     29 HABA       -2.4870   -0.1300   -0.5240 hc        1 RWZ      0.056700
     30 HABB       -1.1940    0.7950    0.3720 hc        1 RWZ      0.056700
     31 HAC         1.3650    1.1330   -6.4170 hc        1 RWZ      0.082700
     32 HACA        2.2170   -0.0720   -5.3530 hc        1 RWZ      0.082700
     33 HACB        3.0490    1.4660   -5.8310 hc        1 RWZ      0.082700
     34 HAD         0.8950    1.1070   -0.6820 ha        1 RWZ      0.119000
     35 HAE         0.0790    2.7860   -5.4070 ha        1 RWZ      0.164000
     36 HAF         2.5480   -0.4410   -1.8830 hc        1 RWZ      0.085200
     37 HAFA        1.3610   -0.6350   -3.2280 hc        1 RWZ      0.085200
     38 HAG         0.7450    3.5610   -2.4890 hx        1 RWZ      0.104200
     39 HAGA       -0.3700    4.3830   -3.6960 hx        1 RWZ      0.104200
     40 HAH        -2.1940    4.5240   -2.3110 hx        1 RWZ      0.118700
     41 HAHA       -1.2040    3.8680   -0.9170 hx        1 RWZ      0.118700
     42 HAI        -2.9130    2.0030   -0.5730 hx        1 RWZ      0.126200
     43 HAIA       -3.9000    2.6390   -1.9810 hx        1 RWZ      0.126200
     44 HAJ         2.2360    2.1870   -2.3330 hc        1 RWZ      0.075200
     45 HAJA        3.3470    1.1660   -3.3160 hc        1 RWZ      0.075200
     46 HAL        -6.3620    5.8240    2.3400 hc        1 RWZ      0.065825
     47 HALA       -5.1710    5.9730    0.9920 hc        1 RWZ      0.065825
     48 HAM        -6.5440    2.0710    2.3320 hc        1 RWZ      0.065825
     49 HAMA       -7.1460    3.5870    3.1200 hc        1 RWZ      0.065825
     50 HAN        -7.6290    4.8520   -1.6770 hc        1 RWZ      0.065825
     51 HANA       -5.9370    5.4120   -1.4160 hc        1 RWZ      0.065825
     52 HAO        -8.3950    2.6260   -0.9130 hc        1 RWZ      0.065825
     53 HAOA       -7.2740    1.5100   -0.0300 hc        1 RWZ      0.065825
     54 HNAP       -0.8570    1.8340   -2.1800 hn        1 RWZ      0.464300
     55 HNAQ       -4.1510    4.7280   -0.7240 hn        1 RWZ      0.458800
     56 HAT        -7.4880    6.5080    0.2070 hc        1 RWZ      0.096200
     57 HAU        -8.8620    2.6300    1.5540 hc        1 RWZ      0.096200
     58 HAV        -4.7980    3.8690    2.3480 hc        1 RWZ      0.058700
     59 HAW        -6.0560    2.9040   -1.7250 hc        1 RWZ      0.058700
     60 HAX        -4.9960    2.1510    0.4750 hx        1 RWZ      0.101700
     61 HAK        -8.7170    5.1150    1.8940 hc        1 RWZ      0.075200
     62 HAP2       -1.8270    2.3760   -3.4270 hn        1 RWZ      0.464300
     63 HAQ2       -3.3270    4.0800    0.5700 hn        1 RWZ      0.458800
     64 HAKA       -9.2440    4.7150    0.2090 hc        1 RWZ      0.075200
@<TRIPOS>BOND
     1    1   18 1   
     2    1   25 1   
     3    1   26 1   
     4    1   27 1   
     5    2   18 1   
     6    2   28 1   
     7    2   29 1   
     8    2   30 1   
     9    3   19 1   
    10    3   31 1   
    11    3   32 1   
    12    3   33 1   
    13    4    6 1   
    14    4   18 2   
    15    4   34 1   
    16    5    7 1   
    17    5   19 2   
    18    5   35 1   
    19    6   10 1   
    20    6   36 1   
    21    6   37 1   
    22    7   16 1   
    23    7   38 1   
    24    7   39 1   
    25    8    9 1   
    26    8   16 1   
    27    8   40 1   
    28    8   41 1   
    29    9   17 1   
    30    9   42 1   
    31    9   43 1   
    32   10   19 1   
    33   10   44 1   
    34   10   45 1   
    35   11   20 1   
    36   11   21 1   
    37   11   61 1   
    38   11   64 1   
    39   12   20 1   
    40   12   22 1   
    41   12   46 1   
    42   12   47 1   
    43   13   21 1   
    44   13   22 1   
    45   13   48 1   
    46   13   49 1   
    47   14   20 1   
    48   14   23 1   
    49   14   50 1   
    50   14   51 1   
    51   15   21 1   
    52   15   23 1   
    53   15   52 1   
    54   15   53 1   
    55   16   54 1   
    56   16   62 1   
    57   17   24 1   
    58   17   55 1   
    59   17   63 1   
    60   20   56 1   
    61   21   57 1   
    62   22   24 1   
    63   22   58 1   
    64   23   24 1   
    65   23   59 1   
    66   24   60 1   
@<TRIPOS>SUBSTRUCTURE
     1 RWZ         1 TEMP              0 ****  ****    0 ROOT
