@<TRIPOS>MOLECULE
RWZ
   62    64     1     0     0
SMALL
bcc


@<TRIPOS>ATOM
      1 CAA         7.2650    3.0580    1.5380 c3        1 RWZ     -0.058400
      2 CAB         8.3100    3.6100   -0.6810 c3        1 RWZ     -0.058400
      3 CAC         4.8400   -2.3090    0.5880 c3        1 RWZ     -0.059900
      4 CAD         6.7400    1.7140   -0.4730 c2        1 RWZ     -0.179200
      5 CAE         2.9060   -0.7980    0.3540 c2        1 RWZ     -0.214200
      6 CAF         5.8290    0.8160    0.2720 c3        1 RWZ     -0.040200
      7 CAG         2.2080    0.4420   -0.1090 c3        1 RWZ      0.192000
      8 CAH        -0.1250   -0.2350   -0.1730 c3        1 RWZ      0.150800
      9 CAI        -1.4940   -0.0900    0.5260 c3        1 RWZ      0.159800
     10 CAJ         5.0910   -0.1390   -0.6510 c3        1 RWZ     -0.044200
     11 CAK        -7.0820   -0.6850   -0.8880 c3        1 RWZ     -0.068400
     12 CAL        -4.9030    0.3990   -1.4150 c3        1 RWZ     -0.068900
     13 CAM        -5.8520    0.5660    0.8780 c3        1 RWZ     -0.068900
     14 CAN        -5.0630   -2.0820   -1.3020 c3        1 RWZ     -0.068900
     15 CAO        -6.0070   -1.9140    0.9930 c3        1 RWZ     -0.068900
     16 NAP         0.8650    0.6720    0.3770 n3        1 RWZ     -0.815200
     17 NAQ        -2.4740   -1.0060   -0.0200 n3        1 RWZ     -0.822200
     18 CAR         7.4020    2.7350    0.0970 c2        1 RWZ     -0.121400
     19 CAS         4.1990   -1.0580    0.1120 c2        1 RWZ     -0.112400
     20 CAT        -5.7950   -0.8040   -1.6990 c3        1 RWZ     -0.063700
     21 CAU        -6.7440   -0.6390    0.5990 c3        1 RWZ     -0.063700
     22 CAV        -4.5640    0.4530    0.0690 c3        1 RWZ     -0.075200
     23 CAW        -4.7210   -2.0430    0.1820 c3        1 RWZ     -0.075200
     24 CAX        -3.8150   -0.8300    0.5130 c3        1 RWZ      0.186500
     25 HAA         7.4290    2.1440    2.1620 hc        1 RWZ      0.040700
     26 HAAA        8.0010    3.8380    1.8510 hc        1 RWZ      0.040700
     27 HAAB        6.2340    3.4390    1.7510 hc        1 RWZ      0.040700
     28 HAB         7.9770    4.6750   -0.6010 hc        1 RWZ      0.040700
     29 HABA        9.3510    3.5390   -0.2760 hc        1 RWZ      0.040700
     30 HABB        8.3330    3.3270   -1.7620 hc        1 RWZ      0.040700
     31 HAC         5.1280   -2.9460   -0.2860 hc        1 RWZ      0.041700
     32 HACA        5.7680   -2.0700    1.1650 hc        1 RWZ      0.041700
     33 HACB        4.1560   -2.9010    1.2440 hc        1 RWZ      0.041700
     34 HAD         6.8600    1.5020   -1.5480 ha        1 RWZ      0.122000
     35 HAE         2.2960   -1.5230    0.9180 ha        1 RWZ      0.124000
     36 HAF         6.4190    0.2260    1.0260 hc        1 RWZ      0.049700
     37 HAFA        5.0830    1.4270    0.8510 hc        1 RWZ      0.049700
     38 HAG         2.8180    1.3410    0.2040 h1        1 RWZ      0.060700
     39 HAGA        2.1740    0.4350   -1.2380 h1        1 RWZ      0.060700
     40 HAH         0.2040   -1.3140   -0.1120 h1        1 RWZ      0.037700
     41 HAHA       -0.2350    0.0190   -1.2660 h1        1 RWZ      0.037700
     42 HAI        -1.3800   -0.3350    1.6210 h1        1 RWZ      0.034200
     43 HAIA       -1.8200    0.9890    0.4560 h1        1 RWZ      0.034200
     44 HAJ         4.4940    0.4520   -1.3950 hc        1 RWZ      0.047700
     45 HAJA        5.8390   -0.7440   -1.2320 hc        1 RWZ      0.047700
     46 HAKA       -7.7460   -1.5610   -1.1000 hc        1 RWZ      0.040200
     47 HAL        -3.9690    0.3350   -2.0280 hc        1 RWZ      0.040700
     48 HALA       -5.4360    1.3400   -1.7100 hc        1 RWZ      0.040700
     49 HAM        -6.3890    1.5080    0.5990 hc        1 RWZ      0.040700
     50 HAMA       -5.6130    0.6170    1.9710 hc        1 RWZ      0.040700
     51 HAN        -5.7160   -2.9690   -1.5100 hc        1 RWZ      0.040700
     52 HANA       -4.1340   -2.1970   -1.9160 hc        1 RWZ      0.040700
     53 HAO        -5.7690   -1.8930    2.0870 hc        1 RWZ      0.040700
     54 HAOA       -6.6600   -2.8040    0.8000 hc        1 RWZ      0.040700
     55 HNAP        0.8470    0.6380    1.3810 hn        1 RWZ      0.356800
     56 HNAQ       -2.4830   -0.9610   -1.0220 hn        1 RWZ      0.358800
     57 HAT        -6.0430   -0.8380   -2.7930 hc        1 RWZ      0.047700
     58 HAU        -7.6900   -0.5520    1.1960 hc        1 RWZ      0.047700
     59 HAV        -3.9240    1.3530    0.2720 hc        1 RWZ      0.056200
     60 HAW        -4.1940   -2.9920    0.4690 hc        1 RWZ      0.056200
     61 HAX        -3.7110   -0.7850    1.6390 h1        1 RWZ      0.054700
     62 HAK        -7.6310    0.2450   -1.1820 hc        1 RWZ      0.040200
@<TRIPOS>BOND
     1    1   18 1   
     2    1   25 1   
     3    1   26 1   
     4    1   27 1   
     5    2   18 1   
     6    2   28 1   
     7    2   29 1   
     8    2   30 1   
     9    3   19 1   
    10    3   31 1   
    11    3   32 1   
    12    3   33 1   
    13    4    6 1   
    14    4   18 2   
    15    4   34 1   
    16    5    7 1   
    17    5   19 2   
    18    5   35 1   
    19    6   10 1   
    20    6   36 1   
    21    6   37 1   
    22    7   16 1   
    23    7   38 1   
    24    7   39 1   
    25    8    9 1   
    26    8   16 1   
    27    8   40 1   
    28    8   41 1   
    29    9   17 1   
    30    9   42 1   
    31    9   43 1   
    32   10   19 1   
    33   10   44 1   
    34   10   45 1   
    35   11   20 1   
    36   11   21 1   
    37   11   46 1   
    38   11   62 1   
    39   12   20 1   
    40   12   22 1   
    41   12   47 1   
    42   12   48 1   
    43   13   21 1   
    44   13   22 1   
    45   13   49 1   
    46   13   50 1   
    47   14   20 1   
    48   14   23 1   
    49   14   51 1   
    50   14   52 1   
    51   15   21 1   
    52   15   23 1   
    53   15   53 1   
    54   15   54 1   
    55   16   55 1   
    56   17   24 1   
    57   17   56 1   
    58   20   57 1   
    59   21   58 1   
    60   22   24 1   
    61   22   59 1   
    62   23   24 1   
    63   23   60 1   
    64   24   61 1   
@<TRIPOS>SUBSTRUCTURE
     1 RWZ         1 TEMP              0 ****  ****    0 ROOT
