@<TRIPOS>MOLECULE
RWZ
   62    62     1     0     0
SMALL
bcc


@<TRIPOS>ATOM
      1 CAA         6.6110   -3.2280    1.1330 c3        1 RWZ     -0.180500
      2 CAB         6.7690   -4.5070    3.5000 c3        1 RWZ     -0.180500
      3 CAC         4.3350    2.2560    1.9300 c3        1 RWZ     -0.184000
      4 CAD         5.6530   -2.2310    3.2460 c1        1 RWZ     -0.174000
      5 CAE         2.3690    0.7090    2.2580 c1        1 RWZ     -0.174000
      6 CAF         5.2060   -1.0150    2.4080 c2        1 RWZ     -0.125000
      7 CAG         1.5150    1.6780    1.4170 c2        1 RWZ     -0.044000
      8 CAH        -0.5370    1.6820    0.2040 c3        1 RWZ     -0.078000
      9 CAI        -1.9920    1.1300    0.1470 c3        1 RWZ     -0.076000
     10 CAJ         4.5550    0.0320    3.3310 c3        1 RWZ     -0.122000
     11 CAK        -5.6800    0.4890   -3.8000 c3        1 RWZ     -0.147000
     12 CAL        -6.0360    0.6360   -1.7460 c3        1 RWZ     -0.147750
     13 CAM        -4.7870    2.0340   -2.6890 c3        1 RWZ     -0.147750
     14 CAN        -4.5060   -1.1090   -2.4010 c3        1 RWZ     -0.147750
     15 CAO        -3.3410    0.2700   -3.3870 c3        1 RWZ     -0.147750
     16 NAP         0.1130    1.2160    1.4050 n3        1 RWZ     -0.301000
     17 NAQ        -2.4650    1.1680   -1.2250 n3        1 RWZ     -0.301000
     18 CAR         6.3140   -3.2720    2.6460 c2        1 RWZ     -0.114000
     19 CAS         3.7110    0.9920    2.4970 c2        1 RWZ     -0.112000
     20 CAT        -5.9710   -0.0840   -2.7350 c3        1 RWZ     -0.103000
     21 CAU        -4.7460    1.3030   -3.6930 c3        1 RWZ     -0.103000
     22 CAV        -5.0950    1.4370   -1.6480 c3        1 RWZ     -0.115000
     23 CAW        -3.5540   -0.3850   -2.2960 c3        1 RWZ     -0.115000
     24 CAX        -3.6660    0.3610   -1.3520 c3        1 RWZ     -0.011000
     25 HAA         7.2880   -2.5350    0.9510 hc        1 RWZ      0.080000
     26 HAAA        5.7840   -3.0160    0.6420 hc        1 RWZ      0.080000
     27 HAAB        6.9490   -4.1010    0.8410 hc        1 RWZ      0.080000
     28 HAB         7.6360   -4.8440    3.1580 hc        1 RWZ      0.080000
     29 HABA        6.0920   -5.2180    3.4340 hc        1 RWZ      0.080000
     30 HABB        6.8700   -4.2370    4.4390 hc        1 RWZ      0.080000
     31 HAC         3.8630    3.0380    2.2790 hc        1 RWZ      0.081667
     32 HACA        5.2800    2.3000    2.1920 hc        1 RWZ      0.081667
     33 HACB        4.2690    2.2430    0.9560 hc        1 RWZ      0.081667
     34 HAD         5.4650   -2.2590    4.2040 ha        1 RWZ      0.122000
     35 HAE         1.9700   -0.1010    2.6230 ha        1 RWZ      0.134000
     36 HAF         5.9830   -0.6210    1.9640 ha        1 RWZ      0.090000
     37 HAFA        4.5530   -1.3060    1.7300 ha        1 RWZ      0.090000
     38 HAG         1.8610    1.7030    0.4910 h4        1 RWZ      0.076500
     39 HAGA        1.5590    2.5690    1.8040 h4        1 RWZ      0.076500
     40 HAH        -0.0340    1.3630   -0.5860 h1        1 RWZ      0.074500
     41 HAHA       -0.5590    2.6530    0.2040 h1        1 RWZ      0.074500
     42 HAI        -2.5680    1.6760    0.7030 h1        1 RWZ      0.074500
     43 HAIA       -2.0050    0.2110    0.4690 h1        1 RWZ      0.074500
     44 HAJ         3.9860   -0.4190    3.9850 hc        1 RWZ      0.086500
     45 HAJA        5.2570    0.5370    3.8000 hc        1 RWZ      0.086500
     46 HAK        -6.4670    0.9600   -4.1250 hc        1 RWZ      0.079500
     47 HAKA       -5.4230   -0.2010   -4.4710 hc        1 RWZ      0.079500
     48 HAL        -6.8820    1.1460   -1.7840 hc        1 RWZ      0.079875
     49 HALA       -6.0480    0.0670   -0.9460 hc        1 RWZ      0.079875
     50 HAM        -3.9010    2.4440   -2.5640 hc        1 RWZ      0.079875
     51 HAMA       -5.4420    2.7470   -2.8470 hc        1 RWZ      0.079875
     52 HAN        -4.3650   -1.7330   -3.1400 hc        1 RWZ      0.079875
     53 HANA       -4.6350   -1.6110   -1.5640 hc        1 RWZ      0.079875
     54 HAO        -3.2220   -0.3610   -4.1380 hc        1 RWZ      0.079875
     55 HAOA       -2.5460    0.8190   -3.2910 hc        1 RWZ      0.079875
     56 HNAP       -0.3200    1.5470    2.1300 hn        1 RWZ      0.153000
     57 HNAQ       -1.8120    0.8370   -1.7860 hn        1 RWZ      0.154000
     58 HAT        -6.7770   -0.6370   -2.8320 hc        1 RWZ      0.087500
     59 HAU        -4.6290    1.8270   -4.5150 hc        1 RWZ      0.087500
     60 HAV        -5.2300    2.0630   -0.9000 hc        1 RWZ      0.095500
     61 HAW        -2.7690   -0.9500   -2.1340 hc        1 RWZ      0.095500
     62 HAX        -3.8060   -0.1640   -0.5250 h1        1 RWZ      0.095000
@<TRIPOS>BOND
     1    1   18 1   
     2    1   25 1   
     3    1   26 1   
     4    1   27 1   
     5    2   18 1   
     6    2   28 1   
     7    2   29 1   
     8    2   30 1   
     9    3   19 1   
    10    3   31 1   
    11    3   32 1   
    12    3   33 1   
    13    4   18 1   
    14    4   34 1   
    15    5   19 1   
    16    5   35 1   
    17    6   10 1   
    18    6   36 1   
    19    6   37 1   
    20    7   16 1   
    21    7   38 1   
    22    7   39 1   
    23    8    9 1   
    24    8   16 1   
    25    8   40 1   
    26    8   41 1   
    27    9   17 1   
    28    9   42 1   
    29    9   43 1   
    30   10   19 1   
    31   10   44 1   
    32   10   45 1   
    33   11   20 1   
    34   11   21 1   
    35   11   46 1   
    36   11   47 1   
    37   12   20 1   
    38   12   22 1   
    39   12   48 1   
    40   12   49 1   
    41   13   21 1   
    42   13   22 1   
    43   13   50 1   
    44   13   51 1   
    45   14   20 1   
    46   14   23 1   
    47   14   52 1   
    48   14   53 1   
    49   15   21 1   
    50   15   23 1   
    51   15   54 1   
    52   15   55 1   
    53   16   56 1   
    54   17   24 1   
    55   17   57 1   
    56   20   58 1   
    57   21   59 1   
    58   22   24 1   
    59   22   60 1   
    60   23   24 1   
    61   23   61 1   
    62   24   62 1   
@<TRIPOS>SUBSTRUCTURE
     1 RWZ         1 TEMP              0 ****  ****    0 ROOT
