@<TRIPOS>MOLECULE
RWZ
   64    66     1     0     0
SMALL
bcc


@<TRIPOS>ATOM
      1 CAA        -0.8280   -1.4700   -2.1820 c3        1 RWZ     -0.082900
      2 CAB        -1.3890   -0.1160   -0.1460 c3        1 RWZ     -0.082900
      3 CAC         2.0540    1.0050   -5.5490 c3        1 RWZ     -0.103900
      4 CAD         0.6640    0.3760   -1.4200 c2        1 RWZ     -0.223200
      5 CAE         0.5130    2.5610   -4.4370 c2        1 RWZ     -0.337200
      6 CAF         1.7280    0.1070   -2.4130 c3        1 RWZ     -0.055200
      7 CAG        -0.0260    3.3840   -3.3390 c3        1 RWZ      0.191000
      8 CAH        -1.9350    3.5850   -1.7660 c3        1 RWZ      0.074800
      9 CAI        -3.1950    2.9340   -1.1600 c3        1 RWZ      0.070800
     10 CAJ         2.2650    1.3680   -3.0750 c3        1 RWZ     -0.087200
     11 CAK        -8.3980    4.6360    0.9170 c3        1 RWZ     -0.078400
     12 CAL        -6.0580    5.3760    1.3340 c3        1 RWZ     -0.080900
     13 CAM        -6.8270    3.1460    2.1470 c3        1 RWZ     -0.080900
     14 CAN        -6.7900    4.7830   -0.9750 c3        1 RWZ     -0.080900
     15 CAO        -7.5480    2.5550   -0.1600 c3        1 RWZ     -0.080900
     16 NAP        -1.2080    2.6800   -2.6870 n4        1 RWZ     -0.785000
     17 NAQ        -3.9290    3.8530   -0.2560 n4        1 RWZ     -0.764000
     18 CAR        -0.4660   -0.3450   -1.2860 c2        1 RWZ     -0.123400
     19 CAS         1.5430    1.6940   -4.3380 c2        1 RWZ      0.055600
     20 CAT        -7.2170    5.4160    0.3450 c3        1 RWZ     -0.070700
     21 CAU        -7.9840    3.1880    1.1560 c3        1 RWZ     -0.070700
     22 CAV        -5.6400    3.9340    1.5910 c3        1 RWZ     -0.078700
     23 CAW        -6.3690    3.3360   -0.7470 c3        1 RWZ     -0.078700
     24 CAX        -5.2180    3.2410    0.2750 c3        1 RWZ      0.130500
     25 HAA        -0.1290   -2.3300   -2.0110 hc        1 RWZ      0.056700
     26 HAAA       -1.8680   -1.8310   -1.9860 hc        1 RWZ      0.056700
     27 HAAB       -0.7520   -1.1760   -3.2580 hc        1 RWZ      0.056700
     28 HAB        -2.4540   -0.1150   -0.4850 hc        1 RWZ      0.056700
     29 HABA       -1.1680    0.8400    0.3890 hc        1 RWZ      0.056700
     30 HABB       -1.2710   -0.9560    0.5910 hc        1 RWZ      0.056700
     31 HAC         2.2260   -0.0810   -5.3370 hc        1 RWZ      0.082700
     32 HACA        1.3540    1.0970   -6.4160 hc        1 RWZ      0.082700
     33 HACB        3.0380    1.4580   -5.8440 hc        1 RWZ      0.082700
     34 HAD         0.9120    1.1580   -0.6800 ha        1 RWZ      0.119000
     35 HAE         0.0560    2.7520   -5.4250 ha        1 RWZ      0.164000
     36 HAF         2.5780   -0.3910   -1.8620 hc        1 RWZ      0.085200
     37 HAFA        1.3870   -0.6200   -3.1980 hc        1 RWZ      0.085200
     38 HAG         0.7270    3.5790   -2.5230 hx        1 RWZ      0.104200
     39 HAGA       -0.4020    4.3700   -3.7370 hx        1 RWZ      0.104200
     40 HAH        -1.2190    3.8890   -0.9460 hx        1 RWZ      0.118700
     41 HAHA       -2.2210    4.5140   -2.3450 hx        1 RWZ      0.118700
     42 HAI        -2.9070    2.0120   -0.5670 hx        1 RWZ      0.126200
     43 HAIA       -3.9060    2.6170   -1.9800 hx        1 RWZ      0.126200
     44 HAJ         2.2350    2.2260   -2.3540 hc        1 RWZ      0.075200
     45 HAJA        3.3520    1.2010   -3.3250 hc        1 RWZ      0.075200
     46 HAL        -5.1970    5.9810    0.9510 hc        1 RWZ      0.065825
     47 HALA       -6.3810    5.8400    2.3050 hc        1 RWZ      0.065825
     48 HAM        -7.1400    3.6070    3.1210 hc        1 RWZ      0.065825
     49 HAMA       -6.5270    2.0860    2.3510 hc        1 RWZ      0.065825
     50 HAN        -5.9680    5.3800   -1.4460 hc        1 RWZ      0.065825
     51 HANA       -7.6550    4.8000   -1.6920 hc        1 RWZ      0.065825
     52 HAO        -8.3960    2.5770   -0.8940 hc        1 RWZ      0.065825
     53 HAOA       -7.2610    1.4840    0.0000 hc        1 RWZ      0.065825
     54 HNAP       -0.8550    1.8410   -2.1800 hn        1 RWZ      0.464300
     55 HNAQ       -3.3370    4.1010    0.5470 hn        1 RWZ      0.458800
     56 HAT        -7.5220    6.4830    0.1680 hc        1 RWZ      0.096200
     57 HAU        -8.8540    2.6120    1.5750 hc        1 RWZ      0.096200
     58 HAV        -4.7980    3.9010    2.3350 hc        1 RWZ      0.058700
     59 HAW        -6.0640    2.8660   -1.7200 hc        1 RWZ      0.058700
     60 HAX        -4.9880    2.1550    0.4860 hx        1 RWZ      0.101700
     61 HAK        -8.7310    5.1020    1.8800 hc        1 RWZ      0.075200
     62 HAP2       -1.8360    2.3520   -3.4300 hn        1 RWZ      0.464300
     63 HAQ2       -4.1720    4.7220   -0.7520 hn        1 RWZ      0.458800
     64 HAKA       -9.2610    4.6740    0.2030 hc        1 RWZ      0.075200
@<TRIPOS>BOND
     1    1   18 1   
     2    1   25 1   
     3    1   26 1   
     4    1   27 1   
     5    2   18 1   
     6    2   28 1   
     7    2   29 1   
     8    2   30 1   
     9    3   19 1   
    10    3   31 1   
    11    3   32 1   
    12    3   33 1   
    13    4    6 1   
    14    4   18 2   
    15    4   34 1   
    16    5    7 1   
    17    5   19 2   
    18    5   35 1   
    19    6   10 1   
    20    6   36 1   
    21    6   37 1   
    22    7   16 1   
    23    7   38 1   
    24    7   39 1   
    25    8    9 1   
    26    8   16 1   
    27    8   40 1   
    28    8   41 1   
    29    9   17 1   
    30    9   42 1   
    31    9   43 1   
    32   10   19 1   
    33   10   44 1   
    34   10   45 1   
    35   11   20 1   
    36   11   21 1   
    37   11   61 1   
    38   11   64 1   
    39   12   20 1   
    40   12   22 1   
    41   12   46 1   
    42   12   47 1   
    43   13   21 1   
    44   13   22 1   
    45   13   48 1   
    46   13   49 1   
    47   14   20 1   
    48   14   23 1   
    49   14   50 1   
    50   14   51 1   
    51   15   21 1   
    52   15   23 1   
    53   15   52 1   
    54   15   53 1   
    55   16   54 1   
    56   16   62 1   
    57   17   24 1   
    58   17   55 1   
    59   17   63 1   
    60   20   56 1   
    61   21   57 1   
    62   22   24 1   
    63   22   58 1   
    64   23   24 1   
    65   23   59 1   
    66   24   60 1   
@<TRIPOS>SUBSTRUCTURE
     1 RWZ         1 TEMP              0 ****  ****    0 ROOT
