@<TRIPOS>MOLECULE
RX0
   75    71     1     0     0
SMALL
bcc


@<TRIPOS>ATOM
      1 C1          2.1290    3.5830    1.3210 c1        1 RX0     -0.011000
      2 C2          3.4730    3.2240    1.3280 c1        1 RX0     -0.126667
      3 C3          1.4410    3.7300    2.5310 c1        1 RX0     -0.116000
      4 C4          4.1330    3.0110    2.5390 c1        1 RX0     -0.126667
      5 C5          2.1010    3.5180    3.7370 c1        1 RX0     -0.126667
      6 C6          3.4490    3.1580    3.7400 c1        1 RX0     -0.126667
      7 C7         -2.4630   -2.0670   -0.2190 c1        1 RX0      0.301000
      8 O8         -1.9000   -2.6130   -1.1550 o         1 RX0     -0.365000
      9 N9         -1.8220   -0.9250    0.4610 n3        1 RX0     -0.309000
     10 C10        -2.4860    1.2970    1.3720 c3        1 RX0     -0.184000
     11 C11        -1.1540    1.8570    0.9880 c3        1 RX0     -0.159000
     12 C12        -0.5490    1.1250   -0.1620 c3        1 RX0     -0.155000
     13 C13        -0.5160   -0.3950    0.0690 c3        1 RX0     -0.043000
     14 C14        -2.4370   -0.2200    1.5910 c3        1 RX0     -0.035000
     15 C15         0.8820    1.6280   -0.3750 c3        1 RX0      0.134000
     16 O16         1.6370    1.4200    0.8070 oh        1 RX0     -0.307000
     17 C17         0.8530    3.1060   -0.7010 c2        1 RX0     -0.051000
     18 C18         0.2250    3.5460   -1.8560 c2        1 RX0     -0.137000
     19 C19         1.5290    4.0200    0.1190 c1        1 RX0     -0.013000
     20 C20         0.2670    4.8950   -2.2020 c1        1 RX0     -0.129000
     21 C21         1.5700    5.3690   -0.2280 c1        1 RX0     -0.126667
     22 C22         0.9410    5.8060   -1.3840 c1        1 RX0     -0.126667
     23 C23         1.5270    0.8630   -1.5330 c3        1 RX0     -0.187000
     24 C24         2.7650    0.0660   -1.0110 c3        1 RX0     -0.162000
     25 C25         3.2600   -0.9350   -2.1330 c3        1 RX0     -0.162000
     26 C26         4.3340   -1.8820   -1.5460 c3        1 RX0     -0.022000
     27 O27         4.8730   -2.6990   -2.5890 os        1 RX0     -0.278000
     28 C28         5.7850   -3.7010   -2.1280 c3        1 RX0     -0.073000
     29 C29        -3.7470   -3.8780    1.0440 c3        1 RX0     -0.156000
     30 C30        -4.9270   -4.5310    0.8590 c3        1 RX0      0.038000
     31 C31        -5.4250   -4.1020   -0.5110 c3        1 RX0     -0.065000
     32 C32        -4.5100   -2.8670   -0.9590 c3        1 RX0     -0.192000
     33 C33        -3.8200   -2.4790    0.1610 c2        1 RX0     -0.114000
     34 O34        -4.7120   -5.9860    0.8870 oh        1 RX0     -0.323000
     35 N35        -5.2960   -5.1160   -1.3880 n3        1 RX0     -0.337000
     36 H2          3.9490    3.1220    0.4950 ha        1 RX0      0.131500
     37 H3          0.5050    3.9810    2.5290 ha        1 RX0      0.130000
     38 H4          5.0700    2.7610    2.5430 ha        1 RX0      0.131500
     39 H5          1.6220    3.6200    4.5800 ha        1 RX0      0.131500
     40 H6          3.9120    3.0080    4.5870 ha        1 RX0      0.131500
     41 H10        -3.1310    1.4950    0.6600 hc        1 RX0      0.088000
     42 H10A       -2.7850    1.7280    2.1990 hc        1 RX0      0.088000
     43 H11        -0.5500    1.7970    1.7570 hc        1 RX0      0.096500
     44 H11A       -1.2630    2.7920    0.7450 hc        1 RX0      0.096500
     45 H12        -1.0690    1.3100   -0.9620 hc        1 RX0      0.107000
     46 H13        -0.2330   -0.8310   -0.7490 h1        1 RX0      0.105500
     47 H13A        0.1280   -0.5930    0.7710 h1        1 RX0      0.105500
     48 H14        -1.9200   -0.4070    2.4000 h1        1 RX0      0.092000
     49 H14A       -3.3460   -0.5510    1.7130 h1        1 RX0      0.092000
     50 HO16        1.5450    0.5850    1.0710 ho        1 RX0      0.201000
     51 H18        -0.2470    2.9100   -2.4270 ha        1 RX0      0.135000
     52 H20        -0.1760    5.2040   -3.0160 ha        1 RX0      0.133000
     53 H21         2.0430    6.0080    0.3440 ha        1 RX0      0.131500
     54 H22         0.9710    6.7590   -1.6290 ha        1 RX0      0.131500
     55 H23         1.8120    1.4920   -2.2190 hc        1 RX0      0.097000
     56 H23A        0.8750    0.2380   -1.9150 hc        1 RX0      0.097000
     57 H24         3.4850    0.6900   -0.7910 hc        1 RX0      0.084000
     58 H24A        2.5180   -0.4330   -0.2190 hc        1 RX0      0.084000
     59 H25         3.6460   -0.4280   -2.8770 hc        1 RX0      0.097500
     60 H25A        2.5000   -1.4650   -2.4580 hc        1 RX0      0.097500
     61 H26         5.0490   -1.3530   -1.1450 h1        1 RX0      0.064500
     62 H26A        3.9260   -2.4530   -0.8610 h1        1 RX0      0.064500
     63 H28         5.9600   -4.3420   -2.8510 h1        1 RX0      0.071000
     64 H28A        6.6310   -3.2740   -1.8550 h1        1 RX0      0.071000
     65 H28B        5.3940   -4.1710   -1.3620 h1        1 RX0      0.071000
     66 H29        -3.0010   -4.4380    0.7250 hc        1 RX0      0.106500
     67 H29A       -3.6250   -3.6680    1.9960 hc        1 RX0      0.106500
     68 H30        -5.5660   -4.2710    1.5450 h1        1 RX0      0.077000
     69 H31        -6.3650   -3.8230   -0.4550 h1        1 RX0      0.096000
     70 H32        -5.0700   -2.1330   -1.2810 hc        1 RX0      0.105000
     71 H32A       -3.8850   -3.1460   -1.6600 hc        1 RX0      0.105000
     72 H33        -4.1340   -1.6790    0.6210 ha        1 RX0      0.102000
     73 HO34       -5.2700   -6.3570    1.4740 ho        1 RX0      0.211000
     74 HN35       -5.9700   -5.7240   -1.2540 hn        1 RX0      0.151000
     75 HN3A       -5.3450   -4.7880   -2.2430 hn        1 RX0      0.151000
@<TRIPOS>BOND
     1    1    3 1   
     2    2    4 1   
     3    2   36 1   
     4    3   37 1   
     5    4   38 1   
     6    5    6 1   
     7    5   39 1   
     8    6   40 1   
     9    7    8 1   
    10    7    9 1   
    11    9   13 1   
    12    9   14 1   
    13   10   11 1   
    14   10   14 1   
    15   10   41 1   
    16   10   42 1   
    17   11   12 1   
    18   11   43 1   
    19   11   44 1   
    20   12   13 1   
    21   12   15 1   
    22   12   45 1   
    23   13   46 1   
    24   13   47 1   
    25   14   48 1   
    26   14   49 1   
    27   15   16 1   
    28   15   17 1   
    29   15   23 1   
    30   16   50 1   
    31   17   18 1   
    32   17   19 1   
    33   18   20 1   
    34   18   51 1   
    35   20   52 1   
    36   21   22 1   
    37   21   53 1   
    38   22   54 1   
    39   23   24 1   
    40   23   55 1   
    41   23   56 1   
    42   24   25 1   
    43   24   57 1   
    44   24   58 1   
    45   25   26 1   
    46   25   59 1   
    47   25   60 1   
    48   26   27 1   
    49   26   61 1   
    50   26   62 1   
    51   27   28 1   
    52   28   63 1   
    53   28   64 1   
    54   28   65 1   
    55   29   30 1   
    56   29   33 1   
    57   29   66 1   
    58   29   67 1   
    59   30   31 1   
    60   30   34 1   
    61   30   68 1   
    62   31   32 1   
    63   31   35 1   
    64   31   69 1   
    65   32   33 1   
    66   32   70 1   
    67   32   71 1   
    68   33   72 1   
    69   34   73 1   
    70   35   74 1   
    71   35   75 1   
@<TRIPOS>SUBSTRUCTURE
     1 RX0         1 TEMP              0 ****  ****    0 ROOT
