@<TRIPOS>MOLECULE
RX0
   75    78     1     0     0
SMALL
bcc


@<TRIPOS>ATOM
      1 C1         -1.4280   -2.2580   -1.4340 cp        1 RX0     -0.033000
      2 C2         -2.1690   -2.9430   -0.4630 ca        1 RX0     -0.103500
      3 C3         -0.2240   -2.8110   -1.8950 ca        1 RX0     -0.103500
      4 C4         -1.7100   -4.1600    0.0400 ca        1 RX0     -0.135500
      5 C5          0.2330   -4.0240   -1.3850 ca        1 RX0     -0.135500
      6 C6         -0.5100   -4.7020   -0.4190 ca        1 RX0     -0.126000
      7 O8          2.6950   -0.5100    1.7090 o         1 RX0     -0.604100
      8 N9          2.2760    0.5450   -0.2790 n         1 RX0     -0.444800
      9 C10         1.4730    2.8340   -0.8360 c3        1 RX0     -0.105400
     10 C11         0.0470    2.3230   -0.8810 c3        1 RX0     -0.077400
     11 C12        -0.1370    1.1270    0.0380 c3        1 RX0     -0.113700
     12 C13         0.9120    0.0470   -0.2850 c3        1 RX0      0.071000
     13 C14         2.4620    1.7020   -1.1270 c3        1 RX0      0.078000
     14 C15        -1.5650    0.5240   -0.0060 c3        1 RX0      0.212100
     15 O16        -1.5690   -0.7070    0.7200 oh        1 RX0     -0.588800
     16 C17        -2.0240    0.2310   -1.4200 ca        1 RX0     -0.052300
     17 C18        -2.5540    1.3080   -2.1570 ca        1 RX0     -0.135000
     18 C19        -1.9390   -1.0240   -2.0470 cp        1 RX0     -0.008000
     19 C20        -2.9840    1.1580   -3.4700 ca        1 RX0     -0.135000
     20 C21        -2.3710   -1.1610   -3.3810 ca        1 RX0     -0.128000
     21 C22        -2.8920   -0.0870   -4.0900 ca        1 RX0     -0.128000
     22 C23        -2.5180    1.4870    0.7360 c3        1 RX0     -0.101400
     23 C24        -3.9420    0.9780    0.7590 c3        1 RX0     -0.082400
     24 C25        -4.8170    1.8520    1.6300 c3        1 RX0     -0.083400
     25 C26        -6.2450    1.3360    1.6310 c3        1 RX0      0.129400
     26 O27        -6.9990    2.2220    2.4580 os        1 RX0     -0.424600
     27 C28        -8.3600    1.8430    2.5570 c3        1 RX0      0.116700
     28 C29         5.4030    0.4460   -0.1100 c3        1 RX0     -0.108400
     29 C30         6.6760   -0.0120    0.6070 c3        1 RX0      0.098100
     30 C31         6.5930    0.5760    2.0480 c3        1 RX0      0.130500
     31 C32         5.0840    0.7270    2.3150 c3        1 RX0     -0.079400
     32 C33         4.4380    0.9760    0.9520 c3        1 RX0     -0.135700
     33 O34         6.8060   -1.4210    0.6100 oh        1 RX0     -0.597800
     34 N35         7.3010   -0.1430    3.0800 n3        1 RX0     -0.883800
     35 H2         -3.1000   -2.5000   -0.0800 ha        1 RX0      0.135000
     36 H3          0.3590   -2.2820   -2.6640 ha        1 RX0      0.135000
     37 H4         -2.2960   -4.6910    0.8040 ha        1 RX0      0.129500
     38 H5          1.1830   -4.4450   -1.7450 ha        1 RX0      0.129500
     39 H6         -0.1480   -5.6600   -0.0190 ha        1 RX0      0.129000
     40 H10         1.6130    3.6370   -1.6050 hc        1 RX0      0.048700
     41 H10A        1.6890    3.2830    0.1680 hc        1 RX0      0.048700
     42 H11        -0.6520    3.1470   -0.5830 hc        1 RX0      0.050700
     43 H11A       -0.2020    2.0290   -1.9350 hc        1 RX0      0.050700
     44 H12         0.0330    1.4700    1.0990 hc        1 RX0      0.053700
     45 H13         0.7010   -0.3660   -1.3130 h1        1 RX0      0.082200
     46 H13A        0.8170   -0.7990    0.4550 h1        1 RX0      0.082200
     47 H14         3.5140    2.0880   -1.0530 h1        1 RX0      0.054200
     48 H14A        2.3040    1.3560   -2.1910 h1        1 RX0      0.054200
     49 HO16       -1.2050   -0.5180    1.5950 ho        1 RX0      0.406000
     50 H18        -2.6300    2.3040   -1.6940 ha        1 RX0      0.133000
     51 H20        -3.3950    2.0200   -4.0150 ha        1 RX0      0.133000
     52 H21        -2.2930   -2.1490   -3.8630 ha        1 RX0      0.139000
     53 H22        -3.2280   -0.2180   -5.1290 ha        1 RX0      0.134000
     54 H23        -2.1490    1.5890    1.7920 hc        1 RX0      0.045200
     55 H23A       -2.4780    2.5070    0.2780 hc        1 RX0      0.045200
     56 H24        -4.3480    0.9550   -0.2870 hc        1 RX0      0.054200
     57 H24A       -3.9490   -0.0780    1.1420 hc        1 RX0      0.054200
     58 H25        -4.4290    1.8680    2.6820 hc        1 RX0      0.052200
     59 H25A       -4.8060    2.9090    1.2560 hc        1 RX0      0.052200
     60 H26        -6.6740    1.3330    0.5940 h1        1 RX0      0.027200
     61 H26A       -6.2960    0.2950    2.0500 h1        1 RX0      0.027200
     62 H28        -8.8180    2.6160    3.2230 h1        1 RX0      0.032033
     63 H28A       -8.8480    1.8540    1.5510 h1        1 RX0      0.032033
     64 H28B       -8.4560    0.8260    3.0130 h1        1 RX0      0.032033
     65 H29A        4.9590   -0.4080   -0.6820 hc        1 RX0      0.063200
     66 H30         7.6020    0.3420    0.0780 h1        1 RX0      0.078700
     67 H31         7.0510    1.6090    2.0050 h1        1 RX0      0.063700
     68 H32         4.6620   -0.1970    2.7890 hc        1 RX0      0.072200
     69 H32A        4.8920    1.5800    3.0100 hc        1 RX0      0.072200
     70 H33         4.3020    2.0860    0.8280 hc        1 RX0      0.065700
     71 HO34        6.0020   -1.7840    1.0030 ho        1 RX0      0.406000
     72 HN35        6.8690   -1.0330    3.2460 hn        1 RX0      0.351300
     73 HN3A        8.2470   -0.3010    2.7890 hn        1 RX0      0.351300
     74 C7          3.0730    0.3070    0.8450 c         1 RX0      0.650100
     75 H29         5.6490    1.2530   -0.8440 hc        1 RX0      0.063200
@<TRIPOS>BOND
     1    1    2 ar  
     2    1    3 ar  
     3    1   18 1   
     4    2    4 ar  
     5    2   35 1   
     6    3    5 ar  
     7    3   36 1   
     8    4    6 ar  
     9    4   37 1   
    10    5    6 ar  
    11    5   38 1   
    12    6   39 1   
    13    7   74 2   
    14    8   12 1   
    15    8   13 1   
    16    8   74 1   
    17    9   10 1   
    18    9   13 1   
    19    9   40 1   
    20    9   41 1   
    21   10   11 1   
    22   10   42 1   
    23   10   43 1   
    24   11   12 1   
    25   11   14 1   
    26   11   44 1   
    27   12   45 1   
    28   12   46 1   
    29   13   47 1   
    30   13   48 1   
    31   14   15 1   
    32   14   16 1   
    33   14   22 1   
    34   15   49 1   
    35   16   17 ar  
    36   16   18 ar  
    37   17   19 ar  
    38   17   50 1   
    39   18   20 ar  
    40   19   21 ar  
    41   19   51 1   
    42   20   21 ar  
    43   20   52 1   
    44   21   53 1   
    45   22   23 1   
    46   22   54 1   
    47   22   55 1   
    48   23   24 1   
    49   23   56 1   
    50   23   57 1   
    51   24   25 1   
    52   24   58 1   
    53   24   59 1   
    54   25   26 1   
    55   25   60 1   
    56   25   61 1   
    57   26   27 1   
    58   27   62 1   
    59   27   63 1   
    60   27   64 1   
    61   28   29 1   
    62   28   32 1   
    63   28   65 1   
    64   28   75 1   
    65   29   30 1   
    66   29   33 1   
    67   29   66 1   
    68   30   31 1   
    69   30   34 1   
    70   30   67 1   
    71   31   32 1   
    72   31   68 1   
    73   31   69 1   
    74   32   70 1   
    75   32   74 1   
    76   33   71 1   
    77   34   72 1   
    78   34   73 1   
@<TRIPOS>SUBSTRUCTURE
     1 RX0         1 TEMP              0 ****  ****    0 ROOT
