@<TRIPOS>MOLECULE
RX3
   79    70     1     0     0
SMALL
bcc


@<TRIPOS>ATOM
      1 C1          1.1350    3.2520    0.9890 c1        1 RX3      0.378000
      2 O2          2.0230    3.3200    1.8350 o         1 RX3     -0.401000
      3 O1          0.1000    4.2260    0.9580 os        1 RX3     -0.290000
      4 C2          0.3110    5.3480    1.8590 c3        1 RX3      0.036000
      5 C3         -0.6120    6.5370    1.4310 c2        1 RX3     -0.077000
      6 C4         -0.3330    7.2440    0.2830 c1        1 RX3     -0.102000
      7 C6         -1.1920    8.2450   -0.1420 c1        1 RX3     -0.141333
      8 C8         -2.3310    8.5360    0.5860 c1        1 RX3     -0.141333
      9 C7         -2.6110    7.8320    1.7300 c1        1 RX3     -0.135000
     10 C5         -1.7440    6.8240    2.1570 c2        1 RX3     -0.129000
     11 O3         -0.0620   -0.2830    0.5120 o         1 RX3     -1.167000
     12 P1          1.3380   -0.4600    0.1900 p3        1 RX3      2.869000
     13 O4          1.4690   -1.2120   -1.1750 oh        1 RX3     -0.843000
     14 C9          2.1530    1.1960    0.0720 c3        1 RX3     -0.649000
     15 N1          1.1610    2.2100    0.0070 n2        1 RX3     -0.280000
     16 C10         3.0130    1.2560   -1.1640 c3        1 RX3     -0.160000
     17 C11         4.1800    2.2580   -0.9290 c2        1 RX3     -0.060000
     18 C12         4.1260    3.5370   -1.5050 c2        1 RX3     -0.129000
     19 C14         5.2280    4.3940   -1.4070 c1        1 RX3     -0.135000
     20 C16         6.3890    3.9740   -0.7310 c1        1 RX3     -0.141333
     21 C15         6.4420    2.6980   -0.1560 c1        1 RX3     -0.141333
     22 C13         5.3390    1.8390   -0.2530 c1        1 RX3     -0.115000
     23 C19         0.4400   -2.8140    0.7090 c1        1 RX3      0.315000
     24 O5          0.7430   -2.5200   -0.3940 o         1 RX3     -0.537000
     25 C18         1.3230   -2.4280    1.8580 c3        1 RX3     -0.104000
     26 C20         2.3580   -3.6090    2.1520 c3        1 RX3     -0.173000
     27 C21         3.6660   -3.1970    1.5910 c3        1 RX3     -0.152000
     28 C22         3.4440   -2.1970    0.8770 c3        1 RX3     -0.141000
     29 C17         2.1330   -1.4250    1.4910 c2        1 RX3     -0.813000
     30 N2         -0.7920   -3.6010    0.9530 n2        1 RX3     -0.225000
     31 C23        -1.7470   -3.7300   -0.0540 c3        1 RX3     -0.091000
     32 C24        -2.3540   -2.3610   -0.3600 c1        1 RX3      0.327000
     33 O6         -2.7080   -2.0750   -1.5410 o         1 RX3     -0.528000
     34 C25        -2.8630   -4.6970    0.4140 c3        1 RX3     -0.088000
     35 C26        -3.6460   -5.2370   -0.8350 c2        1 RX3     -0.154000
     36 C27        -3.1810   -6.3510   -1.5480 c1        1 RX3     -0.060000
     37 C28        -4.9200   -4.9260   -1.3050 c1        1 RX3     -0.069000
     38 N3         -4.1670   -6.7240   -2.4540 n2        1 RX3     -0.223000
     39 C29        -5.2440   -5.8450   -2.3070 c1        1 RX3     -0.015000
     40 C30        -5.8040   -3.9080   -0.9880 c1        1 RX3     -0.080000
     41 C31        -6.4570   -5.7380   -2.9870 c1        1 RX3     -0.158000
     42 C32        -7.0270   -3.8010   -1.6750 c1        1 RX3     -0.141333
     43 C33        -7.3470   -4.7140   -2.6680 c1        1 RX3     -0.141333
     44 OXT        -2.5680   -1.5090    0.6120 os        1 RX3     -0.585000
     45 H21         1.2750    5.6390    1.8180 h1        1 RX3      0.101000
     46 H22         0.0910    5.0760    2.7730 h1        1 RX3      0.101000
     47 H4          0.4380    7.0140   -0.2480 ha        1 RX3      0.154000
     48 H6         -0.9780    8.7620   -0.9480 ha        1 RX3      0.121000
     49 H8         -2.9470    9.2720    0.2840 ha        1 RX3      0.121000
     50 H7         -3.3700    8.1050    2.3020 ha        1 RX3      0.125000
     51 H5         -2.1520    6.3850    2.9090 ha        1 RX3      0.130000
     52 HO4         0.9620   -0.7870   -1.8120 ho        1 RX3      0.287000
     53 H9          2.6940    1.3320    0.8350 h1        1 RX3      0.143000
     54 HN1         0.5660    2.2300   -0.7000 hn        1 RX3      0.239000
     55 H101        2.4720    1.5570   -1.9240 hc        1 RX3      0.123000
     56 H102        3.3760    0.3760   -1.3530 hc        1 RX3      0.123000
     57 H12         3.3580    3.7850   -2.0850 ha        1 RX3      0.134000
     58 H14         5.1910    5.3080   -1.8190 ha        1 RX3      0.123000
     59 H16         7.1940    4.5440   -0.7390 ha        1 RX3      0.121000
     60 H15         7.2650    2.4020    0.3210 ha        1 RX3      0.121000
     61 H13         5.3750    0.9620    0.1460 ha        1 RX3      0.138000
     62 H18         0.6380   -2.2300    2.5680 hc        1 RX3      0.114000
     63 H201        2.0490   -4.4430    1.7120 hc        1 RX3      0.117500
     64 H202        2.4400   -3.7540    3.1510 hc        1 RX3      0.117500
     65 H17         2.3070   -0.7140    2.1650 ha        1 RX3      0.155000
     66 H211        4.2750   -2.9660    2.3050 hc        1 RX3      0.085000
     67 H212        4.0350   -3.9040    1.0600 hc        1 RX3      0.085000
     68 H221        4.2240   -1.5960    0.8970 hc        1 RX3      0.093000
     69 H222        3.2640   -2.4790   -0.0440 hc        1 RX3      0.093000
     70 HN2        -0.9430   -3.9510    1.7550 hn        1 RX3      0.225000
     71 H23        -1.3140   -4.0940   -0.8740 h1        1 RX3      0.100000
     72 H251       -2.4710   -5.4320    0.8890 hc        1 RX3      0.115500
     73 H252       -3.4930   -4.2100    1.0170 hc        1 RX3      0.115500
     74 H27        -2.3980   -6.7990   -1.3950 DU        1 RX3      0.233000
     75 HN3        -4.1200   -7.4160   -3.0350 DU        1 RX3      0.233000
     76 H30        -5.5790   -3.2640   -0.2870 ha        1 RX3      0.147000
     77 H31        -6.6810   -6.3750   -3.6810 ha        1 RX3      0.116000
     78 H32        -7.6400   -3.0960   -1.4560 ha        1 RX3      0.121000
     79 H33        -8.2050   -4.6050   -3.1990 ha        1 RX3      0.121000
@<TRIPOS>BOND
     1    1    2 1   
     2    1    3 1   
     3    3    4 1   
     4    4    5 1   
     5    4   45 1   
     6    4   46 1   
     7    5    6 1   
     8    5   10 1   
     9    6   47 1   
    10    7    8 1   
    11    7   48 1   
    12    8   49 1   
    13    9   10 1   
    14    9   50 1   
    15   10   51 1   
    16   11   12 1   
    17   12   13 1   
    18   12   14 1   
    19   13   52 1   
    20   14   15 1   
    21   14   16 1   
    22   14   53 1   
    23   15   54 1   
    24   16   17 1   
    25   16   55 1   
    26   16   56 1   
    27   17   18 1   
    28   17   22 1   
    29   18   19 1   
    30   18   57 1   
    31   19   58 1   
    32   20   21 1   
    33   20   59 1   
    34   21   60 1   
    35   22   61 1   
    36   23   24 1   
    37   23   25 1   
    38   25   26 1   
    39   25   29 1   
    40   25   62 1   
    41   26   27 1   
    42   26   63 1   
    43   26   64 1   
    44   27   28 1   
    45   27   66 1   
    46   27   67 1   
    47   28   29 1   
    48   28   68 1   
    49   28   69 1   
    50   29   65 1   
    51   30   31 1   
    52   30   70 1   
    53   31   32 1   
    54   31   34 1   
    55   31   71 1   
    56   32   33 1   
    57   34   35 1   
    58   34   72 1   
    59   34   73 1   
    60   35   36 1   
    61   35   37 1   
    62   36   38 1   
    63   37   40 1   
    64   38   39 1   
    65   39   41 1   
    66   40   76 1   
    67   41   77 1   
    68   42   43 1   
    69   42   78 1   
    70   43   79 1   
@<TRIPOS>SUBSTRUCTURE
     1 RX3         1 TEMP              0 ****  ****    0 ROOT
