@<TRIPOS>MOLECULE
RX3
   79    83     1     0     0
SMALL
bcc


@<TRIPOS>ATOM
      1 C1         -1.9870   -2.9170   -5.3170 c         1 RX3      0.714100
      2 O2         -1.9210   -3.8750   -4.5310 o         1 RX3     -0.574000
      3 O1         -1.1790   -2.8940   -6.4330 os        1 RX3     -0.433900
      4 C2         -0.0030   -3.7180   -6.4000 c3        1 RX3      0.193700
      5 C3          1.1920   -2.9520   -5.9390 ca        1 RX3     -0.131300
      6 C4          1.1200   -2.0820   -4.8470 ca        1 RX3     -0.114500
      7 C6          2.2570   -1.4020   -4.4130 ca        1 RX3     -0.126000
      8 C8          3.4750   -1.5940   -5.0640 ca        1 RX3     -0.127000
      9 C7          3.5520   -2.4620   -6.1530 ca        1 RX3     -0.126000
     10 C5          2.4160   -3.1370   -6.5940 ca        1 RX3     -0.114500
     11 P1         -3.8890   -0.6980   -3.1420 p5        1 RX3      1.504100
     12 O4         -5.2600   -1.0090   -2.3280 oh        1 RX3     -0.806400
     13 C9         -3.9680   -1.8630   -4.3750 c3        1 RX3     -0.197500
     14 N1         -2.7780   -1.7670   -5.1940 n         1 RX3     -0.467900
     15 C10        -5.2770   -1.5750   -5.1140 c3        1 RX3     -0.069100
     16 C11        -5.4850   -2.4240   -6.3140 ca        1 RX3     -0.079300
     17 C12        -5.9680   -3.7320   -6.1810 ca        1 RX3     -0.123500
     18 C14        -6.1690   -4.5240   -7.3090 ca        1 RX3     -0.128500
     19 C16        -5.8920   -4.0170   -8.5790 ca        1 RX3     -0.132000
     20 C15        -5.4120   -2.7160   -8.7180 ca        1 RX3     -0.128500
     21 C13        -5.2090   -1.9210   -7.5910 ca        1 RX3     -0.123500
     22 C19        -0.6650    0.5160   -1.8120 c         1 RX3      0.657100
     23 O5         -0.0780   -0.1000   -2.7340 o         1 RX3     -0.670100
     24 C18        -2.1130    0.1700   -1.4420 c3        1 RX3     -0.121700
     25 C20        -2.2280   -0.1050    0.0620 c3        1 RX3     -0.097400
     26 C21        -2.9180   -1.4470    0.2350 c3        1 RX3     -0.072400
     27 C22        -2.9610   -2.1170   -1.1320 c3        1 RX3     -0.051400
     28 C17        -2.6220   -1.0680   -2.1830 c3        1 RX3     -0.415900
     29 N2         -0.0960    1.5900   -1.1590 n         1 RX3     -0.478900
     30 C23         1.3400    1.6100   -0.9030 c3        1 RX3     -0.069300
     31 C24         1.6660    1.2560    0.6000 c         1 RX3      0.905600
     32 O6          2.8810    1.2420    0.9220 o         1 RX3     -0.828300
     33 C25         1.9770    2.9650   -1.2230 c3        1 RX3     -0.006200
     34 C26         2.0190    3.2990   -2.6530 cc        1 RX3     -0.112400
     35 C27         1.6270    2.5100   -3.7320 cd        1 RX3     -0.106100
     36 C28         2.5070    4.5510   -3.2050 ca        1 RX3     -0.087800
     37 N3          1.8730    3.1780   -4.9410 na        1 RX3     -0.200400
     38 C29         2.3740    4.4470   -4.6450 ca        1 RX3     -0.053200
     39 C30         3.0290    5.7170   -2.6510 ca        1 RX3     -0.078000
     40 C31         2.7550    5.5050   -5.4810 ca        1 RX3     -0.157000
     41 C32         3.4020    6.7570   -3.4930 ca        1 RX3     -0.176000
     42 C33         3.2650    6.6510   -4.8860 ca        1 RX3     -0.128000
     43 OXT         0.6990    0.9960    1.3720 o         1 RX3     -0.828300
     44 H21         0.1050   -4.0350   -7.4740 h1        1 RX3      0.070700
     45 H22        -0.1700   -4.6170   -5.7470 h1        1 RX3      0.070700
     46 H4          0.1630   -1.9200   -4.3210 ha        1 RX3      0.137000
     47 H6          2.1720   -0.7140   -3.5520 ha        1 RX3      0.146000
     48 H8          4.3730   -1.0600   -4.7180 ha        1 RX3      0.135000
     49 H7          4.5120   -2.6150   -6.6680 ha        1 RX3      0.146000
     50 H5          2.4800   -3.8150   -7.4570 ha        1 RX3      0.137000
     51 HO4        -5.8320   -0.2520   -2.2260 ho        1 RX3      0.469000
     52 H9         -4.0400   -2.9090   -3.9460 h1        1 RX3      0.121700
     53 HN1        -2.9080   -1.2850   -6.0660 hn        1 RX3      0.314500
     54 H101       -6.1080   -1.7400   -4.3730 hc        1 RX3      0.084700
     55 H102       -5.2890   -0.4840   -5.3940 hc        1 RX3      0.084700
     56 H12        -6.1830   -4.1330   -5.1790 ha        1 RX3      0.136500
     57 H14        -6.5450   -5.5510   -7.1970 ha        1 RX3      0.129500
     58 H16        -6.0490   -4.6440   -9.4690 ha        1 RX3      0.127000
     59 H15        -5.1900   -2.3140   -9.7170 ha        1 RX3      0.129500
     60 H13        -4.8330   -0.8920   -7.7040 ha        1 RX3      0.136500
     61 H18        -2.7460    1.0600   -1.7250 hc        1 RX3      0.085700
     62 H201       -2.8150    0.7110    0.5530 hc        1 RX3      0.083200
     63 H202       -1.2160   -0.1210    0.5590 hc        1 RX3      0.083200
     64 H17        -1.7470   -1.4750   -2.7810 hc        1 RX3      0.161700
     65 H211       -2.3660   -2.0840    0.9690 hc        1 RX3      0.042700
     66 H212       -3.9580   -1.3070    0.6280 hc        1 RX3      0.042700
     67 H221       -2.2130   -2.9530   -1.1620 hc        1 RX3      0.051200
     68 H222       -3.9690   -2.5630   -1.3290 hc        1 RX3      0.051200
     69 HN2        -0.6060    1.9040   -0.3520 hn        1 RX3      0.304500
     70 H23         1.8340    0.8210   -1.5410 h1        1 RX3      0.066700
     71 H251        1.4400    3.7820   -0.6690 hc        1 RX3      0.065700
     72 H252        3.0270    2.9210   -0.8150 hc        1 RX3      0.065700
     73 H27         1.1940    1.5010   -3.7260 h4        1 RX3      0.199000
     74 HN3         1.5150    2.9060   -5.8160 hn        1 RX3      0.286700
     75 H30         3.1410    5.8010   -1.5600 ha        1 RX3      0.136000
     76 H31         2.6540    5.4300   -6.5710 ha        1 RX3      0.118000
     77 H32         3.8140    7.6820   -3.0660 ha        1 RX3      0.115000
     78 H33         3.5690    7.4970   -5.5190 ha        1 RX3      0.112000
     79 O3         -4.1180    0.6720   -3.5990 o         1 RX3     -0.877300
@<TRIPOS>BOND
     1    1    2 2   
     2    1    3 1   
     3    1   14 1   
     4    3    4 1   
     5    4    5 1   
     6    4   44 1   
     7    4   45 1   
     8    5    6 ar  
     9    5   10 ar  
    10    6    7 ar  
    11    6   46 1   
    12    7    8 ar  
    13    7   47 1   
    14    8    9 ar  
    15    8   48 1   
    16    9   10 ar  
    17    9   49 1   
    18   10   50 1   
    19   11   12 1   
    20   11   13 1   
    21   11   28 1   
    22   11   79 2   
    23   12   51 1   
    24   13   14 1   
    25   13   15 1   
    26   13   52 1   
    27   14   53 1   
    28   15   16 1   
    29   15   54 1   
    30   15   55 1   
    31   16   17 ar  
    32   16   21 ar  
    33   17   18 ar  
    34   17   56 1   
    35   18   19 ar  
    36   18   57 1   
    37   19   20 ar  
    38   19   58 1   
    39   20   21 ar  
    40   20   59 1   
    41   21   60 1   
    42   22   23 2   
    43   22   24 1   
    44   22   29 1   
    45   24   25 1   
    46   24   28 1   
    47   24   61 1   
    48   25   26 1   
    49   25   62 1   
    50   25   63 1   
    51   26   27 1   
    52   26   65 1   
    53   26   66 1   
    54   27   28 1   
    55   27   67 1   
    56   27   68 1   
    57   28   64 1   
    58   29   30 1   
    59   29   69 1   
    60   30   31 1   
    61   30   33 1   
    62   30   70 1   
    63   31   32 1   
    64   31   43 1   
    65   33   34 1   
    66   33   71 1   
    67   33   72 1   
    68   34   35 2   
    69   34   36 1   
    70   35   37 1   
    71   35   73 1   
    72   36   38 ar  
    73   36   39 ar  
    74   37   38 1   
    75   37   74 1   
    76   38   40 ar  
    77   39   41 ar  
    78   39   75 1   
    79   40   42 ar  
    80   40   76 1   
    81   41   42 ar  
    82   41   77 1   
    83   42   78 1   
@<TRIPOS>SUBSTRUCTURE
     1 RX3         1 TEMP              0 ****  ****    0 ROOT
