@<TRIPOS>MOLECULE
RX3
   80    78     1     0     0
SMALL
bcc


@<TRIPOS>ATOM
      1 C1         -1.3300   -0.2820    0.5790 c2        1 RX3      0.365000
      2 O2         -1.1310   -1.3930   -0.1560 os        1 RX3     -0.118000
      3 O1         -1.5320   -0.5360    1.8940 os        1 RX3     -0.215000
      4 C2         -1.5620   -1.9400    2.2930 c3        1 RX3      0.050000
      5 C3         -1.6990   -1.9350    3.7620 c2        1 RX3     -0.095000
      6 C4         -2.8240   -1.1940    4.4390 c3        1 RX3     -0.106000
      7 C6         -3.4080   -2.0550    5.5290 c2        1 RX3     -0.133000
      8 C8         -2.7320   -3.0590    6.1340 c2        1 RX3     -0.156000
      9 C7         -1.2930   -3.1570    5.8400 c2        1 RX3     -0.066000
     10 C5         -1.0270   -2.6950    4.6210 c1        1 RX3     -0.161000
     11 P1         -2.5790   -0.5910   -3.1920 p5        1 RX3      2.950000
     12 O4         -3.6940    0.2060   -2.6870 o         1 RX3     -1.178000
     13 C9         -1.4770    0.0320   -4.2340 cx        1 RX3     -0.707000
     14 N1         -1.2420    0.9910    0.1950 n8        1 RX3     -0.291000
     15 C10        -1.6020    1.4770   -4.6060 c3        1 RX3     -0.099000
     16 C11        -0.6090    2.3140   -3.9000 c2        1 RX3      0.007000
     17 C12         0.4320    3.0920   -4.6630 c3        1 RX3     -0.124000
     18 C14         0.5690    4.4680   -4.0660 c2        1 RX3     -0.147000
     19 C16         0.2270    4.7650   -2.7920 c2        1 RX3     -0.150000
     20 C15        -0.1010    3.6340   -1.9110 c2        1 RX3     -0.075000
     21 C13        -0.5750    2.5950   -2.5940 c1        1 RX3     -0.263000
     22 C19        -0.1150   -4.6110   -1.3040 c2        1 RX3      0.192000
     23 O5         -0.8990   -5.4560   -1.7950 o         1 RX3     -0.421000
     24 C18         1.1830   -4.7890   -0.9060 c1        1 RX3     -0.150000
     25 C20         2.1550   -4.9800    0.0970 c3        1 RX3     -0.120000
     26 C21         1.6690   -5.0530    1.5260 c3        1 RX3     -0.238000
     27 C22        -1.0900   -1.1760   -1.5490 c2        1 RX3     -0.683000
     28 C17        -2.1270   -1.8900   -2.3370 c3        1 RX3     -0.865000
     29 N2         -3.7640   -4.8640   -2.8420 n8        1 RX3     -0.349000
     30 C23        -4.5560   -4.6220   -1.7510 c2        1 RX3      0.028000
     31 C24        -1.1660   -7.7190   -2.8660 c1        1 RX3      0.447000
     32 O6         -0.1840   -8.1850   -2.3820 o         1 RX3     -0.225500
     33 C25        -5.9180   -4.5590   -1.7600 c2        1 RX3     -0.310000
     34 C26        -6.7300   -4.1890   -0.6410 c2        1 RX3     -0.022000
     35 C27        -4.6480    2.2210   -1.1750 c1        1 RX3     -0.082000
     36 C28        -6.4040   -4.0530    0.6610 c2        1 RX3     -0.156000
     37 N3         -3.8820    2.6990   -0.4260 n2        1 RX3      0.082000
     38 C29        -3.0630    3.3250    0.4070 c2        1 RX3     -0.347000
     39 C30        -5.1560   -4.2770    1.2520 c1        1 RX3     -0.087000
     40 C31        -3.2570    3.3670    1.7860 c1        1 RX3     -0.082000
     41 C32        -4.1050   -4.4680    1.7980 c1        1 RX3     -0.274000
     42 C33        -3.3740    3.4140    2.9800 c1        1 RX3     -0.288000
     43 OXT        -2.1570   -7.2940   -3.3710 o         1 RX3     -0.225500
     44 H21        -2.4470   -2.4230    1.7930 h1        1 RX3      0.120500
     45 H22        -0.6090   -2.4270    1.9580 h1        1 RX3      0.120500
     46 H4         -3.6060   -0.9800    3.6610 hc        1 RX3      0.125500
     47 H6         -2.5050   -0.2110    4.8780 hc        1 RX3      0.125500
     48 H8         -4.4350   -1.7950    5.8230 ha        1 RX3      0.143000
     49 H7         -3.1700   -3.7120    6.8970 ha        1 RX3      0.147000
     50 H5         -0.5820   -3.4610    6.6120 ha        1 RX3      0.163000
     51 H9         -1.1050    1.1940   -0.7810 hn        1 RX3      0.296000
     52 HN1        -0.4620   -0.3670   -4.4190 h1        1 RX3      0.143000
     53 H101       -2.6420    1.8200   -4.3340 hc        1 RX3      0.106000
     54 H102       -1.4920    1.5970   -5.7190 hc        1 RX3      0.106000
     55 H12         0.0910    3.1780   -5.7300 hc        1 RX3      0.119500
     56 H14         1.4390    2.5950   -4.6670 hc        1 RX3      0.119500
     57 H16         0.9930    5.2260   -4.7400 ha        1 RX3      0.135000
     58 H15         0.2890    5.7740   -2.3700 ha        1 RX3      0.140000
     59 H13         0.1480    3.6720   -0.8470 ha        1 RX3      0.147000
     60 H18        -2.9220   -2.3250   -1.6780 hc        1 RX3      0.146500
     61 H17        -1.7170   -2.7640   -2.9040 hc        1 RX3      0.146500
     62 H212        1.1850   -4.0930    1.8280 hc        1 RX3      0.085667
     63 H221        2.5300   -5.2440    2.2120 hc        1 RX3      0.085667
     64 H222       -0.0520   -1.2000   -1.8930 h4        1 RX3      0.117000
     65 HN2        -0.3970   -3.5150   -1.2780 h4        1 RX3      0.164000
     66 H23        -2.8270   -5.1600   -2.6610 hn        1 RX3      0.216000
     67 H251       -3.9910   -4.3920   -0.8220 h4        1 RX3      0.143000
     68 H252       -6.4740   -4.7810   -2.6870 ha        1 RX3      0.125000
     69 H27        -7.7890   -3.9970   -0.9100 ha        1 RX3      0.117000
     70 HN3        -5.0860    1.5170   -1.8710 ha        1 RX3      0.339000
     71 H30        -7.1890   -3.7470    1.3780 ha        1 RX3      0.132000
     72 H31        -2.3080    3.9800   -0.0600 h4        1 RX3      0.169000
     73 H32        -3.4750    3.4700    4.0310 ha        1 RX3      0.217000
     74 H33        -3.1870   -4.6620    2.2880 ha        1 RX3      0.217000
     75 H201        2.6630   -5.9560   -0.1960 hc        1 RX3      0.160500
     76 O3         -2.5040   -0.8010   -4.8320 os        1 RX3     -0.707000
     77 H202        2.9540   -4.1850   -0.0060 hc        1 RX3      0.160500
     78 H121       -1.5200    1.7320    0.8130 hn        1 RX3      0.296000
     79 H223       -4.1870   -5.2940   -3.6320 hn        1 RX3      0.216000
     80 H211        0.9260   -5.8770    1.6520 hc        1 RX3      0.085667
@<TRIPOS>BOND
     1    1    2 1   
     2    1    3 1   
     3    1   14 1   
     4    2   27 1   
     5    3    4 1   
     6    4    5 1   
     7    4   44 1   
     8    4   45 1   
     9    5    6 1   
    10    5   10 1   
    11    6    7 1   
    12    6   46 1   
    13    6   47 1   
    14    7    8 1   
    15    7   48 1   
    16    8    9 1   
    17    8   49 1   
    18    9   10 1   
    19    9   50 1   
    20   11   12 1   
    21   11   13 1   
    22   11   28 1   
    23   11   76 1   
    24   13   15 1   
    25   13   52 1   
    26   13   76 1   
    27   14   51 1   
    28   14   78 1   
    29   15   16 1   
    30   15   53 1   
    31   15   54 1   
    32   16   17 1   
    33   16   21 1   
    34   17   18 1   
    35   17   55 1   
    36   17   56 1   
    37   18   19 1   
    38   18   57 1   
    39   19   20 1   
    40   19   58 1   
    41   20   21 1   
    42   20   59 1   
    43   22   23 1   
    44   22   24 1   
    45   22   65 1   
    46   24   25 1   
    47   25   26 1   
    48   25   75 1   
    49   25   77 1   
    50   26   62 1   
    51   26   63 1   
    52   26   80 1   
    53   27   28 1   
    54   27   64 1   
    55   28   60 1   
    56   28   61 1   
    57   29   30 1   
    58   29   66 1   
    59   29   79 1   
    60   30   33 1   
    61   30   67 1   
    62   31   32 1   
    63   31   43 1   
    64   33   34 1   
    65   33   68 1   
    66   34   36 1   
    67   34   69 1   
    68   35   37 1   
    69   35   70 1   
    70   36   39 1   
    71   36   71 1   
    72   37   38 1   
    73   38   40 1   
    74   38   72 1   
    75   39   41 1   
    76   40   42 1   
    77   41   74 1   
    78   42   73 1   
@<TRIPOS>SUBSTRUCTURE
     1 RX3         1 TEMP              0 ****  ****    0 ROOT
