@<TRIPOS>MOLECULE
RX3
   80    80     1     0     0
SMALL
bcc


@<TRIPOS>ATOM
      1 C1         -0.4050   -0.1900    0.8130 c2        1 RX3      0.363000
      2 O2          0.7790    0.0670    1.0910 o         1 RX3     -0.396000
      3 O1         -1.2370   -0.6070    1.8340 os        1 RX3     -0.308000
      4 C2         -0.6210   -0.7140    3.1340 c3        1 RX3      0.049000
      5 C3         -1.6660   -1.0990    4.1050 c2        1 RX3     -0.078000
      6 C4         -2.9880   -1.6920    3.6880 c3        1 RX3     -0.103000
      7 C6         -3.3300   -2.8450    4.5980 c2        1 RX3     -0.147000
      8 C8         -2.8380   -2.9820    5.8500 c2        1 RX3     -0.148000
      9 C7         -2.0930   -1.8350    6.3980 c2        1 RX3     -0.077000
     10 C5         -1.5140   -1.1400    5.4260 c1        1 RX3     -0.173000
     11 P1         -0.5590   -1.7920   -2.3970 p5        1 RX3      2.876000
     12 O4         -1.8230   -2.3560   -1.9310 o         1 RX3     -1.138000
     13 C9         -0.4820   -0.4530   -3.3450 cx        1 RX3     -0.710000
     14 N1         -0.9960   -0.1980   -0.4450 n         1 RX3     -0.506000
     15 C10        -1.7490    0.2930   -3.6250 c3        1 RX3     -0.092000
     16 C11        -1.6650    1.7650   -3.2200 c3        1 RX3     -0.147000
     17 C12        -1.4050    2.6670   -4.3690 c2        1 RX3     -0.060000
     18 C14        -0.5290    3.6960   -4.2680 c2        1 RX3     -0.212000
     19 C16         0.2150    3.9030   -3.0590 c2        1 RX3      0.036000
     20 C15         0.0690    3.0520   -1.9920 c2        1 RX3     -0.241000
     21 C13        -0.8030    1.9540   -2.0540 c1        1 RX3     -0.132000
     22 C19         0.9770   -3.4430    0.5380 c2        1 RX3      0.190000
     23 O5          1.3740   -4.3840    1.2240 o         1 RX3     -0.279000
     24 C18         0.6350   -3.5750   -0.9250 c3        1 RX3     -0.160000
     25 C20         1.4800   -4.6480   -1.6170 c3        1 RX3     -0.155000
     26 C21         2.3000   -3.9690   -2.7000 c3        1 RX3     -0.159000
     27 C22         1.9680   -2.4830   -2.6750 c3        1 RX3     -0.145000
     28 C17         0.8320   -2.2570   -1.6810 c3        1 RX3     -0.861000
     29 N2         -3.8410   -4.3040   -1.6070 n3        1 RX3     -0.323000
     30 C23        -5.1630   -4.0510   -1.9480 c2        1 RX3     -0.022000
     31 C24        -2.4120   -6.6310   -0.8290 c1        1 RX3      0.434000
     32 O6         -3.2620   -7.1750   -0.2030 o         1 RX3     -0.217500
     33 C25        -6.0350   -3.2110   -1.3460 c2        1 RX3     -0.251000
     34 C26        -5.7550   -2.2540   -0.2960 c2        1 RX3     -0.005000
     35 C27        -4.5050   -1.4210   -0.4250 c3        1 RX3     -0.091000
     36 C28        -6.5820   -2.0810    0.7590 c2        1 RX3     -0.086000
     37 N3         -4.7240   -0.0040   -0.2520 n2        1 RX3     -0.157000
     38 C29        -4.2190    0.6010    0.7690 c2        1 RX3      0.009000
     39 C30        -7.7540   -2.8180    0.9800 c1        1 RX3     -0.117000
     40 C31        -4.3750    1.9950    0.9850 c1        1 RX3     -0.143000
     41 C32        -8.7590   -3.4340    1.1930 c1        1 RX3     -0.219000
     42 C33        -4.4930    3.1650    1.2040 c1        1 RX3     -0.173000
     43 OXT        -1.5390   -6.1110   -1.4520 o         1 RX3     -0.217500
     44 H21         0.1910   -1.4900    3.0770 h1        1 RX3      0.111500
     45 H22        -0.1630    0.2780    3.3970 h1        1 RX3      0.111500
     46 H4         -2.8820   -2.0620    2.6320 hc        1 RX3      0.118500
     47 H6         -3.8300   -0.9500    3.7070 hc        1 RX3      0.118500
     48 H8         -4.0400   -3.5710    4.1760 ha        1 RX3      0.141000
     49 H7         -3.0570   -3.8390    6.4970 ha        1 RX3      0.142000
     50 H5         -2.1590   -1.5800    7.4580 ha        1 RX3      0.157000
     51 H9         -0.8420    0.7180   -1.0020 hn        1 RX3      0.256000
     52 HN1         0.4220    0.1570   -3.5370 h1        1 RX3      0.144000
     53 H101       -2.5810   -0.2020   -3.0500 hc        1 RX3      0.107000
     54 H102       -2.0070    0.2260   -4.7170 hc        1 RX3      0.107000
     55 H12        -2.7020    2.0630   -2.8260 hc        1 RX3      0.192000
     56 H14        -1.9720    2.4790   -5.2950 ha        1 RX3      0.148000
     57 H16        -0.3550    4.3860   -5.1090 ha        1 RX3      0.148000
     58 H15         0.9160    4.7540   -3.0230 ha        1 RX3      0.143000
     59 H13         0.6590    3.1980   -1.0730 ha        1 RX3      0.160000
     60 H18        -0.4540   -3.8850   -0.9590 hc        1 RX3      0.151000
     61 H17         1.2020   -1.4800   -0.9460 hc        1 RX3      0.184000
     62 H212        2.0620   -4.4040   -3.7040 hc        1 RX3      0.091500
     63 H221        2.8770   -1.9040   -2.3630 hc        1 RX3      0.104500
     64 H222        1.6810   -2.1230   -3.6970 hc        1 RX3      0.104500
     65 HN2         0.8200   -2.4290    0.9770 h4        1 RX3      0.100000
     66 H23        -3.2440   -4.4200   -2.4040 hn        1 RX3      0.189500
     67 H251       -5.5350   -4.7040   -2.7650 h4        1 RX3      0.129000
     68 H252       -7.0960   -3.2620   -1.6450 ha        1 RX3      0.140000
     69 H27        -4.0790   -1.5310   -1.4690 h1        1 RX3      0.110500
     70 HN3        -3.7360   -1.8440    0.2940 h1        1 RX3      0.110500
     71 H30        -6.3670   -1.3160    1.5280 ha        1 RX3      0.133000
     72 H31        -3.6110    0.0970    1.5640 h4        1 RX3      0.130000
     73 H32        -4.5960    4.2000    1.4090 ha        1 RX3      0.226000
     74 H33        -9.6480   -3.9800    1.3810 ha        1 RX3      0.220000
     75 H201        2.1430   -5.1620   -0.8750 hc        1 RX3      0.108500
     76 O3         -0.4340   -1.7210   -4.0470 os        1 RX3     -0.690000
     77 H202        0.8060   -5.4290   -2.0550 hc        1 RX3      0.108500
     78 H121       -1.9600   -0.4710   -0.4200 hn        1 RX3      0.256000
     79 H223       -3.4370   -3.6320   -0.9820 hn        1 RX3      0.189500
     80 H211        3.3940   -4.1250   -2.5240 hc        1 RX3      0.091500
@<TRIPOS>BOND
     1    1    2 1   
     2    1    3 1   
     3    1   14 1   
     4    3    4 1   
     5    4    5 1   
     6    4   44 1   
     7    4   45 1   
     8    5    6 1   
     9    5   10 1   
    10    6    7 1   
    11    6   46 1   
    12    6   47 1   
    13    7    8 1   
    14    7   48 1   
    15    8    9 1   
    16    8   49 1   
    17    9   10 1   
    18    9   50 1   
    19   11   12 1   
    20   11   13 1   
    21   11   28 1   
    22   11   76 1   
    23   13   15 1   
    24   13   52 1   
    25   13   76 1   
    26   14   51 1   
    27   14   78 1   
    28   15   16 1   
    29   15   53 1   
    30   15   54 1   
    31   16   17 1   
    32   16   21 1   
    33   16   55 1   
    34   17   18 1   
    35   17   56 1   
    36   18   19 1   
    37   18   57 1   
    38   19   20 1   
    39   19   58 1   
    40   20   21 1   
    41   20   59 1   
    42   22   23 1   
    43   22   24 1   
    44   22   65 1   
    45   24   25 1   
    46   24   28 1   
    47   24   60 1   
    48   25   26 1   
    49   25   75 1   
    50   25   77 1   
    51   26   27 1   
    52   26   62 1   
    53   26   80 1   
    54   27   28 1   
    55   27   63 1   
    56   27   64 1   
    57   28   61 1   
    58   29   30 1   
    59   29   66 1   
    60   29   79 1   
    61   30   33 1   
    62   30   67 1   
    63   31   32 1   
    64   31   43 1   
    65   33   34 1   
    66   33   68 1   
    67   34   35 1   
    68   34   36 1   
    69   35   37 1   
    70   35   69 1   
    71   35   70 1   
    72   36   39 1   
    73   36   71 1   
    74   37   38 1   
    75   38   40 1   
    76   38   72 1   
    77   39   41 1   
    78   40   42 1   
    79   41   74 1   
    80   42   73 1   
@<TRIPOS>SUBSTRUCTURE
     1 RX3         1 TEMP              0 ****  ****    0 ROOT
