@<TRIPOS>MOLECULE
RX4
   64    64     1     0     0
SMALL
bcc


@<TRIPOS>ATOM
      1 CAX        -5.5910    1.4360    1.7760 c         1 RX4      0.659100
      2 CAA        -5.9080    2.6100    2.6750 c3        1 RX4     -0.172100
      3 OAE        -6.3410    0.4360    1.7420 o         1 RX4     -0.639100
      4 CBB        -2.7730   -0.1850    0.4540 c         1 RX4      0.660100
      5 OAI        -2.7250   -0.8440    1.5150 o         1 RX4     -0.640100
      6 CBF        -4.0820    0.5410    0.0360 c3        1 RX4      0.061700
      7 CAR        -4.0270    1.1660   -1.3640 c3        1 RX4     -0.229400
      8 CAZ        -3.0720    2.3680   -1.4260 c         1 RX4      0.910600
      9 OAK        -1.9560    2.2150   -2.0180 o         1 RX4     -0.843800
     10 OAG        -3.4140    3.4460   -0.8670 o         1 RX4     -0.843800
     11 NAU        -4.4230    1.5160    1.0460 n         1 RX4     -0.540900
     12 CAP        -0.5310   -3.7610   -2.1370 ca        1 RX4     -0.126500
     13 CAN        -1.2180   -4.9680   -2.2390 ca        1 RX4     -0.133500
     14 CAM        -2.0540   -5.3860   -1.2020 ca        1 RX4     -0.142000
     15 CAO        -2.1990   -4.5880   -0.0700 ca        1 RX4     -0.133500
     16 CAQ        -1.5090   -3.3790    0.0360 ca        1 RX4     -0.126500
     17 CBC        -0.6670   -2.9550   -0.9960 ca        1 RX4     -0.065300
     18 CAS         0.1320   -1.7060   -0.9260 c3        1 RX4     -0.052100
     19 CBG        -0.3720   -0.5870   -0.0130 c3        1 RX4     -0.198500
     20 P1          0.7980    0.6260   -0.1240 p5        1 RX4      1.490100
     21 O4          0.1690    2.0810   -0.0380 oh        1 RX4     -0.822400
     22 O3          1.7100    0.5020   -1.2700 o         1 RX4     -0.892300
     23 CAT         1.6180    0.4990    1.3200 c3        1 RX4     -0.392600
     24 CBD         2.9090    1.2950    1.2520 c3        1 RX4     -0.091700
     25 CAB         3.1300    2.1120    2.5100 c3        1 RX4     -0.085100
     26 CBA         4.1110    0.3620    1.0540 c         1 RX4      0.657100
     27 OAH         4.7600   -0.0840    2.0280 o         1 RX4     -0.657100
     28 N           4.4710    0.0560   -0.2390 n         1 RX4     -0.556900
     29 CA          5.4880   -0.9230   -0.5340 c3        1 RX4      0.043700
     30 CB          5.2540   -1.6290   -1.8680 c3        1 RX4     -0.096100
     31 C           6.9100   -0.3050   -0.5490 c         1 RX4      0.643100
     32 O           7.6470   -0.3760   -1.5550 o         1 RX4     -0.637100
     33 NAD         7.3550    0.2870    0.6000 n         1 RX4     -0.671000
     34 HAA1       -5.9930    3.5480    2.0760 hc        1 RX4      0.059367
     35 HAA2       -6.8770    2.4150    3.1930 hc        1 RX4      0.059367
     36 HAA3       -5.1050    2.7390    3.4390 hc        1 RX4      0.059367
     37 HBF        -4.8680   -0.2770    0.0380 h1        1 RX4      0.092700
     38 HAR1       -3.7270    0.3910   -2.1110 hc        1 RX4      0.052200
     39 HAR2       -5.0530    1.5230   -1.6370 hc        1 RX4      0.052200
     40 HAU        -4.0030    2.4200    0.9170 hn        1 RX4      0.351500
     41 HAM        -2.5990   -6.3360   -1.2830 ha        1 RX4      0.120000
     42 HAO        -2.8650   -4.9040    0.7460 ha        1 RX4      0.125500
     43 HAQ        -1.6590   -2.7490    0.9310 ha        1 RX4      0.148000
     44 HAS1        1.1670   -1.9670   -0.5650 hc        1 RX4      0.069200
     45 HAS2        0.2550   -1.2760   -1.9610 hc        1 RX4      0.069200
     46 HBG        -0.4510   -1.0150    1.0340 h1        1 RX4      0.119700
     47 HAL        -0.4400    2.4070   -0.7190 ho        1 RX4      0.539000
     48 HAT1        0.9970    0.8930    2.1690 hc        1 RX4      0.105700
     49 HAT2        1.8460   -0.5620    1.5960 hc        1 RX4      0.105700
     50 HBD         2.8440    2.0090    0.3770 hc        1 RX4      0.085700
     51 HAB1        2.2790    2.8180    2.6590 hc        1 RX4      0.045033
     52 HAB2        3.2120    1.4400    3.3980 hc        1 RX4      0.045033
     53 HAB3        4.0760    2.6990    2.4250 hc        1 RX4      0.045033
     54 H           3.8870    0.3480   -1.0010 hn        1 RX4      0.370500
     55 HA          5.4920   -1.7000    0.2930 h1        1 RX4      0.072700
     56 HB1C        4.2590   -2.1350   -1.8740 hc        1 RX4      0.054367
     57 HB2C        5.2980   -0.9010   -2.7150 hc        1 RX4      0.054367
     58 HB3C        6.0580   -2.3880   -2.0170 hc        1 RX4      0.054367
     59 HAD1        6.7800    0.3340    1.4060 hn        1 RX4      0.318500
     60 HAD2        8.2530    0.6990    0.6220 hn        1 RX4      0.318500
     61 HAP         0.1220   -3.4320   -2.9590 ha        1 RX4      0.148000
     62 NAW        -1.6580   -0.0480   -0.3430 n         1 RX4     -0.564900
     63 HAN        -1.1050   -5.5880   -3.1390 ha        1 RX4      0.125500
     64 HAW        -1.7320    0.3590   -1.2570 hn        1 RX4      0.362500
@<TRIPOS>BOND
     1    1    2 1   
     2    1    3 2   
     3    1   11 1   
     4    2   34 1   
     5    2   35 1   
     6    2   36 1   
     7    4    5 2   
     8    4    6 1   
     9    4   62 1   
    10    6    7 1   
    11    6   11 1   
    12    6   37 1   
    13    7    8 1   
    14    7   38 1   
    15    7   39 1   
    16    8    9 1   
    17    8   10 1   
    18   11   40 1   
    19   12   13 ar  
    20   12   17 ar  
    21   12   61 1   
    22   13   14 ar  
    23   13   63 1   
    24   14   15 ar  
    25   14   41 1   
    26   15   16 ar  
    27   15   42 1   
    28   16   17 ar  
    29   16   43 1   
    30   17   18 1   
    31   18   19 1   
    32   18   44 1   
    33   18   45 1   
    34   19   20 1   
    35   19   46 1   
    36   19   62 1   
    37   20   21 1   
    38   20   22 2   
    39   20   23 1   
    40   21   47 1   
    41   23   24 1   
    42   23   48 1   
    43   23   49 1   
    44   24   25 1   
    45   24   26 1   
    46   24   50 1   
    47   25   51 1   
    48   25   52 1   
    49   25   53 1   
    50   26   27 2   
    51   26   28 1   
    52   28   29 1   
    53   28   54 1   
    54   29   30 1   
    55   29   31 1   
    56   29   55 1   
    57   30   56 1   
    58   30   57 1   
    59   30   58 1   
    60   31   32 2   
    61   31   33 1   
    62   33   59 1   
    63   33   60 1   
    64   62   64 1   
@<TRIPOS>SUBSTRUCTURE
     1 RX4         1 TEMP              0 ****  ****    0 ROOT
