@<TRIPOS>MOLECULE
RX5
   80    73     1     0     0
SMALL
bcc


@<TRIPOS>ATOM
      1 C1        -24.6330   -7.0390 -101.7780 c3        1 RX5     -0.266000
      2 N1        787.3130    0.5560   51.2430 n3        1 RX5     -0.134000
      3 O1       -237.3700  193.2950 -617.5210 o         1 RX5     -0.232000
      4 C2        787.1920    0.5760   52.0770 c2        1 RX5      0.113000
      5 O2        -24.6040 -975.2780  454.2010 o         1 RX5     -0.410000
      6 C3       -238.6460  195.1960 -615.7480 c1        1 RX5     -0.010000
      7 N3       -238.4390  191.5100 -616.5120 n         1 RX5     -0.154000
      8 O3        -26.8260 -971.8690  453.4160 o         1 RX5     -0.231000
      9 C4       -238.1550  192.9690 -616.6290 c2        1 RX5      0.269000
     10 N4        -24.7190 -972.8800  452.9000 n4        1 RX5     -0.021000
     11 O4        -25.1040 -971.7680  454.9280 os        1 RX5     -0.237000
     12 C5       -239.7260  191.0880 -615.9520 c3        1 RX5     -0.090000
     13 C6       -239.7130  190.8280 -614.4570 c3        1 RX5     -0.245000
     14 C7       -236.3480  188.5080 -617.2690 c3        1 RX5     -0.231000
     15 C8       -237.6600  189.1710 -616.9270 c3        1 RX5     -0.197000
     16 C9       -237.5370  190.6520 -616.9450 c2        1 RX5      0.161000
     17 C10       -24.8970 -976.1580  455.0250 c2        1 RX5      0.278000
     18 C11      -107.5580  365.5830   82.5550 c3        1 RX5     -0.106000
     19 C12      -108.5270  366.0010   83.5130 c1        1 RX5     -0.169000
     20 C13       791.2600    0.7430   51.4700 c2        1 RX5      0.206000
     21 O14       790.0290    0.8310   51.5380 o         1 RX5     -0.414000
     22 C15      -111.3430  365.7270   85.5850 c3        1 RX5     -0.207000
     23 C16      -110.3060  366.7860   85.2830 c3        1 RX5     -0.049000
     24 C17      -109.3410  366.3520   84.3190 c1        1 RX5     -0.168000
     25 C19       -24.3310 -972.1050  451.7260 c2        1 RX5     -0.205000
     26 C20       -25.6810 -972.1200  453.7610 c2        1 RX5      0.344000
     27 C21       -25.3650 -975.8480  456.3900 c2        1 RX5     -0.170000
     28 C22       -26.2060 -976.8650  457.0070 c2        1 RX5     -0.177000
     29 C23       -27.4590 -976.5750  457.4210 c2        1 RX5      0.015000
     30 C24       -28.0320 -975.2490  457.2600 c2        1 RX5     -0.406000
     31 C25       -27.3440 -974.1550  456.9890 c1        1 RX5      0.126000
     32 C26       -25.0210 -974.7030  457.0110 c2        1 RX5     -0.107000
     33 C27       -25.9910 -971.1780  455.9140 c3        1 RX5     -0.075000
     34 CL2       -28.4370 -977.7490  458.1470 cl        1 RX5      0.041000
     35 H1        -24.1560   -7.9000 -102.2930 hc        1 RX5      0.066000
     36 H1A       -25.3300   -7.4140 -100.9970 hc        1 RX5      0.066000
     37 H1B       -23.8480   -6.4100 -101.3030 hc        1 RX5      0.066000
     38 HN1       -25.1980   -6.4310 -102.5170 hc        1 RX5      0.066000
     39 H2        786.5270    0.0800   50.8960 hn        1 RX5      0.293000
     40 HN2      -239.3560  193.5000 -615.0010 hn        1 RX5      0.280000
     41 H3        788.1020    0.0290   52.4300 h4        1 RX5      0.213500
     42 H3A      -238.0360  195.7360 -616.4920 ha        1 RX5      0.138000
     43 HN4       -25.1940 -973.7510  452.5980 hn        1 RX5      0.284500
     44 H5       -240.0420  190.1430 -616.4870 h1        1 RX5      0.138500
     45 H5A      -240.4920  191.8790 -616.2040 h1        1 RX5      0.138500
     46 H6       -240.7520  190.5420 -614.1490 hc        1 RX5      0.113667
     47 H7       -235.5600  188.7660 -616.5200 hc        1 RX5      0.112000
     48 H7A      -239.0260  189.9870 -614.1930 hc        1 RX5      0.113667
     49 H8       -235.9930  188.8140 -618.2840 hc        1 RX5      0.112000
     50 H8A      -236.4840  187.3980 -617.2650 hc        1 RX5      0.112000
     51 H9       -238.4480  188.8700 -617.6810 hc        1 RX5      0.153500
     52 H9A      -238.0210  188.8150 -615.9200 hc        1 RX5      0.153500
     53 H10      -239.4110  191.7270 -613.8680 hc        1 RX5      0.113667
     54 H11      -106.5210  365.7050   82.9640 hc        1 RX5      0.092000
     55 H11A     -107.6420  366.1930   81.6180 hc        1 RX5      0.092000
     56 H12      -107.7080  364.5050   82.2880 hc        1 RX5      0.092000
     57 H13       791.8190    0.9760   52.0470 h4        1 RX5      0.107500
     58 H13A      786.1950    0.2590   52.4560 h4        1 RX5      0.213500
     59 H15      -110.8610  364.8070   85.9950 hc        1 RX5      0.078000
     60 H15A      791.8570    0.4270   50.8300 h4        1 RX5      0.107500
     61 H16      -111.9040  365.4480   84.6610 hc        1 RX5      0.078000
     62 H16A     -112.0700  366.1140   86.3390 hc        1 RX5      0.078000
     63 H17      -110.8200  367.7130   84.8990 hc        1 RX5      0.095000
     64 H17A     -109.7750  367.0720   86.2340 hc        1 RX5      0.095000
     65 H18       -24.8240 -977.2380  454.7660 h4        1 RX5      0.136000
     66 H18A      -25.2120 -971.7690  451.1400 hx        1 RX5      0.209000
     67 H19       -22.1820 -972.1630  451.9780 ha        1 RX5      0.170500
     68 H19A      -22.8400 -971.2640  450.4860 ha        1 RX5      0.170500
     69 H22       -25.7780 -977.8760  457.1020 ha        1 RX5      0.175000
     70 H24       -29.1360 -975.1620  457.3780 ha        1 RX5      0.221000
     71 H25       -25.2620 -974.5010  458.0680 ha        1 RX5      0.143500
     72 H26       -24.4180 -973.9320  456.5070 ha        1 RX5      0.143500
     73 H27       -25.2640 -970.7600  456.6560 h1        1 RX5      0.134000
     74 H27A      -26.6190 -971.9970  456.3520 h1        1 RX5      0.134000
     75 H27B      -26.6130 -970.3810  455.4440 h1        1 RX5      0.134000
     76 N2       -238.7800  193.9080 -615.7170 n         1 RX5     -0.167000
     77 H121      788.2260    0.8420   50.9000 hn        1 RX5      0.293000
     78 H42       -23.9030 -973.1580  453.4700 hn        1 RX5      0.284500
     79 H221     -236.5920  191.0720 -617.3840 h4        1 RX5      0.219000
     80 C18       -23.0630 -971.8420  451.4010 c2        1 RX5     -0.107000
@<TRIPOS>BOND
     1    1   35 1   
     2    1   36 1   
     3    1   37 1   
     4    1   38 1   
     5    2    4 1   
     6    2   39 1   
     7    2   77 1   
     8    3    9 1   
     9    4   41 1   
    10    4   58 1   
    11    5   17 1   
    12    6   42 1   
    13    6   76 1   
    14    7    9 1   
    15    7   12 1   
    16    7   16 1   
    17    8   26 1   
    18    9   76 1   
    19   10   25 1   
    20   10   26 1   
    21   10   43 1   
    22   10   78 1   
    23   11   26 1   
    24   11   33 1   
    25   12   13 1   
    26   12   44 1   
    27   12   45 1   
    28   13   46 1   
    29   13   48 1   
    30   13   53 1   
    31   14   15 1   
    32   14   47 1   
    33   14   49 1   
    34   14   50 1   
    35   15   16 1   
    36   15   51 1   
    37   15   52 1   
    38   16   79 1   
    39   17   27 1   
    40   17   65 1   
    41   18   19 1   
    42   18   54 1   
    43   18   55 1   
    44   18   56 1   
    45   19   24 1   
    46   20   21 1   
    47   20   57 1   
    48   20   60 1   
    49   22   23 1   
    50   22   59 1   
    51   22   61 1   
    52   22   62 1   
    53   23   24 1   
    54   23   63 1   
    55   23   64 1   
    56   25   66 1   
    57   25   80 1   
    58   27   28 1   
    59   27   32 1   
    60   28   29 1   
    61   28   69 1   
    62   29   30 1   
    63   29   34 1   
    64   30   31 1   
    65   30   70 1   
    66   32   71 1   
    67   32   72 1   
    68   33   73 1   
    69   33   74 1   
    70   33   75 1   
    71   40   76 1   
    72   67   80 1   
    73   68   80 1   
@<TRIPOS>SUBSTRUCTURE
     1 RX5         1 TEMP              0 ****  ****    0 ROOT
