@<TRIPOS>MOLECULE
RX5
   77    77     1     0     0
SMALL
bcc


@<TRIPOS>ATOM
      1 C1          3.0070    2.4580   -4.2010 c3        1 RX5     -0.124000
      2 N1          3.8150    1.4900   -3.5670 n3        1 RX5     -0.302000
      3 O1          0.3170   -1.6720   -0.5380 o         1 RX5     -0.424000
      4 C2          3.0590    0.3380   -3.3230 c3        1 RX5     -0.037000
      5 N2          1.2130    0.1700   -1.6830 n         1 RX5     -0.351000
      6 O2         -2.4320   -1.0140    1.0430 os        1 RX5     -0.281000
      7 C3          2.6760    0.2790   -1.8150 c3        1 RX5     -0.037000
      8 N3          0.5690    0.2480    0.7500 n         1 RX5     -0.296000
      9 O3         -7.4930   -3.3500    2.6420 o         1 RX5     -0.399000
     10 C4          0.6260   -0.4710   -0.5000 c2        1 RX5      0.368000
     11 N4         -5.7790   -2.6020    1.2850 n         1 RX5     -0.321000
     12 O4         -6.5620   -1.3720    3.2520 os        1 RX5     -0.275000
     13 C5          0.1220   -0.4360    2.1180 c3        1 RX5     -0.037000
     14 C6         -1.1850    0.5000    2.3750 c3        1 RX5     -0.128000
     15 C7         -0.8490    1.9360    2.5280 c3        1 RX5     -0.156000
     16 C8          0.3990    2.2180    2.0120 c3        1 RX5     -0.172000
     17 C9          0.9210    1.6650    0.8640 c3        1 RX5     -0.040000
     18 C10        -2.1260    0.3510    1.2260 c3        1 RX5      0.068000
     19 C11         3.8780   -0.8970   -3.6950 c3        1 RX5     -0.192000
     20 C12         5.4160   -0.8680   -2.8220 c3        1 RX5     -0.139000
     21 C13         6.4310   -0.6970   -3.8290 c3        1 RX5     -0.019000
     22 O14         7.7520   -1.0760   -3.3270 os        1 RX5     -0.280000
     23 C15         7.8510   -1.1040   -1.6940 c3        1 RX5     -0.020000
     24 C16         6.7120   -2.3000   -1.4460 c3        1 RX5     -0.191000
     25 C17         5.3600   -1.9230   -1.9240 c3        1 RX5     -0.155000
     26 C18        -3.8190   -1.2650    0.6780 c3        1 RX5     -0.065000
     27 C19        -4.3490   -2.4800    1.4780 c3        1 RX5     -0.038000
     28 C20        -6.6700   -2.4700    2.4050 c2        1 RX5      0.373000
     29 C21        -3.4000    1.1200    1.5240 c2        1 RX5     -0.092000
     30 C22        -4.0400    0.9570    2.7650 c2        1 RX5     -0.099000
     31 C23        -5.1710    1.7030    3.0690 c1        1 RX5     -0.065000
     32 C24        -5.6730    2.6120    2.1460 c1        1 RX5     -0.124000
     33 C25        -5.0360    2.7760    0.9070 c1        1 RX5     -0.124000
     34 C26        -3.8980    2.0250    0.6020 c1        1 RX5     -0.124000
     35 C27        -7.4590   -1.3900    4.3110 c3        1 RX5     -0.053000
     36 CL2        -5.8700    1.6030    4.6480 cl        1 RX5     -0.018000
     37 H1          2.4680    2.9190   -3.5320 h1        1 RX5      0.073000
     38 H1A         2.4190    2.0200   -4.8480 h1        1 RX5      0.073000
     39 H1B         3.5750    3.1050   -4.6640 h1        1 RX5      0.073000
     40 HN1         4.5280    1.2800   -4.1110 hn        1 RX5      0.161000
     41 H2          2.2340    0.3640   -3.8730 h1        1 RX5      0.102000
     42 HN2         0.6850    0.4590   -2.3400 hn        1 RX5      0.224000
     43 H3          2.9860    1.1020   -1.3650 h1        1 RX5      0.095500
     44 H3A         3.0930   -0.4860   -1.4070 h1        1 RX5      0.095500
     45 HN4        -6.1140   -2.7730    0.4520 hn        1 RX5      0.233000
     46 H5          0.7900   -0.3220    2.8130 h1        1 RX5      0.111500
     47 H5A        -0.1220   -1.3730    1.9930 h1        1 RX5      0.111500
     48 H6         -1.6250    0.2000    3.1730 hc        1 RX5      0.111000
     49 H7         -1.5320    2.4830    2.0490 hc        1 RX5      0.091000
     50 H7A        -0.8630    2.1720    3.4940 hc        1 RX5      0.091000
     51 H8          1.0280    2.0200    2.7130 hc        1 RX5      0.092000
     52 H8A         0.4200    3.1950    1.8750 hc        1 RX5      0.092000
     53 H9          1.9170    1.7570    0.8810 h1        1 RX5      0.088500
     54 H9A         0.5720    2.1420    0.0950 h1        1 RX5      0.088500
     55 H10        -1.7080    0.7090    0.4070 h1        1 RX5      0.114000
     56 H11         3.3810   -1.7040   -3.4550 hc        1 RX5      0.091000
     57 H11A        4.0550   -0.8950   -4.6880 hc        1 RX5      0.091000
     58 H12         5.4240   -0.0530   -2.2850 hc        1 RX5      0.099000
     59 H13         6.4530    0.2570   -4.1100 h1        1 RX5      0.083500
     60 H13A        6.2090   -1.2560   -4.6050 h1        1 RX5      0.083500
     61 H15         8.7330   -1.3770   -1.3900 h1        1 RX5      0.084500
     62 H15A        7.5720   -0.2470   -1.2980 h1        1 RX5      0.084500
     63 H16         6.6620   -2.4950   -0.4680 hc        1 RX5      0.093000
     64 H16A        7.0010   -3.1180   -1.9190 hc        1 RX5      0.093000
     65 H17         4.9470   -2.6990   -2.3680 hc        1 RX5      0.087500
     66 H17A        4.8060   -1.6620   -1.1520 hc        1 RX5      0.087500
     67 H18        -4.3640   -0.4710    0.8870 h1        1 RX5      0.092000
     68 H18A       -3.8750   -1.4560   -0.2810 h1        1 RX5      0.092000
     69 H19        -3.9030   -3.3020    1.1610 h1        1 RX5      0.116000
     70 H19A       -4.1590   -2.3520    2.4240 h1        1 RX5      0.116000
     71 H22        -3.6860    0.3150    3.4190 ha        1 RX5      0.160000
     72 H24        -6.4530    3.1260    2.3560 ha        1 RX5      0.141500
     73 H25        -5.3820    3.4020    0.2700 ha        1 RX5      0.141500
     74 H26        -3.4640    2.1360   -0.2390 ha        1 RX5      0.136000
     75 H27        -7.9500   -0.5390    4.3390 h1        1 RX5      0.091667
     76 H27A       -8.0950   -2.1330    4.1880 h1        1 RX5      0.091667
     77 H27B       -6.9730   -1.5120    5.1470 h1        1 RX5      0.091667
@<TRIPOS>BOND
     1    1    2 1   
     2    1   37 1   
     3    1   38 1   
     4    1   39 1   
     5    2    4 1   
     6    2   40 1   
     7    3   10 1   
     8    4    7 1   
     9    4   19 1   
    10    4   41 1   
    11    5    7 1   
    12    5   10 1   
    13    5   42 1   
    14    6   18 1   
    15    6   26 1   
    16    7   43 1   
    17    7   44 1   
    18    8   10 1   
    19    8   13 1   
    20    8   17 1   
    21    9   28 1   
    22   11   27 1   
    23   11   28 1   
    24   11   45 1   
    25   12   28 1   
    26   12   35 1   
    27   13   14 1   
    28   13   46 1   
    29   13   47 1   
    30   14   15 1   
    31   14   18 1   
    32   14   48 1   
    33   15   16 1   
    34   15   49 1   
    35   15   50 1   
    36   16   17 1   
    37   16   51 1   
    38   16   52 1   
    39   17   53 1   
    40   17   54 1   
    41   18   29 1   
    42   18   55 1   
    43   19   20 1   
    44   19   56 1   
    45   19   57 1   
    46   20   21 1   
    47   20   25 1   
    48   20   58 1   
    49   21   22 1   
    50   21   59 1   
    51   21   60 1   
    52   22   23 1   
    53   23   24 1   
    54   23   61 1   
    55   23   62 1   
    56   24   25 1   
    57   24   63 1   
    58   24   64 1   
    59   25   65 1   
    60   25   66 1   
    61   26   27 1   
    62   26   67 1   
    63   26   68 1   
    64   27   69 1   
    65   27   70 1   
    66   29   30 1   
    67   29   34 1   
    68   30   31 1   
    69   30   71 1   
    70   31   36 1   
    71   32   33 1   
    72   32   72 1   
    73   33   73 1   
    74   34   74 1   
    75   35   75 1   
    76   35   76 1   
    77   35   77 1   
@<TRIPOS>SUBSTRUCTURE
     1 RX5         1 TEMP              0 ****  ****    0 ROOT
