@<TRIPOS>MOLECULE
RX5
   77    79     1     0     0
SMALL
bcc


@<TRIPOS>ATOM
      1 C1         -5.0770    1.9760    1.3230 c3        1 RX5      0.146100
      2 N1         -5.2120    0.5520    1.4760 n3        1 RX5     -0.816200
      3 O1         -1.0280    0.3760   -0.4920 o         1 RX5     -0.627100
      4 C2         -5.0990   -0.2380    0.2630 c3        1 RX5      0.172500
      5 O2          3.7570   -0.7950    1.3510 os        1 RX5     -0.432600
      6 C3         -3.6720   -0.2990   -0.3590 c3        1 RX5      0.035000
      7 N3         -0.3220   -1.3080    0.9650 n         1 RX5     -0.417800
      8 O3          7.6890   -2.5840   -0.6390 o         1 RX5     -0.582000
      9 C4         -1.3360   -0.5310    0.3180 c         1 RX5      0.725100
     10 N4          5.5160   -2.8530    0.2610 n         1 RX5     -0.503900
     11 O4          5.9880   -3.2440   -1.9660 os        1 RX5     -0.445900
     12 C5          1.0460   -0.8930    0.6890 c3        1 RX5      0.069000
     13 C6          1.5960    0.1750    1.6470 c3        1 RX5     -0.085700
     14 C7          1.4150   -0.2650    3.0910 c3        1 RX5     -0.078400
     15 C8         -0.0200   -0.6600    3.3690 c3        1 RX5     -0.108400
     16 C9         -0.5080   -1.6950    2.3530 c3        1 RX5      0.066000
     17 C10         3.0770    0.4640    1.3630 c3        1 RX5      0.196400
     18 C11        -6.0440    0.1980   -0.8660 c3        1 RX5     -0.068400
     19 C12        -7.5140    0.1160   -0.4960 c3        1 RX5     -0.097700
     20 C13        -7.9720   -1.3370   -0.3820 c3        1 RX5      0.132400
     21 O14        -9.3650   -1.4390   -0.1120 os        1 RX5     -0.414600
     22 C15       -10.1750   -0.8070   -1.0970 c3        1 RX5      0.126400
     23 C16        -9.8280    0.6630   -1.2540 c3        1 RX5     -0.111400
     24 C17        -8.3530    0.8350   -1.5460 c3        1 RX5     -0.077400
     25 C19         5.7460   -2.0900    1.4600 c3        1 RX5      0.078000
     26 C20         6.4780   -2.8400   -0.7380 c         1 RX5      0.715100
     27 C21         3.2570    1.2130    0.0730 ca        1 RX5     -0.112300
     28 C22         3.1990    2.6110    0.0870 ca        1 RX5     -0.115000
     29 C23         3.3530    3.3200   -1.1070 ca        1 RX5      0.019400
     30 C24         3.5640    2.6490   -2.3160 ca        1 RX5     -0.117000
     31 C25         3.6210    1.2560   -2.3210 ca        1 RX5     -0.118000
     32 C26         3.4670    0.5400   -1.1350 ca        1 RX5     -0.111000
     33 C27         6.9750   -3.4410   -2.9800 c3        1 RX5      0.137700
     34 CL2         3.2830    5.0200   -1.0870 cl        1 RX5     -0.094400
     35 H1         -4.1400    2.2940    0.7880 h1        1 RX5      0.032367
     36 H1A        -5.9590    2.3680    0.7500 h1        1 RX5      0.032367
     37 H1B        -5.0800    2.4470    2.3420 h1        1 RX5      0.032367
     38 HN1        -4.5570    0.2130    2.1560 hn        1 RX5      0.366800
     39 H2         -5.3910   -1.2910    0.5660 h1        1 RX5      0.051700
     40 HN2        -2.9090   -1.7170    0.9360 hn        1 RX5      0.295500
     41 H3         -3.7230   -0.9380   -1.2880 h1        1 RX5      0.059700
     42 H3A        -3.3560    0.7360   -0.6750 h1        1 RX5      0.059700
     43 HN4         4.5670   -2.8950   -0.0470 hn        1 RX5      0.319500
     44 H5          1.6820   -1.8210    0.7750 h1        1 RX5      0.078200
     45 H5A         1.1160   -0.5050   -0.3660 h1        1 RX5      0.078200
     46 H6          1.0340    1.1360    1.4760 hc        1 RX5      0.075700
     47 H7          2.0930   -1.1360    3.2940 hc        1 RX5      0.048700
     48 H7A         1.7160    0.5660    3.7800 hc        1 RX5      0.048700
     49 H8         -0.1010   -1.1010    4.3950 hc        1 RX5      0.051700
     50 H8A        -0.6780    0.2470    3.3350 hc        1 RX5      0.051700
     51 H9         -1.5820   -1.9390    2.5690 h1        1 RX5      0.054700
     52 H9A         0.0880   -2.6440    2.4950 h1        1 RX5      0.054700
     53 H10         3.4880    1.0900    2.2100 h1        1 RX5      0.047700
     54 H11        -5.7980    1.2490   -1.1740 hc        1 RX5      0.046200
     55 H11A       -5.8520   -0.4630   -1.7530 hc        1 RX5      0.046200
     56 H12        -7.6860    0.6160    0.4970 hc        1 RX5      0.082700
     57 H13        -7.7310   -1.8990   -1.3230 h1        1 RX5      0.044700
     58 H13A       -7.4940   -1.8410    0.4990 h1        1 RX5      0.044700
     59 H15       -10.0590   -1.3440   -2.0760 h1        1 RX5      0.045200
     60 H15A      -11.2200   -0.9400   -0.7120 h1        1 RX5      0.045200
     61 H16       -10.4380    1.1010   -2.0850 hc        1 RX5      0.050200
     62 H16A      -10.0890    1.2090   -0.3100 hc        1 RX5      0.050200
     63 H17        -8.0910    1.9250   -1.5550 hc        1 RX5      0.041200
     64 H17A       -8.1170    0.4220   -2.5620 hc        1 RX5      0.041200
     65 H18         5.5620   -0.0640    0.5900 h1        1 RX5      0.046700
     66 H18A        5.4430   -0.1550    2.4160 h1        1 RX5      0.046700
     67 H19         5.2640   -2.6640    2.3030 h1        1 RX5      0.080200
     68 H19A        6.8560   -2.0180    1.6480 h1        1 RX5      0.080200
     69 H22         3.0280    3.1480    1.0330 ha        1 RX5      0.145000
     70 H24         3.6820    3.2130   -3.2530 ha        1 RX5      0.148000
     71 H25         3.7830    0.7210   -3.2680 ha        1 RX5      0.140000
     72 H26         3.5080   -0.5600   -1.1380 ha        1 RX5      0.143000
     73 H27         6.3750   -3.7750   -3.8620 h1        1 RX5      0.052367
     74 H27A        7.5090   -2.4820   -3.1840 h1        1 RX5      0.052367
     75 H27B        7.7040   -4.2240   -2.6580 h1        1 RX5      0.052367
     76 N2         -2.6910   -0.8210    0.5600 n         1 RX5     -0.544900
     77 C18         5.1740   -0.6660    1.4530 c3        1 RX5      0.087400
@<TRIPOS>BOND
     1    1    2 1   
     2    1   35 1   
     3    1   36 1   
     4    1   37 1   
     5    2    4 1   
     6    2   38 1   
     7    3    9 2   
     8    4    6 1   
     9    4   18 1   
    10    4   39 1   
    11    5   17 1   
    12    5   77 1   
    13    6   41 1   
    14    6   42 1   
    15    6   76 1   
    16    7    9 1   
    17    7   12 1   
    18    7   16 1   
    19    8   26 2   
    20    9   76 1   
    21   10   25 1   
    22   10   26 1   
    23   10   43 1   
    24   11   26 1   
    25   11   33 1   
    26   12   13 1   
    27   12   44 1   
    28   12   45 1   
    29   13   14 1   
    30   13   17 1   
    31   13   46 1   
    32   14   15 1   
    33   14   47 1   
    34   14   48 1   
    35   15   16 1   
    36   15   49 1   
    37   15   50 1   
    38   16   51 1   
    39   16   52 1   
    40   17   27 1   
    41   17   53 1   
    42   18   19 1   
    43   18   54 1   
    44   18   55 1   
    45   19   20 1   
    46   19   24 1   
    47   19   56 1   
    48   20   21 1   
    49   20   57 1   
    50   20   58 1   
    51   21   22 1   
    52   22   23 1   
    53   22   59 1   
    54   22   60 1   
    55   23   24 1   
    56   23   61 1   
    57   23   62 1   
    58   24   63 1   
    59   24   64 1   
    60   25   67 1   
    61   25   68 1   
    62   25   77 1   
    63   27   28 ar  
    64   27   32 ar  
    65   28   29 ar  
    66   28   69 1   
    67   29   30 ar  
    68   29   34 1   
    69   30   31 ar  
    70   30   70 1   
    71   31   32 ar  
    72   31   71 1   
    73   32   72 1   
    74   33   73 1   
    75   33   74 1   
    76   33   75 1   
    77   40   76 1   
    78   65   77 1   
    79   66   77 1   
@<TRIPOS>SUBSTRUCTURE
     1 RX5         1 TEMP              0 ****  ****    0 ROOT
