@<TRIPOS>MOLECULE
RX6
   77    79     1     0     0
SMALL
bcc


@<TRIPOS>ATOM
      1 C1         -2.5510   -0.6770    1.1710 c3        1 RX6      0.196400
      2 N1         -3.9890    3.3290    0.9130 n         1 RX6     -0.503900
      3 O1          5.4490    2.2530   -2.4170 os        1 RX6     -0.411600
      4 C2         -4.8860    5.0830   -2.1030 c3        1 RX6      0.137700
      5 O2         -4.0970    4.3850   -1.1390 os        1 RX6     -0.444900
      6 C3         -2.7570   -1.0020   -0.2810 ca        1 RX6     -0.112300
      7 O3         -2.9070    0.6760    1.4740 os        1 RX6     -0.432600
      8 C4         -3.0440   -2.3210   -0.6460 ca        1 RX6     -0.115000
      9 C5         -2.6550   -0.0160   -1.2670 ca        1 RX6     -0.111000
     10 C6         -3.2270   -2.6400   -1.9940 ca        1 RX6      0.019400
     11 C7         -2.8390   -0.3430   -2.6100 ca        1 RX6     -0.118000
     12 C8         -3.1250   -1.6550   -2.9820 ca        1 RX6     -0.116000
     13 C9         -4.8060    3.8230   -0.0940 c         1 RX6      0.715100
     14 CL28       -3.5770   -4.2450   -2.4360 cl        1 RX6     -0.094400
     15 C32         4.3390   -1.3020    0.0250 c3        1 RX6      0.058700
     16 C33         4.5930   -2.8240    0.2390 c3        1 RX6      0.169800
     17 C34         5.7020   -0.5960    0.0480 c3        1 RX6     -0.090400
     18 N35         3.4370   -3.6820    0.2030 n3        1 RX6     -0.830200
     19 O35        -6.0470    3.8750   -0.1240 o         1 RX6     -0.582000
     20 C36         5.6540    0.8420   -0.4330 c3        1 RX6     -0.103700
     21 C37         6.9510    1.5570   -0.0720 c3        1 RX6     -0.076400
     22 C38         6.9600    2.9600   -0.6410 c3        1 RX6     -0.112400
     23 C39         6.6640    2.9370   -2.1310 c3        1 RX6      0.125400
     24 C40         5.4380    0.9120   -1.9450 c3        1 RX6      0.128400
     25 N42         3.4090   -0.7650    1.0020 n         1 RX6     -0.544900
     26 O44         1.6210   -1.2700   -0.3500 o         1 RX6     -0.640100
     27 N45         1.1950    0.1970    1.4240 n         1 RX6     -0.413800
     28 C46         0.4780   -0.9280    3.5470 c3        1 RX6     -0.109400
     29 C47        -0.9690   -0.8590    3.1070 c3        1 RX6     -0.078400
     30 C48        -1.0850   -0.8620    1.5900 c3        1 RX6     -0.085700
     31 C49        -0.1920    0.2300    0.9810 c3        1 RX6      0.068000
     32 C50         1.3060    0.1690    2.8730 c3        1 RX6      0.064000
     33 C51         2.8770   -4.0380    1.4780 c3        1 RX6      0.162100
     34 CT2        -4.3160    0.8980    1.4680 c3        1 RX6      0.088400
     35 CT3        -4.5310    2.3710    1.8420 c3        1 RX6      0.078000
     36 H1         -3.1910   -1.3680    1.7960 h1        1 RX6      0.047700
     37 HN1        -3.0290    3.1990    0.6710 hn        1 RX6      0.320500
     38 H2         -5.4390    5.9200   -1.6130 h1        1 RX6      0.052700
     39 H2A        -4.1270    5.4620   -2.8310 h1        1 RX6      0.052700
     40 H2B        -5.6060    4.3800   -2.5880 h1        1 RX6      0.052700
     41 H4         -3.1210   -3.1040    0.1240 ha        1 RX6      0.145000
     42 H5         -2.4250    1.0200   -0.9710 ha        1 RX6      0.144000
     43 H7         -2.7530    0.4370   -3.3810 ha        1 RX6      0.141000
     44 H8         -3.2670   -1.9130   -4.0430 ha        1 RX6      0.149000
     45 H32         3.8880   -1.1780   -1.0080 h1        1 RX6      0.076700
     46 H33         5.2610   -3.1520   -0.6100 h1        1 RX6      0.047200
     47 H33A        5.1580   -2.9690    1.2010 h1        1 RX6      0.047200
     48 H34         6.1260   -0.6240    1.0870 hc        1 RX6      0.053200
     49 H34A        6.4000   -1.1800   -0.6080 hc        1 RX6      0.053200
     50 HN35        2.7300   -3.3020   -0.4030 hn        1 RX6      0.389800
     51 H36         4.8040    1.3890    0.0630 hc        1 RX6      0.061700
     52 H37         7.0630    1.5980    1.0420 hc        1 RX6      0.042700
     53 H37A        7.8210    0.9770   -0.4790 hc        1 RX6      0.042700
     54 H38         6.1860    3.5810   -0.1190 hc        1 RX6      0.051200
     55 H38A        7.9580    3.4380   -0.4680 hc        1 RX6      0.051200
     56 H39         7.5070    2.4510   -2.6910 h1        1 RX6      0.047200
     57 H39A        6.4910    3.9720   -2.5280 h1        1 RX6      0.047200
     58 H40         4.4190    0.5370   -2.2280 h1        1 RX6      0.052200
     59 H40A        6.2270    0.3170   -2.4780 h1        1 RX6      0.052200
     60 HN42        3.7890   -0.1010    1.6370 hn        1 RX6      0.302500
     61 H46         0.5440   -0.7950    4.6570 hc        1 RX6      0.051700
     62 H46A        0.9060   -1.9340    3.2980 hc        1 RX6      0.051700
     63 H47        -1.5320   -1.7310    3.5310 hc        1 RX6      0.048700
     64 H47A       -1.4420    0.0770    3.5060 hc        1 RX6      0.048700
     65 H48        -0.7520   -1.8620    1.1920 hc        1 RX6      0.076700
     66 H49        -0.5960    1.2400    1.2800 h1        1 RX6      0.078700
     67 H49A       -0.2290    0.1450   -0.1420 h1        1 RX6      0.078700
     68 H50         2.3760    0.0700    3.1970 h1        1 RX6      0.055200
     69 H50A        0.9350    1.1730    3.2340 h1        1 RX6      0.055200
     70 H51         2.4280   -3.1760    2.0440 h1        1 RX6      0.023700
     71 H51A        2.0700   -4.7990    1.3030 h1        1 RX6      0.023700
     72 H51B        3.6720   -4.5000    2.1210 h1        1 RX6      0.023700
     73 HT2        -4.7320    0.6590    0.4540 h1        1 RX6      0.047200
     74 HT2A       -4.8080    0.2460    2.2380 h1        1 RX6      0.047200
     75 HT3        -4.0270    2.5650    2.8320 h1        1 RX6      0.079700
     76 HT3A       -5.6390    2.5430    1.9500 h1        1 RX6      0.079700
     77 C43         2.0550   -0.6540    0.6550 c         1 RX6      0.727100
@<TRIPOS>BOND
     1    1    6 1   
     2    1    7 1   
     3    1   30 1   
     4    1   36 1   
     5    2   13 1   
     6    2   35 1   
     7    2   37 1   
     8    3   23 1   
     9    3   24 1   
    10    4    5 1   
    11    4   38 1   
    12    4   39 1   
    13    4   40 1   
    14    5   13 1   
    15    6    8 ar  
    16    6    9 ar  
    17    7   34 1   
    18    8   10 ar  
    19    8   41 1   
    20    9   11 ar  
    21    9   42 1   
    22   10   12 ar  
    23   10   14 1   
    24   11   12 ar  
    25   11   43 1   
    26   12   44 1   
    27   13   19 2   
    28   15   16 1   
    29   15   17 1   
    30   15   25 1   
    31   15   45 1   
    32   16   18 1   
    33   16   46 1   
    34   16   47 1   
    35   17   20 1   
    36   17   48 1   
    37   17   49 1   
    38   18   33 1   
    39   18   50 1   
    40   20   21 1   
    41   20   24 1   
    42   20   51 1   
    43   21   22 1   
    44   21   52 1   
    45   21   53 1   
    46   22   23 1   
    47   22   54 1   
    48   22   55 1   
    49   23   56 1   
    50   23   57 1   
    51   24   58 1   
    52   24   59 1   
    53   25   60 1   
    54   25   77 1   
    55   26   77 2   
    56   27   31 1   
    57   27   32 1   
    58   27   77 1   
    59   28   29 1   
    60   28   32 1   
    61   28   61 1   
    62   28   62 1   
    63   29   30 1   
    64   29   63 1   
    65   29   64 1   
    66   30   31 1   
    67   30   65 1   
    68   31   66 1   
    69   31   67 1   
    70   32   68 1   
    71   32   69 1   
    72   33   70 1   
    73   33   71 1   
    74   33   72 1   
    75   34   35 1   
    76   34   73 1   
    77   34   74 1   
    78   35   75 1   
    79   35   76 1   
@<TRIPOS>SUBSTRUCTURE
     1 RX6         1 TEMP              0 ****  ****    0 ROOT
