@<TRIPOS>MOLECULE
RX6
   77    76     1     0     0
SMALL
bcc


@<TRIPOS>ATOM
      1 C1          1.7290    0.4140    0.3940 c3        1 RX6      0.139100
      2 N1          2.1210   -1.4090    3.5090 n         1 RX6     -0.466100
      3 O1          1.1410   10.2640   -1.3230 os        1 RX6     -0.414600
      4 C2         -0.6800   -0.5410    5.6330 c3        1 RX6      0.137700
      5 O2          0.2020   -0.1050    3.2420 o         1 RX6     -0.608000
      6 C3          0.5990   -0.3420   -0.3090 c3        1 RX6     -0.110200
      7 O3          2.8380   -0.4450    0.6120 oh        1 RX6     -0.620800
      8 C4         -0.8080   -0.1470   -3.4320 c1        1 RX6      0.189200
      9 C5         -0.7210    0.2440    0.0120 c2        1 RX6     -0.055200
     10 C6         -2.1680    0.3030   -3.4950 ce        1 RX6     -0.189700
     11 C7         -1.6930    0.4940   -0.8840 ce        1 RX6     -0.156000
     12 C8         -1.5680    0.2610   -2.2700 ce        1 RX6     -0.179100
     13 C9          0.9380   -0.8400    3.9270 c         1 RX6      0.745100
     14 CL28       -3.5130    0.6450   -4.3380 cl        1 RX6      0.026600
     15 C32         3.6850    6.4770   -1.4230 c1        1 RX6     -0.101100
     16 C33        -3.2860    5.2070    0.0970 c2        1 RX6      0.411100
     17 C34         3.9210    7.8030   -2.0310 c3        1 RX6     -0.141300
     18 N35        -2.4760    4.3830    0.6370 n2        1 RX6     -0.596900
     19 O35         0.5540   -1.1350    5.2200 os        1 RX6     -0.434900
     20 C36         3.2460    9.0320   -1.4470 c3        1 RX6     -0.124700
     21 C37         3.9430   10.2950   -1.9390 c3        1 RX6     -0.073400
     22 C38         3.2210   11.5290   -1.4410 c3        1 RX6     -0.113400
     23 C39         1.7440   11.4660   -1.7900 c3        1 RX6      0.126400
     24 C40         1.7680    9.0910   -1.8280 c3        1 RX6      0.127400
     25 N42         2.9000    6.2670   -0.3920 n         1 RX6     -0.363500
     26 O44         1.7760    5.0180    1.1210 o         1 RX6     -0.633100
     27 N45         3.3860    3.8330   -0.0540 n         1 RX6     -0.396800
     28 C46         3.3440    2.7110   -2.2820 c3        1 RX6     -0.100400
     29 C47         2.9140    1.4150   -1.6290 c3        1 RX6     -0.086400
     30 C48         2.1150    1.6870   -0.3650 c3        1 RX6     -0.118700
     31 C49         2.9190    2.6030    0.5740 c3        1 RX6      0.073000
     32 C50         4.1000    3.6040   -1.2960 c3        1 RX6      0.045000
     33 C51        -1.5650    4.7780    1.6630 c3        1 RX6      0.071100
     34 CT2         4.1030   -2.7240    3.9470 c2        1 RX6     -0.298000
     35 CT3         2.9240   -2.2080    4.3260 c2        1 RX6     -0.013400
     36 H1          1.4020    0.6880    1.4440 h1        1 RX6      0.102700
     37 HN1         2.4250   -1.1810    2.5830 hn        1 RX6      0.360500
     38 H2         -0.6060    0.5710    5.5800 h1        1 RX6      0.054700
     39 H2A        -1.5140   -0.9030    4.9850 h1        1 RX6      0.054700
     40 H2B        -0.7920   -0.8980    6.6870 h1        1 RX6      0.054700
     41 H4          0.6080   -1.4070    0.0580 hc        1 RX6      0.075200
     42 H5          0.7790   -0.3670   -1.4180 hc        1 RX6      0.075200
     43 H7         -0.8890    0.4600    1.0860 ha        1 RX6      0.161000
     44 H8         -2.6550    0.9220   -0.5450 ha        1 RX6      0.148000
     45 H32         0.2010    6.8690    0.9660 ha        1 RX6      0.001500
     46 H33         0.2570    7.4780    0.6710 ha        1 RX6      0.001500
     47 H33A       -3.3930    6.2820    0.3370 h4        1 RX6     -0.023200
     48 H34         5.0390    7.9450   -1.9950 hc        1 RX6      0.086200
     49 H34A        3.6420    7.6980   -3.1180 hc        1 RX6      0.086200
     50 HN35       -3.9590    4.8280   -0.6930 h4        1 RX6     -0.023200
     51 H36         1.1840    8.2560   -1.3570 h1        1 RX6      0.047200
     52 H37         3.3230    9.0150   -0.3240 hc        1 RX6      0.058700
     53 H37A        3.9650   10.2950   -3.0610 hc        1 RX6      0.044200
     54 H38         5.0040   10.3050   -1.5800 hc        1 RX6      0.044200
     55 H38A        3.6710   12.4470   -1.8970 hc        1 RX6      0.052200
     56 H39         3.3350   11.6060   -0.3280 hc        1 RX6      0.052200
     57 H39A        1.1670   12.2760   -1.2710 h1        1 RX6      0.047700
     58 H40         1.6000   11.5480   -2.9010 h1        1 RX6      0.047700
     59 H40A        1.6530    9.0520   -2.9440 h1        1 RX6      0.047200
     60 HN42        2.3710    6.9920    0.0760 hn        1 RX6      0.287500
     61 H46         4.3630    4.5820   -1.8000 h1        1 RX6      0.091200
     62 H46A        2.4480    3.2520   -2.6820 hc        1 RX6      0.052700
     63 H47         4.0220    2.4940   -3.1470 hc        1 RX6      0.052700
     64 H47A        3.8280    0.8150   -1.3740 hc        1 RX6      0.048200
     65 H48         2.3000    0.8140   -2.3490 hc        1 RX6      0.048200
     66 H49         1.1560    2.2060   -0.6470 hc        1 RX6      0.073700
     67 H49A        2.2950    2.8470    1.4790 h1        1 RX6      0.077700
     68 H50         3.8390    2.0460    0.9130 h1        1 RX6      0.077700
     69 H50A        5.0620    3.0890   -1.0080 h1        1 RX6      0.091200
     70 H51        -1.7190    4.0980    2.5430 h1        1 RX6      0.053367
     71 H51A       -1.6710    5.8430    2.0090 h1        1 RX6      0.053367
     72 H51B       -0.5140    4.6340    1.2850 h1        1 RX6      0.053367
     73 HT2         3.1090   -0.8010   -0.2430 ho        1 RX6      0.408000
     74 HT2A        4.6800   -3.3510    4.6360 ha        1 RX6      0.126000
     75 HT3         4.5550   -2.5620    2.9610 ha        1 RX6      0.126000
     76 HT3A        2.5010   -2.3920    5.3340 h4        1 RX6      0.158000
     77 C43         2.6500    4.9850    0.2200 c         1 RX6      0.764100
@<TRIPOS>BOND
     1    1    6 1   
     2    1    7 1   
     3    1   30 1   
     4    1   36 1   
     5    2   13 1   
     6    2   35 1   
     7    2   37 1   
     8    3   23 1   
     9    3   24 1   
    10    4   19 1   
    11    4   38 1   
    12    4   39 1   
    13    4   40 1   
    14    5   13 2   
    15    6    9 1   
    16    6   41 1   
    17    6   42 1   
    18    7   73 1   
    19    8   10 2   
    20    8   12 2   
    21    9   11 2   
    22    9   43 1   
    23   10   12 1   
    24   10   14 1   
    25   11   12 1   
    26   11   44 1   
    27   13   19 1   
    28   15   17 1   
    29   15   25 3   
    30   16   18 2   
    31   16   47 1   
    32   16   50 1   
    33   17   20 1   
    34   17   48 1   
    35   17   49 1   
    36   18   33 1   
    37   20   21 1   
    38   20   24 1   
    39   20   52 1   
    40   21   22 1   
    41   21   53 1   
    42   21   54 1   
    43   22   23 1   
    44   22   55 1   
    45   22   56 1   
    46   23   57 1   
    47   23   58 1   
    48   24   51 1   
    49   24   59 1   
    50   25   60 1   
    51   25   77 1   
    52   26   77 2   
    53   27   31 1   
    54   27   32 1   
    55   27   77 1   
    56   28   29 1   
    57   28   32 1   
    58   28   62 1   
    59   28   63 1   
    60   29   30 1   
    61   29   64 1   
    62   29   65 1   
    63   30   31 1   
    64   30   66 1   
    65   31   67 1   
    66   31   68 1   
    67   32   61 1   
    68   32   69 1   
    69   33   70 1   
    70   33   71 1   
    71   33   72 1   
    72   34   35 2   
    73   34   74 1   
    74   34   75 1   
    75   35   76 1   
    76   45   46 1   
@<TRIPOS>SUBSTRUCTURE
     1 RX6         1 TEMP              0 ****  ****    0 ROOT
