@<TRIPOS>MOLECULE
RX8
   45    47     1     0     0
SMALL
bcc


@<TRIPOS>ATOM
      1 O1          2.3970    2.4690   -1.4070 oh        1 RX8     -0.599800
      2 C10         1.2410    2.6150   -0.5870 c3        1 RX8      0.141800
      3 C11         1.3810    3.8580    0.2880 c3        1 RX8     -0.108100
      4 C12         0.0710    2.7670   -1.5470 c3        1 RX8     -0.108100
      5 C9          1.1050    1.3940    0.3640 c3        1 RX8     -0.001700
      6 N3          0.6390    0.1740   -0.2230 na        1 RX8     -0.112300
      7 C5          1.4680   -0.7790   -0.8800 cc        1 RX8      0.346800
      8 C6          2.8930   -0.5060   -1.2770 c3        1 RX8      0.113100
      9 O           3.6800   -0.0420   -0.1940 os        1 RX8     -0.436600
     10 C7          4.0320   -1.0720    0.7360 c3        1 RX8      0.121400
     11 C8          4.7600   -0.4000    1.8760 c3        1 RX8     -0.099100
     12 N2          0.8030   -1.9200   -1.1680 nd        1 RX8     -0.547100
     13 C4         -0.4940   -1.7210   -0.6940 ca        1 RX8     -0.103900
     14 C          -1.6350   -2.6180   -0.7060 ca        1 RX8      0.734200
     15 N          -1.5290   -3.8270   -1.3740 nh        1 RX8     -0.942500
     16 C3         -0.6210   -0.4180   -0.1020 ca        1 RX8     -0.020200
     17 C2         -1.8720   -0.0050    0.4510 ca        1 RX8     -0.158300
     18 C13        -2.1450    1.2730    0.9830 ca        1 RX8     -0.107000
     19 C14        -3.3770    1.5700    1.5250 ca        1 RX8     -0.152000
     20 C15        -4.3920    0.5940    1.5450 ca        1 RX8     -0.113000
     21 C16        -4.1760   -0.6520    1.0080 ca        1 RX8     -0.184300
     22 C1         -2.9120   -0.9940    0.4270 ca        1 RX8      0.459600
     23 N1         -2.7890   -2.2550   -0.1210 nb        1 RX8     -0.772000
     24 H1          3.1520    2.3310   -0.8190 ho        1 RX8      0.411000
     25 H2          1.6430    4.7340   -0.3510 hc        1 RX8      0.050200
     26 H3          0.4200    4.0670    0.8140 hc        1 RX8      0.050200
     27 H4          2.1880    3.7170    1.0460 hc        1 RX8      0.050200
     28 H5          0.1010    1.9650   -2.3230 hc        1 RX8      0.050200
     29 H6         -0.8920    2.7060   -0.9890 hc        1 RX8      0.050200
     30 H7          0.1370    3.7550   -2.0630 hc        1 RX8      0.050200
     31 H8          2.1310    1.1940    0.8020 h1        1 RX8      0.076700
     32 H9          0.4240    1.6700    1.2170 h1        1 RX8      0.076700
     33 H10         3.3430   -1.4310   -1.7270 h1        1 RX8      0.088200
     34 H11         2.9170    0.3430   -2.0200 h1        1 RX8      0.088200
     35 H12         3.0990   -1.5850    1.0930 h1        1 RX8      0.038200
     36 H13         4.6880   -1.8220    0.2190 h1        1 RX8      0.038200
     37 H14         5.6750    0.1200    1.5030 hc        1 RX8      0.045367
     38 H15         4.1020    0.3560    2.3670 hc        1 RX8      0.045367
     39 H16         5.0570   -1.1690    2.6280 hc        1 RX8      0.045367
     40 H17        -2.2350   -4.5090   -1.2230 hn        1 RX8      0.428800
     41 H18        -0.6110   -4.1610   -1.5460 hn        1 RX8      0.428800
     42 H19        -1.3770    2.0590    0.9520 ha        1 RX8      0.124000
     43 H20        -3.5770    2.5680    1.9390 ha        1 RX8      0.131000
     44 H21        -5.3680    0.8430    1.9880 ha        1 RX8      0.133000
     45 H22        -4.9780   -1.4070    1.0120 ha        1 RX8      0.149000
@<TRIPOS>BOND
     1    1    2 1   
     2    1   24 1   
     3    2    3 1   
     4    2    4 1   
     5    2    5 1   
     6    3   25 1   
     7    3   26 1   
     8    3   27 1   
     9    4   28 1   
    10    4   29 1   
    11    4   30 1   
    12    5    6 1   
    13    5   31 1   
    14    5   32 1   
    15    6    7 1   
    16    6   16 1   
    17    7    8 1   
    18    7   12 2   
    19    8    9 1   
    20    8   33 1   
    21    8   34 1   
    22    9   10 1   
    23   10   11 1   
    24   10   35 1   
    25   10   36 1   
    26   11   37 1   
    27   11   38 1   
    28   11   39 1   
    29   12   13 1   
    30   13   14 ar  
    31   13   16 ar  
    32   14   15 1   
    33   14   23 ar  
    34   15   40 1   
    35   15   41 1   
    36   16   17 ar  
    37   17   18 ar  
    38   17   22 ar  
    39   18   19 ar  
    40   18   42 1   
    41   19   20 ar  
    42   19   43 1   
    43   20   21 ar  
    44   20   44 1   
    45   21   22 ar  
    46   21   45 1   
    47   22   23 ar  
@<TRIPOS>SUBSTRUCTURE
     1 RX8         1 TEMP              0 ****  ****    0 ROOT
