@<TRIPOS>MOLECULE
RX8
   45    47     1     0     0
SMALL
bcc


@<TRIPOS>ATOM
      1 O1          0.0120    0.5110    0.4990 oh        1 RX8     -0.608800
      2 C10         1.3480    0.2080    0.0900 c3        1 RX8      0.133800
      3 C11         2.2750    0.2540    1.3010 c3        1 RX8     -0.127600
      4 C12         1.3930   -1.1670   -0.5550 c3        1 RX8     -0.127600
      5 C9          1.7390    1.3730   -0.8620 c3        1 RX8      0.037300
      6 N3          1.3630    1.2260   -2.2340 na        1 RX8     -0.116300
      7 C5          0.1340    1.6910   -2.7820 cc        1 RX8      0.393800
      8 C6         -0.9260    2.3470   -1.9480 c3        1 RX8      0.113100
      9 O          -0.3950    3.5960   -1.5010 os        1 RX8     -0.427600
     10 C7         -1.3600    4.3510   -0.7670 c3        1 RX8      0.130400
     11 C8         -0.6830    5.6390   -0.3580 c3        1 RX8     -0.097100
     12 N2          0.0480    1.4660   -4.1110 nd        1 RX8     -0.543100
     13 C4          1.2440    0.8330   -4.4530 ca        1 RX8     -0.101900
     14 C           1.7140    0.3690   -5.7450 ca        1 RX8      0.731200
     15 N           0.8520    0.4290   -6.8310 nv        1 RX8     -0.938500
     16 C3          2.0830    0.6740   -3.2960 ca        1 RX8     -0.022200
     17 C2          3.3730    0.0730   -3.4250 ca        1 RX8     -0.157300
     18 C13         4.2720   -0.1550   -2.3620 ca        1 RX8     -0.109000
     19 C14         5.5080   -0.7210   -2.5860 ca        1 RX8     -0.152000
     20 C15         5.8890   -1.0890   -3.8910 ca        1 RX8     -0.115000
     21 C16         5.0350   -0.8960   -4.9500 ca        1 RX8     -0.183300
     22 C1          3.7410   -0.3120   -4.7570 ca        1 RX8      0.458600
     23 N1          2.9430   -0.1600   -5.8720 nb        1 RX8     -0.772000
     24 H1         -0.2820   -0.2150    1.0600 ho        1 RX8      0.405000
     25 H2          2.2670    1.2730    1.7540 hc        1 RX8      0.050700
     26 H3          1.9330   -0.4790    2.0700 hc        1 RX8      0.050700
     27 H4          3.3170   -0.0050    0.9960 hc        1 RX8      0.050700
     28 H5          0.5470   -1.2870   -1.2750 hc        1 RX8      0.050700
     29 H6          1.3030   -1.9590    0.2280 hc        1 RX8      0.050700
     30 H7          2.3550   -1.3120   -1.1030 hc        1 RX8      0.050700
     31 H8          2.8520    1.5300   -0.8040 h1        1 RX8      0.088200
     32 H9          1.2320    2.3060   -0.4660 h1        1 RX8      0.088200
     33 H10        -1.8500    2.5210   -2.5630 h1        1 RX8      0.066200
     34 H11        -1.1690    1.7020   -1.0570 h1        1 RX8      0.066200
     35 H12        -2.2510    4.5530   -1.4190 h1        1 RX8      0.029700
     36 H13        -1.6890    3.7620    0.1310 h1        1 RX8      0.029700
     37 H14        -0.3340    6.1980   -1.2590 hc        1 RX8      0.046367
     38 H15        -1.4060    6.2710    0.2090 hc        1 RX8      0.046367
     39 H16         0.2030    5.4260    0.2870 hc        1 RX8      0.046367
     40 H17         1.2400    0.3020   -7.7360 hn        1 RX8      0.425800
     41 H18         0.0990    1.0720   -6.7570 hn        1 RX8      0.425800
     42 H19         3.9870    0.1120   -1.3340 ha        1 RX8      0.123000
     43 H20         6.2020   -0.8910   -1.7510 ha        1 RX8      0.130000
     44 H21         6.8800   -1.5380   -4.0550 ha        1 RX8      0.132000
     45 H22         5.3360   -1.1920   -5.9680 ha        1 RX8      0.149000
@<TRIPOS>BOND
     1    1    2 1   
     2    1   24 1   
     3    2    3 1   
     4    2    4 1   
     5    2    5 1   
     6    3   25 1   
     7    3   26 1   
     8    3   27 1   
     9    4   28 1   
    10    4   29 1   
    11    4   30 1   
    12    5    6 1   
    13    5   31 1   
    14    5   32 1   
    15    6    7 1   
    16    6   16 1   
    17    7    8 1   
    18    7   12 2   
    19    8    9 1   
    20    8   33 1   
    21    8   34 1   
    22    9   10 1   
    23   10   11 1   
    24   10   35 1   
    25   10   36 1   
    26   11   37 1   
    27   11   38 1   
    28   11   39 1   
    29   12   13 1   
    30   13   14 ar  
    31   13   16 ar  
    32   14   15 1   
    33   14   23 ar  
    34   15   40 1   
    35   15   41 1   
    36   16   17 ar  
    37   17   18 ar  
    38   17   22 ar  
    39   18   19 ar  
    40   18   42 1   
    41   19   20 ar  
    42   19   43 1   
    43   20   21 ar  
    44   20   44 1   
    45   21   22 ar  
    46   21   45 1   
    47   22   23 ar  
@<TRIPOS>SUBSTRUCTURE
     1 RX8         1 TEMP              0 ****  ****    0 ROOT
