@<TRIPOS>MOLECULE
RX8
   46    48     1     0     0
SMALL
bcc


@<TRIPOS>ATOM
      1 O1         -0.0920    0.3340    0.2620 oh        1 RX8     -0.612800
      2 C10         1.3130    0.1670    0.0690 c3        1 RX8      0.137800
      3 C11         2.0500    0.3410    1.3930 c3        1 RX8     -0.131100
      4 C12         1.5900   -1.2100   -0.5130 c3        1 RX8     -0.131100
      5 C9          1.7280    1.3420   -0.8560 c3        1 RX8      0.024300
      6 N3          1.3660    1.2230   -2.2420 na        1 RX8     -0.094300
      7 C5          0.1310    1.6760   -2.7840 cc        1 RX8      0.471800
      8 C6         -0.9340    2.3420   -1.9530 c3        1 RX8      0.103100
      9 O          -0.3650    3.5500   -1.4570 os        1 RX8     -0.435600
     10 C7         -1.3160    4.3270   -0.7180 c3        1 RX8      0.130400
     11 C8         -0.5880    5.5660   -0.2550 c3        1 RX8     -0.100100
     12 N2          0.0370    1.4530   -4.1170 nd        1 RX8     -0.591100
     13 C4          1.2410    0.8410   -4.4590 ca        1 RX8     -0.083900
     14 C           1.7280    0.3950   -5.7200 ca        1 RX8      0.517200
     15 N           0.8290    0.5750   -6.8800 n4        1 RX8     -0.814300
     16 C3          2.0960    0.6870   -3.3030 ca        1 RX8     -0.014200
     17 C2          3.3900    0.1100   -3.4630 ca        1 RX8     -0.076300
     18 C13         4.3250   -0.0820   -2.4210 ca        1 RX8     -0.131000
     19 C14         5.5610   -0.6380   -2.6680 ca        1 RX8     -0.081000
     20 C15         5.9190   -1.0360   -3.9740 ca        1 RX8     -0.108000
     21 C16         5.0410   -0.8730   -5.0180 ca        1 RX8     -0.145300
     22 C1          3.7510   -0.2930   -4.7980 ca        1 RX8      0.393600
     23 N1          2.9250   -0.1500   -5.8980 nb        1 RX8     -0.636000
     24 H1         -0.3740   -0.3310    0.9020 ho        1 RX8      0.420000
     25 H2          3.1480    0.2130    1.2430 hc        1 RX8      0.054867
     26 H3          1.8520    1.3540    1.8170 hc        1 RX8      0.054867
     27 H4          1.6980   -0.4240    2.1270 hc        1 RX8      0.054867
     28 H5          1.4050   -1.9920    0.2640 hc        1 RX8      0.054867
     29 H6          2.6500   -1.2880   -0.8490 hc        1 RX8      0.054867
     30 H7          0.9150   -1.4140   -1.3780 hc        1 RX8      0.054867
     31 H8          1.2200    2.2740   -0.4570 h1        1 RX8      0.099700
     32 H9          2.8400    1.4900   -0.7810 h1        1 RX8      0.099700
     33 H10        -1.8330    2.5680   -2.5890 h1        1 RX8      0.082200
     34 H11        -1.2240    1.6710   -1.0970 h1        1 RX8      0.082200
     35 H12        -1.6900    3.7220    0.1510 h1        1 RX8      0.038700
     36 H13        -2.1790    4.5880   -1.3870 h1        1 RX8      0.038700
     37 H14         0.2730    5.2930    0.4010 hc        1 RX8      0.053033
     38 H15        -1.2950    6.2110    0.3200 hc        1 RX8      0.053033
     39 H16        -0.1970    6.1410   -1.1280 hc        1 RX8      0.053033
     40 H17         0.6190    1.5770   -6.9680 hn        1 RX8      0.473133
     41 H18        -0.0430    0.0650   -6.6910 hn        1 RX8      0.473133
     42 H19         4.0690    0.2120   -1.3920 ha        1 RX8      0.147000
     43 H20         6.2820   -0.7780   -1.8460 ha        1 RX8      0.159000
     44 H21         6.9130   -1.4800   -4.1490 ha        1 RX8      0.163000
     45 H22         5.3230   -1.1860   -6.0380 ha        1 RX8      0.167000
     46 HN3         1.2550    0.2290   -7.7470 hn        1 RX8      0.473133
@<TRIPOS>BOND
     1    1    2 1   
     2    1   24 1   
     3    2    3 1   
     4    2    4 1   
     5    2    5 1   
     6    3   25 1   
     7    3   26 1   
     8    3   27 1   
     9    4   28 1   
    10    4   29 1   
    11    4   30 1   
    12    5    6 1   
    13    5   31 1   
    14    5   32 1   
    15    6    7 1   
    16    6   16 1   
    17    7    8 1   
    18    7   12 2   
    19    8    9 1   
    20    8   33 1   
    21    8   34 1   
    22    9   10 1   
    23   10   11 1   
    24   10   35 1   
    25   10   36 1   
    26   11   37 1   
    27   11   38 1   
    28   11   39 1   
    29   12   13 1   
    30   13   14 ar  
    31   13   16 ar  
    32   14   15 1   
    33   14   23 ar  
    34   15   40 1   
    35   15   41 1   
    36   15   46 1   
    37   16   17 ar  
    38   17   18 ar  
    39   17   22 ar  
    40   18   19 ar  
    41   18   42 1   
    42   19   20 ar  
    43   19   43 1   
    44   20   21 ar  
    45   20   44 1   
    46   21   22 ar  
    47   21   45 1   
    48   22   23 ar  
@<TRIPOS>SUBSTRUCTURE
     1 RX8         1 TEMP              0 ****  ****    0 ROOT
