@<TRIPOS>MOLECULE
RX8
   45    40     1     0     0
SMALL
bcc


@<TRIPOS>ATOM
      1 O1         -0.8050   -1.7080    1.8030 oh        1 RX8     -0.334000
      2 C10         0.1950   -1.0600    2.5730 c3        1 RX8      0.062000
      3 C11        -0.4390   -0.4320    3.8040 c3        1 RX8     -0.246000
      4 C12         1.2140   -2.0520    2.9960 c3        1 RX8     -0.246000
      5 C9          0.8660    0.0310    1.7300 c3        1 RX8     -0.023000
      6 N3          0.3190    0.0040    0.3550 n3        1 RX8     -0.142000
      7 C5         -0.9650    0.4380    0.2400 c1        1 RX8     -0.047000
      8 C6         -2.3630    1.0130    0.5610 c2        1 RX8      0.036000
      9 O          -2.4980    2.3210   -0.0360 os        1 RX8     -0.278000
     10 C7         -3.7380    2.9680    0.2630 c3        1 RX8     -0.029000
     11 C8         -3.8780    4.2120   -0.5950 c3        1 RX8     -0.215000
     12 N2         -1.3260    0.3480   -1.0710 n2        1 RX8     -0.123000
     13 C4         -0.2590   -0.1450   -1.7710 c1        1 RX8     -0.178000
     14 C          -0.0890   -0.4690   -3.1490 c1        1 RX8      0.211000
     15 N          -0.7960   -0.3920   -4.4120 n2        1 RX8     -0.339000
     16 C3          0.7570   -0.3580   -0.8930 c1        1 RX8      0.023000
     17 C2          1.9820   -0.9020   -1.3490 c1        1 RX8     -0.093000
     18 C13         3.0760   -1.0170   -0.4620 c2        1 RX8     -0.108000
     19 C14         4.3180   -1.4470   -0.9350 c1        1 RX8     -0.152000
     20 C15         4.4790   -1.7630   -2.2890 c1        1 RX8     -0.116000
     21 C16         3.4000   -1.6500   -3.1670 c1        1 RX8     -0.116000
     22 C1          2.1430   -1.2150   -2.6900 c1        1 RX8      0.065000
     23 N1          1.0980   -0.9950   -3.5890 n1        1 RX8     -0.246000
     24 H1         -1.2020   -2.3390    2.3000 ho        1 RX8      0.205000
     25 H2         -1.0500    0.2760    3.5290 hc        1 RX8      0.090000
     26 H3          0.2670   -0.0520    4.3800 hc        1 RX8      0.090000
     27 H4         -0.9360   -1.1190    4.3030 hc        1 RX8      0.090000
     28 H5          0.8120   -2.6840    3.6230 hc        1 RX8      0.090000
     29 H6          1.9620   -1.5890    3.4330 hc        1 RX8      0.090000
     30 H7          1.5410   -2.5330    2.2150 hc        1 RX8      0.090000
     31 H8          1.8380   -0.1310    1.6990 h1        1 RX8      0.127000
     32 H9          0.6950    0.9060    2.1320 h1        1 RX8      0.127000
     33 H10        -2.4730    1.0850    1.5360 h4        1 RX8      0.126000
     34 H11        -3.0550    0.4140    0.1980 h4        1 RX8      0.126000
     35 H12        -3.7560    3.2170    1.2010 h1        1 RX8      0.074500
     36 H13        -4.4720    2.3620    0.0750 h1        1 RX8      0.074500
     37 H14        -4.7910    4.5770   -0.5000 hc        1 RX8      0.084000
     38 H15        -3.2260    4.8820   -0.3060 hc        1 RX8      0.084000
     39 H16        -3.7150    3.9820   -1.5310 hc        1 RX8      0.084000
     40 H17        -0.3860   -0.6750   -5.1870 hn        1 RX8      0.222500
     41 H18        -1.6480   -0.0480   -4.4420 hn        1 RX8      0.222500
     42 H19         2.9640   -0.7970    0.4780 ha        1 RX8      0.123000
     43 H20         5.0820   -1.5270   -0.3160 ha        1 RX8      0.131000
     44 H21         5.3430   -2.0620   -2.6190 ha        1 RX8      0.141000
     45 H22         3.5140   -1.8720   -4.1190 ha        1 RX8      0.141000
@<TRIPOS>BOND
     1    1    2 1   
     2    1   24 1   
     3    2    3 1   
     4    2    4 1   
     5    2    5 1   
     6    3   25 1   
     7    3   26 1   
     8    3   27 1   
     9    4   28 1   
    10    4   29 1   
    11    4   30 1   
    12    5    6 1   
    13    5   31 1   
    14    5   32 1   
    15    6    7 1   
    16    6   16 1   
    17    7   12 1   
    18    8    9 1   
    19    8   33 1   
    20    8   34 1   
    21    9   10 1   
    22   10   11 1   
    23   10   35 1   
    24   10   36 1   
    25   11   37 1   
    26   11   38 1   
    27   11   39 1   
    28   12   13 1   
    29   13   16 1   
    30   14   23 1   
    31   15   40 1   
    32   15   41 1   
    33   17   18 1   
    34   17   22 1   
    35   18   19 1   
    36   18   42 1   
    37   19   43 1   
    38   20   21 1   
    39   20   44 1   
    40   21   45 1   
@<TRIPOS>SUBSTRUCTURE
     1 RX8         1 TEMP              0 ****  ****    0 ROOT
