@<TRIPOS>MOLECULE
RX8
   45    47     1     0     0
SMALL
bcc


@<TRIPOS>ATOM
      1 O1         -0.0010    0.5080    0.4910 oh        1 RX8     -0.608800
      2 C10         1.3350    0.2010    0.0870 c3        1 RX8      0.133800
      3 C11         2.2570    0.2380    1.3020 c3        1 RX8     -0.127600
      4 C12         1.3780   -1.1730   -0.5630 c3        1 RX8     -0.127600
      5 C9          1.7350    1.3670   -0.8590 c3        1 RX8      0.037300
      6 N3          1.3650    1.2270   -2.2330 na        1 RX8     -0.116300
      7 C5          0.1410    1.7000   -2.7850 cc        1 RX8      0.393800
      8 C6         -0.9200    2.3570   -1.9530 c3        1 RX8      0.113100
      9 O          -0.3850    3.6020   -1.5020 os        1 RX8     -0.427600
     10 C7         -1.3530    4.3650   -0.7780 c3        1 RX8      0.130400
     11 C8         -0.6710    5.6460   -0.3600 c3        1 RX8     -0.097100
     12 N2          0.0600    1.4790   -4.1150 nd        1 RX8     -0.543100
     13 C4          1.2550    0.8410   -4.4540 ca        1 RX8     -0.101900
     14 C           1.7280    0.3800   -5.7450 ca        1 RX8      0.731200
     15 N           0.8710    0.4470   -6.8350 nh        1 RX8     -0.938500
     16 C3          2.0880    0.6750   -3.2940 ca        1 RX8     -0.022200
     17 C2          3.3750    0.0690   -3.4190 ca        1 RX8     -0.157300
     18 C13         4.2690   -0.1660   -2.3530 ca        1 RX8     -0.109000
     19 C14         5.5030   -0.7370   -2.5730 ca        1 RX8     -0.152000
     20 C15         5.8880   -1.1020   -3.8780 ca        1 RX8     -0.115000
     21 C16         5.0400   -0.9020   -4.9400 ca        1 RX8     -0.183300
     22 C1          3.7480   -0.3130   -4.7510 ca        1 RX8      0.458600
     23 N1          2.9560   -0.1530   -5.8690 nb        1 RX8     -0.772000
     24 H1         -0.3020   -0.2200    1.0480 ho        1 RX8      0.405000
     25 H2          3.2990   -0.0240    1.0020 hc        1 RX8      0.050700
     26 H3          1.9080   -0.4960    2.0670 hc        1 RX8      0.050700
     27 H4          2.2500    1.2560    1.7600 hc        1 RX8      0.050700
     28 H5          2.3410   -1.3200   -1.1060 hc        1 RX8      0.050700
     29 H6          1.2800   -1.9670    0.2170 hc        1 RX8      0.050700
     30 H7          0.5350   -1.2860   -1.2870 hc        1 RX8      0.050700
     31 H8          1.2310    2.3000   -0.4620 h1        1 RX8      0.088200
     32 H9          2.8490    1.5200   -0.7950 h1        1 RX8      0.088200
     33 H10        -1.1700    1.7110   -1.0660 h1        1 RX8      0.066200
     34 H11        -1.8410    2.5370   -2.5720 h1        1 RX8      0.066200
     35 H12        -1.6980    3.7770    0.1150 h1        1 RX8      0.029700
     36 H13        -2.2350    4.5740   -1.4410 h1        1 RX8      0.029700
     37 H14        -0.3080    6.2040   -1.2560 hc        1 RX8      0.046367
     38 H15         0.2060    5.4260    0.2950 hc        1 RX8      0.046367
     39 H16        -1.3960    6.2830    0.2010 hc        1 RX8      0.046367
     40 H17         1.2620    0.3220   -7.7390 hn        1 RX8      0.425800
     41 H18         0.1210    1.0930   -6.7620 hn        1 RX8      0.425800
     42 H19         3.9800    0.0980   -1.3250 ha        1 RX8      0.123000
     43 H20         6.1940   -0.9130   -1.7360 ha        1 RX8      0.130000
     44 H21         6.8790   -1.5540   -4.0390 ha        1 RX8      0.132000
     45 H22         5.3440   -1.1960   -5.9580 ha        1 RX8      0.149000
@<TRIPOS>BOND
     1    1    2 1   
     2    1   24 1   
     3    2    3 1   
     4    2    4 1   
     5    2    5 1   
     6    3   25 1   
     7    3   26 1   
     8    3   27 1   
     9    4   28 1   
    10    4   29 1   
    11    4   30 1   
    12    5    6 1   
    13    5   31 1   
    14    5   32 1   
    15    6    7 1   
    16    6   16 1   
    17    7    8 1   
    18    7   12 2   
    19    8    9 1   
    20    8   33 1   
    21    8   34 1   
    22    9   10 1   
    23   10   11 1   
    24   10   35 1   
    25   10   36 1   
    26   11   37 1   
    27   11   38 1   
    28   11   39 1   
    29   12   13 1   
    30   13   14 ar  
    31   13   16 ar  
    32   14   15 1   
    33   14   23 ar  
    34   15   40 1   
    35   15   41 1   
    36   16   17 ar  
    37   17   18 ar  
    38   17   22 ar  
    39   18   19 ar  
    40   18   42 1   
    41   19   20 ar  
    42   19   43 1   
    43   20   21 ar  
    44   20   44 1   
    45   21   22 ar  
    46   21   45 1   
    47   22   23 ar  
@<TRIPOS>SUBSTRUCTURE
     1 RX8         1 TEMP              0 ****  ****    0 ROOT
