@<TRIPOS>MOLECULE
RXA
   18    16     1     0     0
SMALL
bcc


@<TRIPOS>ATOM
      1 OAA        -3.7480    0.0020    0.6620 o         1 RXA     -0.274000
      2 CAI        -2.5330    0.0020    0.6620 c1        1 RXA      0.267000
      3 NAH        -1.8190    0.0020    1.8990 n2        1 RXA     -0.371000
      4 CAK        -1.7860    0.0020   -0.6330 c2        1 RXA      0.255000
      5 OAC        -2.3930   -0.0370   -1.6850 o         1 RXA     -0.210000
      6 CAM        -0.2800    0.0020   -0.6320 c2        1 RXA     -0.125000
      7 CAL         0.4050    0.0020    0.5590 c2        1 RXA     -0.088000
      8 CAF         1.8090    0.0020    0.5620 c1        1 RXA     -0.080000
      9 CAJ        -0.3730    0.0020    1.9000 c2        1 RXA      0.353000
     10 OAB         0.2330    0.0030    2.9530 o         1 RXA     -0.317000
     11 CAG         0.4260    0.0020   -1.8460 c1        1 RXA     -0.076000
     12 CAE         1.8130    0.0020   -1.8430 c1        1 RXA     -0.110500
     13 CAD         2.5050    0.0020   -0.6390 c1        1 RXA     -0.110500
     14 HNAH       -2.2760    0.0020    2.6880 hn        1 RXA      0.259000
     15 HAF         2.2950    0.0020    1.4080 ha        1 RXA      0.169000
     16 HAG        -0.0600    0.0020   -2.6930 ha        1 RXA      0.163000
     17 HAE         2.3030    0.0020   -2.6870 ha        1 RXA      0.148000
     18 HAD         3.4810    0.0020   -0.6370 ha        1 RXA      0.148000
@<TRIPOS>BOND
     1    1    2 1   
     2    2    4 1   
     3    3    9 1   
     4    3   14 1   
     5    4    5 1   
     6    4    6 1   
     7    6    7 1   
     8    6   11 1   
     9    7    8 1   
    10    7    9 1   
    11    8   15 1   
    12    9   10 1   
    13   11   16 1   
    14   12   13 1   
    15   12   17 1   
    16   13   18 1   
@<TRIPOS>SUBSTRUCTURE
     1 RXA         1 TEMP              0 ****  ****    0 ROOT
