@<TRIPOS>MOLECULE
RXA
   18    19     1     0     0
SMALL
bcc


@<TRIPOS>ATOM
      1 OAA        -0.0620   -0.0020   -0.0150 o         1 RXA     -0.549500
      2 CAI         1.1770   -0.0030   -0.0280 c         1 RXA      0.609500
      3 NAH         1.8780    0.0010    1.1750 n         1 RXA     -0.591500
      4 CAK         1.9590   -0.0070   -1.3350 c         1 RXA      0.514700
      5 OAC         1.3470   -0.0110   -2.4030 o         1 RXA     -0.449100
      6 CAM         3.4270   -0.0060   -1.2350 ca        1 RXA     -0.145600
      7 CAL         4.0610   -0.0020    0.0190 ca        1 RXA     -0.108600
      8 CAF         5.4560   -0.0010    0.0990 ca        1 RXA     -0.080000
      9 CAJ         3.2720    0.0010    1.2760 c         1 RXA      0.716100
     10 OAB         3.7920    0.0040    2.4040 o         1 RXA     -0.592500
     11 CAG         4.2000   -0.0090   -2.4010 ca        1 RXA     -0.076000
     12 CAE         5.5940   -0.0080   -2.3160 ca        1 RXA     -0.114000
     13 CAD         6.2200   -0.0040   -1.0710 ca        1 RXA     -0.107000
     14 HNAH        1.3500    0.0030    2.0250 hn        1 RXA      0.345500
     15 HAF         5.9400    0.0020    1.0900 ha        1 RXA      0.169000
     16 HAG         3.6970   -0.0120   -3.3820 ha        1 RXA      0.163000
     17 HAE         6.1970   -0.0100   -3.2370 ha        1 RXA      0.148000
     18 HAD         7.3190   -0.0030   -1.0030 ha        1 RXA      0.148000
@<TRIPOS>BOND
     1    1    2 2   
     2    2    3 1   
     3    2    4 1   
     4    3    9 1   
     5    3   14 1   
     6    4    5 2   
     7    4    6 1   
     8    6    7 ar  
     9    6   11 ar  
    10    7    8 ar  
    11    7    9 1   
    12    8   13 ar  
    13    8   15 1   
    14    9   10 2   
    15   11   12 ar  
    16   11   16 1   
    17   12   13 ar  
    18   12   17 1   
    19   13   18 1   
@<TRIPOS>SUBSTRUCTURE
     1 RXA         1 TEMP              0 ****  ****    0 ROOT
