@<TRIPOS>MOLECULE
RXA
   18    19     1     0     0
SMALL
bcc


@<TRIPOS>ATOM
      1 OAA        -3.2320   -0.4840    0.0010 o         1 RXA     -0.549500
      2 CAI        -2.0350   -0.1660    0.0010 c         1 RXA      0.609500
      3 NAH        -1.6810    1.1810    0.0000 n         1 RXA     -0.591500
      4 CAK        -0.9310   -1.2160    0.0010 c         1 RXA      0.514700
      5 OAC        -1.2360   -2.4080    0.0020 o         1 RXA     -0.449100
      6 CAM         0.4560   -0.7270    0.0010 ca        1 RXA     -0.145600
      7 CAL         0.7330    0.6510   -0.0000 ca        1 RXA     -0.108600
      8 CAF         2.0550    1.1010   -0.0010 ca        1 RXA     -0.080000
      9 CAJ        -0.3640    1.6510   -0.0000 c         1 RXA      0.716100
     10 OAB        -0.1650    2.8770   -0.0010 o         1 RXA     -0.592500
     11 CAG         1.5130   -1.6430    0.0010 ca        1 RXA     -0.076000
     12 CAE         2.8340   -1.1890    0.0000 ca        1 RXA     -0.114000
     13 CAD         3.1030    0.1780   -0.0010 ca        1 RXA     -0.107000
     14 HNAH       -2.4160    1.8590   -0.0000 hn        1 RXA      0.345500
     15 HAF         2.2560    2.1850   -0.0010 ha        1 RXA      0.169000
     16 HAG         1.2900   -2.7240    0.0010 ha        1 RXA      0.163000
     17 HAE         3.6600   -1.9160    0.0000 ha        1 RXA      0.148000
     18 HAD         4.1440    0.5360   -0.0010 ha        1 RXA      0.148000
@<TRIPOS>BOND
     1    1    2 2   
     2    2    3 1   
     3    2    4 1   
     4    3    9 1   
     5    3   14 1   
     6    4    5 2   
     7    4    6 1   
     8    6    7 ar  
     9    6   11 ar  
    10    7    8 ar  
    11    7    9 1   
    12    8   13 ar  
    13    8   15 1   
    14    9   10 2   
    15   11   12 ar  
    16   11   16 1   
    17   12   13 ar  
    18   12   17 1   
    19   13   18 1   
@<TRIPOS>SUBSTRUCTURE
     1 RXA         1 TEMP              0 ****  ****    0 ROOT
