@<TRIPOS>MOLECULE
RXB
   41    43     1     0     0
SMALL
bcc


@<TRIPOS>ATOM
      1 OAE         0.0520    0.8830    0.0190 o         1 RXB     -0.591500
      2 CAW         1.2740    0.6620   -0.0360 c         1 RXB      0.714100
      3 NAP         2.0330    0.7810    1.1290 ns        1 RXB     -0.590500
      4 CAV         3.4120    0.6110    1.1570 c         1 RXB      0.612500
      5 OAD         4.0140    0.5610    2.2370 o         1 RXB     -0.551500
      6 CAY         1.9650    0.2440   -1.2860 ca        1 RXB     -0.086600
      7 CAZ         3.3730    0.1600   -1.3590 ca        1 RXB     -0.209600
      8 CAX         4.1560    0.5280   -0.1730 c         1 RXB      0.531700
      9 OAF         5.3630    0.7850   -0.1560 o         1 RXB     -0.496100
     10 CAN         1.1600   -0.0740   -2.3730 ca        1 RXB     -0.108000
     11 CAJ         1.7530   -0.5020   -3.5650 ca        1 RXB     -0.080000
     12 CAM         3.1270   -0.6000   -3.6730 ca        1 RXB     -0.148000
     13 CAU         3.9740   -0.2660   -2.5790 ca        1 RXB      0.149600
     14 NAO         5.3620   -0.3410   -2.7050 ns        1 RXB     -0.474100
     15 CAS         6.0780   -1.0830   -3.6400 c         1 RXB      0.657100
     16 OAC         5.5520   -1.7670   -4.5310 o         1 RXB     -0.568100
     17 CBA         7.6120   -1.0380   -3.4750 c3        1 RXB      0.131400
     18 OAQ         8.1800   -1.6950   -4.6130 os        1 RXB     -0.421900
     19 CAR         8.4460   -3.0420   -4.5160 c         1 RXB      0.649100
     20 OAB         8.2670   -3.6000   -3.4340 o         1 RXB     -0.534000
     21 CAA         8.9360   -3.6100   -5.8000 c3        1 RXB     -0.147100
     22 CAT         8.1310    0.3670   -3.4430 ca        1 RXB     -0.117300
     23 CAL         8.3000    1.0020   -2.2060 ca        1 RXB     -0.107000
     24 CAI         8.7810    2.3090   -2.1560 ca        1 RXB     -0.129500
     25 CAG         9.1010    2.9840   -3.3350 ca        1 RXB     -0.115000
     26 CAH         8.9380    2.3510   -4.5660 ca        1 RXB     -0.129500
     27 CAK         8.4520    1.0440   -4.6230 ca        1 RXB     -0.107000
     28 HNAP        1.5540    0.9480    1.9910 hn        1 RXB      0.346500
     29 HAN         0.0640    0.0120   -2.2870 ha        1 RXB      0.170000
     30 HAJ         1.1170   -0.7600   -4.4270 ha        1 RXB      0.151000
     31 HAM         3.5680   -0.9440   -4.6250 ha        1 RXB      0.184000
     32 HNAO        5.9050    0.1690   -2.0350 hn        1 RXB      0.353500
     33 HBA         7.8830   -1.5920   -2.5290 h1        1 RXB      0.111700
     34 HAA         9.3980   -2.8180   -6.4360 hc        1 RXB      0.081033
     35 HAAA        8.0650   -4.0540   -6.3450 hc        1 RXB      0.081033
     36 HAAB        9.6850   -4.4100   -5.5840 hc        1 RXB      0.081033
     37 HAL         8.0540    0.4750   -1.2700 ha        1 RXB      0.147000
     38 HAI         8.9090    2.8060   -1.1830 ha        1 RXB      0.139500
     39 HAG         9.4830    4.0150   -3.2910 ha        1 RXB      0.136000
     40 HAH         9.1910    2.8800   -5.4970 ha        1 RXB      0.139500
     41 HAK         8.3270    0.5370   -5.5930 ha        1 RXB      0.147000
@<TRIPOS>BOND
     1    1    2 2   
     2    2    3 1   
     3    2    6 1   
     4    3    4 1   
     5    3   28 1   
     6    4    5 2   
     7    4    8 1   
     8    6    7 ar  
     9    6   10 ar  
    10    7    8 1   
    11    7   13 ar  
    12    8    9 2   
    13   10   11 ar  
    14   10   29 1   
    15   11   12 ar  
    16   11   30 1   
    17   12   13 ar  
    18   12   31 1   
    19   13   14 1   
    20   14   15 1   
    21   14   32 1   
    22   15   16 2   
    23   15   17 1   
    24   17   18 1   
    25   17   22 1   
    26   17   33 1   
    27   18   19 1   
    28   19   20 2   
    29   19   21 1   
    30   21   34 1   
    31   21   35 1   
    32   21   36 1   
    33   22   23 ar  
    34   22   27 ar  
    35   23   24 ar  
    36   23   37 1   
    37   24   25 ar  
    38   24   38 1   
    39   25   26 ar  
    40   25   39 1   
    41   26   27 ar  
    42   26   40 1   
    43   27   41 1   
@<TRIPOS>SUBSTRUCTURE
     1 RXB         1 TEMP              0 ****  ****    0 ROOT
