@<TRIPOS>MOLECULE
RXB
   42    44     1     0     0
SMALL
bcc


@<TRIPOS>ATOM
      1 OAE         0.7520   -1.3440    0.3070 o         1 RXB     -0.541500
      2 CAW         1.8920   -0.9630    0.0090 c         1 RXB      0.709100
      3 NAP         2.9050   -0.9890    0.9660 n         1 RXB     -0.579500
      4 CAV         4.2040   -0.5600    0.7310 c         1 RXB      0.624500
      5 OAD         5.0890   -0.6860    1.5840 o         1 RXB     -0.500500
      6 CAY         2.2280   -0.4790   -1.3640 ca        1 RXB     -0.083600
      7 CAZ         3.4990    0.0260   -1.6780 ca        1 RXB     -0.115600
      8 CAX         4.5170    0.0930   -0.6080 c         1 RXB      0.525700
      9 OAF         5.6100    0.6530   -0.7500 o         1 RXB     -0.507100
     10 CAN         1.2180   -0.5590   -2.3310 ca        1 RXB     -0.038000
     11 CAJ         1.4700   -0.1410   -3.6350 ca        1 RXB     -0.077000
     12 CAM         2.7230    0.3610   -3.9780 ca        1 RXB     -0.090000
     13 CAU         3.7370    0.4550   -3.0060 ca        1 RXB      0.008600
     14 NAO         5.0310    0.9970   -3.4320 n4        1 RXB     -0.565200
     15 CAS         5.9040   -0.0610   -4.1120 c         1 RXB      0.532100
     16 OAC         5.5020   -0.4900   -5.1760 o         1 RXB     -0.398100
     17 CBA         7.2000   -0.3910   -3.3560 c3        1 RXB      0.175400
     18 OAQ         7.7670   -1.5450   -3.9540 os        1 RXB     -0.415900
     19 CAR         7.2780   -2.7810   -3.5460 c         1 RXB      0.657100
     20 OAB         6.2870   -2.7540   -2.8170 o         1 RXB     -0.542000
     21 CAA         8.0590   -3.9140   -4.0970 c3        1 RXB     -0.149100
     22 CAT         8.1430    0.7610   -3.5000 ca        1 RXB     -0.172300
     23 CAL         8.2610    1.6720   -2.4400 ca        1 RXB     -0.105000
     24 CAI         9.1470    2.7400   -2.5440 ca        1 RXB     -0.122000
     25 CAG         9.9240    2.8980   -3.6950 ca        1 RXB     -0.086000
     26 CAH         9.8150    1.9840   -4.7430 ca        1 RXB     -0.122000
     27 CAK         8.9270    0.9120   -4.6480 ca        1 RXB     -0.105000
     28 HNAP        2.6890   -1.3690    1.8700 hn        1 RXB      0.370500
     29 HAN         0.2250   -0.9600   -2.0440 ha        1 RXB      0.203000
     30 HAJ         0.6790   -0.2090   -4.4020 ha        1 RXB      0.185000
     31 HAM         2.9100    0.6700   -5.0230 ha        1 RXB      0.174000
     32 HNAO        4.8540    1.7560   -4.1040 hn        1 RXB      0.475800
     33 HBA         6.9470   -0.5940   -2.2700 h1        1 RXB      0.124700
     34 HAA         8.5580   -4.4490   -3.2490 hc        1 RXB      0.098700
     35 HAAA        7.3590   -4.6190   -4.6130 hc        1 RXB      0.098700
     36 HAAB        8.8350   -3.5580   -4.8180 hc        1 RXB      0.098700
     37 HAL         7.6810    1.5280   -1.5120 ha        1 RXB      0.154000
     38 HAI         9.2480    3.4520   -1.7100 ha        1 RXB      0.157500
     39 HAG        10.6300    3.7410   -3.7690 ha        1 RXB      0.158000
     40 HAH        10.4380    2.1000   -5.6440 ha        1 RXB      0.157500
     41 HAK         8.8560    0.1730   -5.4620 ha        1 RXB      0.154000
     42 HAO2        5.5490    1.3880   -2.6260 hn        1 RXB      0.475800
@<TRIPOS>BOND
     1    1    2 2   
     2    2    3 1   
     3    2    6 1   
     4    3    4 1   
     5    3   28 1   
     6    4    5 2   
     7    4    8 1   
     8    6    7 ar  
     9    6   10 ar  
    10    7    8 1   
    11    7   13 ar  
    12    8    9 2   
    13   10   11 ar  
    14   10   29 1   
    15   11   12 ar  
    16   11   30 1   
    17   12   13 ar  
    18   12   31 1   
    19   13   14 1   
    20   14   15 1   
    21   14   32 1   
    22   14   42 1   
    23   15   16 2   
    24   15   17 1   
    25   17   18 1   
    26   17   22 1   
    27   17   33 1   
    28   18   19 1   
    29   19   20 2   
    30   19   21 1   
    31   21   34 1   
    32   21   35 1   
    33   21   36 1   
    34   22   23 ar  
    35   22   27 ar  
    36   23   24 ar  
    37   23   37 1   
    38   24   25 ar  
    39   24   38 1   
    40   25   26 ar  
    41   25   39 1   
    42   26   27 ar  
    43   26   40 1   
    44   27   41 1   
@<TRIPOS>SUBSTRUCTURE
     1 RXB         1 TEMP              0 ****  ****    0 ROOT
