@<TRIPOS>MOLECULE
RXB
   41    43     1     0     0
SMALL
bcc


@<TRIPOS>ATOM
      1 OAE         0.0550    0.8680    0.0300 o         1 RXB     -0.591500
      2 CAW         1.2770    0.6500   -0.0280 c         1 RXB      0.714100
      3 NAP         2.0380    0.7680    1.1370 n         1 RXB     -0.590500
      4 CAV         3.4180    0.6010    1.1620 c         1 RXB      0.612500
      5 OAD         4.0220    0.5510    2.2410 o         1 RXB     -0.551500
      6 CAY         1.9670    0.2350   -1.2790 ca        1 RXB     -0.086600
      7 CAZ         3.3750    0.1530   -1.3550 ca        1 RXB     -0.209600
      8 CAX         4.1590    0.5210   -0.1700 c         1 RXB      0.531700
      9 OAF         5.3660    0.7800   -0.1540 o         1 RXB     -0.496100
     10 CAN         1.1610   -0.0840   -2.3640 ca        1 RXB     -0.108000
     11 CAJ         1.7520   -0.5090   -3.5590 ca        1 RXB     -0.080000
     12 CAM         3.1260   -0.6040   -3.6690 ca        1 RXB     -0.148000
     13 CAU         3.9750   -0.2690   -2.5760 ca        1 RXB      0.149600
     14 NAO         5.3620   -0.3420   -2.7050 n         1 RXB     -0.474100
     15 CAS         6.0780   -1.0810   -3.6430 c         1 RXB      0.657100
     16 OAC         5.5510   -1.7640   -4.5340 o         1 RXB     -0.568100
     17 CBA         7.6120   -1.0340   -3.4810 c3        1 RXB      0.131400
     18 OAQ         8.1790   -1.6870   -4.6220 os        1 RXB     -0.421900
     19 CAR         8.4480   -3.0330   -4.5280 c         1 RXB      0.649100
     20 OAB         8.2730   -3.5950   -3.4470 o         1 RXB     -0.534000
     21 CAA         8.9360   -3.5980   -5.8150 c3        1 RXB     -0.147100
     22 CAT         8.1290    0.3720   -3.4460 ca        1 RXB     -0.117300
     23 CAL         8.3000    1.0040   -2.2070 ca        1 RXB     -0.107000
     24 CAI         8.7790    2.3110   -2.1540 ca        1 RXB     -0.129500
     25 CAG         9.0950    2.9900   -3.3320 ca        1 RXB     -0.115000
     26 CAH         8.9300    2.3600   -4.5650 ca        1 RXB     -0.129500
     27 CAK         8.4460    1.0530   -4.6240 ca        1 RXB     -0.107000
     28 HNAP        1.5610    0.9340    2.0000 hn        1 RXB      0.346500
     29 HAN         0.0640    0.0010   -2.2760 ha        1 RXB      0.170000
     30 HAJ         1.1140   -0.7670   -4.4200 ha        1 RXB      0.151000
     31 HAM         3.5660   -0.9450   -4.6230 ha        1 RXB      0.184000
     32 HNAO        5.9060    0.1680   -2.0360 hn        1 RXB      0.353500
     33 HBA         7.8860   -1.5900   -2.5360 h1        1 RXB      0.111700
     34 HAA         9.6900   -4.3940   -5.6030 hc        1 RXB      0.081033
     35 HAAA        9.3920   -2.8010   -6.4510 hc        1 RXB      0.081033
     36 HAAB        8.0660   -4.0450   -6.3570 hc        1 RXB      0.081033
     37 HAL         8.0560    0.4740   -1.2720 ha        1 RXB      0.147000
     38 HAI         8.9080    2.8060   -1.1800 ha        1 RXB      0.139500
     39 HAG         9.4750    4.0210   -3.2860 ha        1 RXB      0.136000
     40 HAH         9.1810    2.8920   -5.4940 ha        1 RXB      0.139500
     41 HAK         8.3200    0.5490   -5.5950 ha        1 RXB      0.147000
@<TRIPOS>BOND
     1    1    2 2   
     2    2    3 1   
     3    2    6 1   
     4    3    4 1   
     5    3   28 1   
     6    4    5 2   
     7    4    8 1   
     8    6    7 ar  
     9    6   10 ar  
    10    7    8 1   
    11    7   13 ar  
    12    8    9 2   
    13   10   11 ar  
    14   10   29 1   
    15   11   12 ar  
    16   11   30 1   
    17   12   13 ar  
    18   12   31 1   
    19   13   14 1   
    20   14   15 1   
    21   14   32 1   
    22   15   16 2   
    23   15   17 1   
    24   17   18 1   
    25   17   22 1   
    26   17   33 1   
    27   18   19 1   
    28   19   20 2   
    29   19   21 1   
    30   21   34 1   
    31   21   35 1   
    32   21   36 1   
    33   22   23 ar  
    34   22   27 ar  
    35   23   24 ar  
    36   23   37 1   
    37   24   25 ar  
    38   24   38 1   
    39   25   26 ar  
    40   25   39 1   
    41   26   27 ar  
    42   26   40 1   
    43   27   41 1   
@<TRIPOS>SUBSTRUCTURE
     1 RXB         1 TEMP              0 ****  ****    0 ROOT
