@<TRIPOS>MOLECULE
RXB
   41    43     1     0     0
SMALL
bcc


@<TRIPOS>ATOM
      1 OAE        -5.8040    0.2680   -1.1340 o         1 RXB     -0.591500
      2 CAW        -4.7290    0.4330   -0.5330 c         1 RXB      0.714100
      3 NAP        -4.7050    1.2660    0.5870 n         1 RXB     -0.590500
      4 CAV        -3.5420    1.5590    1.2900 c         1 RXB      0.612500
      5 OAD        -3.5990    2.1640    2.3690 o         1 RXB     -0.551500
      6 CAY        -3.4660   -0.2430   -0.9340 ca        1 RXB     -0.086600
      7 CAZ        -2.2290    0.0870   -0.3370 ca        1 RXB     -0.209600
      8 CAX        -2.2060    1.1480    0.6770 c         1 RXB      0.531700
      9 OAF        -1.2010    1.7460    1.0740 o         1 RXB     -0.496100
     10 CAN        -3.5620   -1.2260   -1.9110 ca        1 RXB     -0.108000
     11 CAJ        -2.4120   -1.9170   -2.3060 ca        1 RXB     -0.080000
     12 CAM        -1.1860   -1.6240   -1.7420 ca        1 RXB     -0.148000
     13 CAU        -1.0580   -0.6110   -0.7500 ca        1 RXB      0.149600
     14 NAO         0.1890   -0.3020   -0.2050 n         1 RXB     -0.474100
     15 CAS         1.3220   -1.1120   -0.1940 c         1 RXB      0.657100
     16 OAC         1.3730   -2.2360   -0.7160 o         1 RXB     -0.568100
     17 CBA         2.5340   -0.5310    0.5630 c3        1 RXB      0.131400
     18 OAQ         3.6440   -1.4010    0.3170 os        1 RXB     -0.421900
     19 CAR         3.8750   -2.4220    1.2110 c         1 RXB      0.649100
     20 OAB         3.1760   -2.4890    2.2210 o         1 RXB     -0.534000
     21 CAA         4.9920   -3.3030    0.7770 c3        1 RXB     -0.147100
     22 CAT         2.8980    0.8370    0.0730 ca        1 RXB     -0.117300
     23 CAL         2.3630    1.9580    0.7210 ca        1 RXB     -0.107000
     24 CAI         2.6900    3.2380    0.2790 ca        1 RXB     -0.129500
     25 CAG         3.5540    3.4060   -0.8040 ca        1 RXB     -0.115000
     26 CAH         4.0920    2.2920   -1.4460 ca        1 RXB     -0.129500
     27 CAK         3.7640    1.0080   -1.0110 ca        1 RXB     -0.107000
     28 HNAP       -5.5730    1.6300    0.9250 hn        1 RXB      0.346500
     29 HAN        -4.5420   -1.4540   -2.3640 ha        1 RXB      0.170000
     30 HAJ        -2.4860   -2.7010   -3.0770 ha        1 RXB      0.151000
     31 HAM        -0.2940   -2.1870   -2.0710 ha        1 RXB      0.184000
     32 HNAO        0.2760    0.5860    0.2520 hn        1 RXB      0.353500
     33 HBA         2.2880   -0.5140    1.6660 h1        1 RXB      0.111700
     34 HAA         5.5500   -3.6580    1.6780 hc        1 RXB      0.081033
     35 HAAA        4.5600   -4.1830    0.2380 hc        1 RXB      0.081033
     36 HAAB        5.6850   -2.7600    0.0900 hc        1 RXB      0.081033
     37 HAL         1.6830    1.8340    1.5790 ha        1 RXB      0.147000
     38 HAI         2.2650    4.1160    0.7870 ha        1 RXB      0.139500
     39 HAG         3.8120    4.4190   -1.1490 ha        1 RXB      0.136000
     40 HAH         4.7750    2.4220   -2.2990 ha        1 RXB      0.139500
     41 HAK         4.1910    0.1240   -1.5110 ha        1 RXB      0.147000
@<TRIPOS>BOND
     1    1    2 2   
     2    2    3 1   
     3    2    6 1   
     4    3    4 1   
     5    3   28 1   
     6    4    5 2   
     7    4    8 1   
     8    6    7 ar  
     9    6   10 ar  
    10    7    8 1   
    11    7   13 ar  
    12    8    9 2   
    13   10   11 ar  
    14   10   29 1   
    15   11   12 ar  
    16   11   30 1   
    17   12   13 ar  
    18   12   31 1   
    19   13   14 1   
    20   14   15 1   
    21   14   32 1   
    22   15   16 2   
    23   15   17 1   
    24   17   18 1   
    25   17   22 1   
    26   17   33 1   
    27   18   19 1   
    28   19   20 2   
    29   19   21 1   
    30   21   34 1   
    31   21   35 1   
    32   21   36 1   
    33   22   23 ar  
    34   22   27 ar  
    35   23   24 ar  
    36   23   37 1   
    37   24   25 ar  
    38   24   38 1   
    39   25   26 ar  
    40   25   39 1   
    41   26   27 ar  
    42   26   40 1   
    43   27   41 1   
@<TRIPOS>SUBSTRUCTURE
     1 RXB         1 TEMP              0 ****  ****    0 ROOT
