@<TRIPOS>MOLECULE
RXC
   41    43     1     0     0
SMALL
bcc


@<TRIPOS>ATOM
      1 OAE         0.0590    0.8660    0.0440 o         1 RXC     -0.589500
      2 CAX         1.2810    0.6510   -0.0200 c         1 RXC      0.714100
      3 NAP         2.0480    0.7750    1.1410 n         1 RXC     -0.590500
      4 CAW         3.4280    0.6120    1.1590 c         1 RXC      0.612500
      5 OAD         4.0390    0.5670    2.2360 o         1 RXC     -0.550500
      6 CAZ         1.9660    0.2350   -1.2740 ca        1 RXC     -0.086600
      7 CBA         3.3740    0.1560   -1.3560 ca        1 RXC     -0.208600
      8 CAY         4.1630    0.5270   -0.1750 c         1 RXC      0.532700
      9 OAF         5.3700    0.7870   -0.1670 o         1 RXC     -0.498100
     10 CAM         1.1550   -0.0850   -2.3550 ca        1 RXC     -0.107000
     11 CAI         1.7410   -0.5110   -3.5520 ca        1 RXC     -0.080000
     12 CAL         3.1150   -0.6040   -3.6680 ca        1 RXC     -0.147000
     13 CAV         3.9680   -0.2680   -2.5800 ca        1 RXC      0.148600
     14 NAO         5.3550   -0.3390   -2.7150 n         1 RXC     -0.474100
     15 CAS         6.0670   -1.0820   -3.6510 c         1 RXC      0.657100
     16 OAC         5.5380   -1.7690   -4.5370 o         1 RXC     -0.565100
     17 CBB         7.6020   -1.0360   -3.4950 c3        1 RXC      0.129400
     18 OAQ         8.1640   -1.6820   -4.6410 os        1 RXC     -0.422900
     19 CAR         8.4460   -3.0270   -4.5520 c         1 RXC      0.650100
     20 OAB         8.2860   -3.5900   -3.4700 o         1 RXC     -0.533000
     21 CAA         8.9270   -3.5840   -5.8450 c3        1 RXC     -0.147100
     22 CAU         8.1220    0.3690   -3.4530 ca        1 RXC     -0.107300
     23 CAK         8.2920    0.9970   -2.2120 ca        1 RXC     -0.122000
     24 CAH         8.7750    2.3020   -2.1540 ca        1 RXC     -0.117000
     25 CAJ         9.0980    2.9890   -3.3240 ca        1 RXC     -0.111000
     26 CAT         8.9310    2.3560   -4.5600 ca        1 RXC      0.012400
     27 CLAG        9.3240    3.1830   -5.9910 cl        1 RXC     -0.085400
     28 CAN         8.4420    1.0480   -4.6310 ca        1 RXC     -0.088000
     29 HNAP        1.5740    0.9420    2.0060 hn        1 RXC      0.346500
     30 HAM         0.0590   -0.0030   -2.2620 ha        1 RXC      0.171000
     31 HAI         1.1000   -0.7710   -4.4100 ha        1 RXC      0.152000
     32 HAL         3.5510   -0.9460   -4.6240 ha        1 RXC      0.184000
     33 HNAO        5.9010    0.1720   -2.0470 hn        1 RXC      0.352500
     34 HBB         7.8790   -1.5970   -2.5540 h1        1 RXC      0.113700
     35 HAA         9.6910   -4.3730   -5.6420 hc        1 RXC      0.081700
     36 HAAA        9.3680   -2.7820   -6.4850 hc        1 RXC      0.081700
     37 HAAB        8.0560   -4.0390   -6.3800 hc        1 RXC      0.081700
     38 HAK         8.0440    0.4650   -1.2790 ha        1 RXC      0.148000
     39 HAH         8.9040    2.7950   -1.1780 ha        1 RXC      0.148000
     40 HAJ         9.4820    4.0200   -3.2730 ha        1 RXC      0.152000
     41 HAN         8.3170    0.5450   -5.6040 ha        1 RXC      0.166000
@<TRIPOS>BOND
     1    1    2 2   
     2    2    3 1   
     3    2    6 1   
     4    3    4 1   
     5    3   29 1   
     6    4    5 2   
     7    4    8 1   
     8    6    7 ar  
     9    6   10 ar  
    10    7    8 1   
    11    7   13 ar  
    12    8    9 2   
    13   10   11 ar  
    14   10   30 1   
    15   11   12 ar  
    16   11   31 1   
    17   12   13 ar  
    18   12   32 1   
    19   13   14 1   
    20   14   15 1   
    21   14   33 1   
    22   15   16 2   
    23   15   17 1   
    24   17   18 1   
    25   17   22 1   
    26   17   34 1   
    27   18   19 1   
    28   19   20 2   
    29   19   21 1   
    30   21   35 1   
    31   21   36 1   
    32   21   37 1   
    33   22   23 ar  
    34   22   28 ar  
    35   23   24 ar  
    36   23   38 1   
    37   24   25 ar  
    38   24   39 1   
    39   25   26 ar  
    40   25   40 1   
    41   26   27 1   
    42   26   28 ar  
    43   28   41 1   
@<TRIPOS>SUBSTRUCTURE
     1 RXC         1 TEMP              0 ****  ****    0 ROOT
