@<TRIPOS>MOLECULE
RXC
   41    43     1     0     0
SMALL
bcc


@<TRIPOS>ATOM
      1 OAE         0.0600    0.8690    0.0450 o         1 RXC     -0.589500
      2 CAX         1.2820    0.6550   -0.0190 c         1 RXC      0.714100
      3 NAP         2.0490    0.7820    1.1410 ns        1 RXC     -0.590500
      4 CAW         3.4290    0.6210    1.1590 c         1 RXC      0.612500
      5 OAD         4.0400    0.5790    2.2350 o         1 RXC     -0.550500
      6 CAZ         1.9670    0.2370   -1.2730 ca        1 RXC     -0.086600
      7 CBA         3.3740    0.1590   -1.3560 ca        1 RXC     -0.208600
      8 CAY         4.1640    0.5330   -0.1760 c         1 RXC      0.532700
      9 OAF         5.3710    0.7940   -0.1690 o         1 RXC     -0.498100
     10 CAM         1.1550   -0.0870   -2.3530 ca        1 RXC     -0.107000
     11 CAI         1.7410   -0.5160   -3.5490 ca        1 RXC     -0.080000
     12 CAL         3.1150   -0.6090   -3.6650 ca        1 RXC     -0.147000
     13 CAV         3.9680   -0.2680   -2.5780 ca        1 RXC      0.148600
     14 NAO         5.3550   -0.3390   -2.7130 ns        1 RXC     -0.474100
     15 CAS         6.0680   -1.0840   -3.6480 c         1 RXC      0.657100
     16 OAC         5.5390   -1.7750   -4.5320 o         1 RXC     -0.565100
     17 CBB         7.6030   -1.0360   -3.4930 c3        1 RXC      0.129400
     18 OAQ         8.1640   -1.6860   -4.6370 os        1 RXC     -0.422900
     19 CAR         8.4480   -3.0310   -4.5440 c         1 RXC      0.650100
     20 OAB         8.2890   -3.5900   -3.4600 o         1 RXC     -0.533000
     21 CAA         8.9280   -3.5910   -5.8350 c3        1 RXC     -0.147100
     22 CAU         8.1210    0.3690   -3.4560 ca        1 RXC     -0.107300
     23 CAK         8.2910    1.0010   -2.2170 ca        1 RXC     -0.122000
     24 CAH         8.7740    2.3070   -2.1640 ca        1 RXC     -0.117000
     25 CAJ         9.0950    2.9900   -3.3370 ca        1 RXC     -0.111000
     26 CAT         8.9280    2.3530   -4.5700 ca        1 RXC      0.012400
     27 ClAG        9.3190    3.1760   -6.0040 cl        1 RXC     -0.085400
     28 CAN         8.4400    1.0440   -4.6370 ca        1 RXC     -0.088000
     29 HNAP        1.5760    0.9520    2.0050 hn        1 RXC      0.346500
     30 HAM         0.0590   -0.0050   -2.2590 ha        1 RXC      0.171000
     31 HAI         1.1000   -0.7780   -4.4060 ha        1 RXC      0.152000
     32 HAL         3.5510   -0.9530   -4.6200 ha        1 RXC      0.184000
     33 HNAO        5.9010    0.1750   -2.0480 hn        1 RXC      0.352500
     34 HBB         7.8800   -1.5940   -2.5500 h1        1 RXC      0.113700
     35 HAA         9.6940   -4.3780   -5.6300 hc        1 RXC      0.081700
     36 HAAA        9.3680   -2.7910   -6.4790 hc        1 RXC      0.081700
     37 HAAB        8.0580   -4.0500   -6.3670 hc        1 RXC      0.081700
     38 HAK         8.0450    0.4720   -1.2820 ha        1 RXC      0.148000
     39 HAH         8.9020    2.8030   -1.1900 ha        1 RXC      0.148000
     40 HAJ         9.4780    4.0220   -3.2890 ha        1 RXC      0.152000
     41 HAN         8.3140    0.5380   -5.6080 ha        1 RXC      0.166000
@<TRIPOS>BOND
     1    1    2 2   
     2    2    3 1   
     3    2    6 1   
     4    3    4 1   
     5    3   29 1   
     6    4    5 2   
     7    4    8 1   
     8    6    7 ar  
     9    6   10 ar  
    10    7    8 1   
    11    7   13 ar  
    12    8    9 2   
    13   10   11 ar  
    14   10   30 1   
    15   11   12 ar  
    16   11   31 1   
    17   12   13 ar  
    18   12   32 1   
    19   13   14 1   
    20   14   15 1   
    21   14   33 1   
    22   15   16 2   
    23   15   17 1   
    24   17   18 1   
    25   17   22 1   
    26   17   34 1   
    27   18   19 1   
    28   19   20 2   
    29   19   21 1   
    30   21   35 1   
    31   21   36 1   
    32   21   37 1   
    33   22   23 ar  
    34   22   28 ar  
    35   23   24 ar  
    36   23   38 1   
    37   24   25 ar  
    38   24   39 1   
    39   25   26 ar  
    40   25   40 1   
    41   26   27 1   
    42   26   28 ar  
    43   28   41 1   
@<TRIPOS>SUBSTRUCTURE
     1 RXC         1 TEMP              0 ****  ****    0 ROOT
