@<TRIPOS>MOLECULE
RXC
   41    38     1     0     0
SMALL
bcc


@<TRIPOS>ATOM
      1 OAE        -5.9860   -0.5680    3.0820 o         1 RXC     -0.314000
      2 CAX        -4.7800   -0.7000    3.0280 c1        1 RXC      0.351000
      3 NAP        -4.0740   -1.3390    4.1170 n2        1 RXC     -0.370000
      4 CAW        -2.6600   -1.5310    4.0390 c2        1 RXC      0.270000
      5 OAD        -2.0690   -2.0740    4.9510 o         1 RXC     -0.275000
      6 CAZ        -4.0050   -0.2220    1.7750 c2        1 RXC     -0.066000
      7 CBA        -2.6450   -0.4050    1.6970 c2        1 RXC     -0.188000
      8 CAY        -1.9100   -1.0710    2.8310 c2        1 RXC      0.273000
      9 OAF        -0.7150   -1.2750    2.7450 o         1 RXC     -0.259000
     10 CAM        -4.6840    0.4400    0.7390 c1        1 RXC     -0.107000
     11 CAI        -3.9830    0.9080   -0.3620 c1        1 RXC     -0.113500
     12 CAL        -2.6070    0.7230   -0.4410 c1        1 RXC     -0.113500
     13 CAV        -1.9350    0.0690    0.5810 c1        1 RXC      0.156000
     14 NAO        -0.5140   -0.0420    0.5820 n         1 RXC     -0.328000
     15 CAS         0.2070    0.0170   -0.6480 c2        1 RXC      0.301000
     16 OAC        -0.3900    0.1630   -1.6960 o         1 RXC     -0.326000
     17 CBB         1.7210   -0.0740   -0.6440 c3        1 RXC      0.061000
     18 OAQ         2.1160   -1.3220   -1.1570 os        1 RXC     -0.261000
     19 CAR         2.8960   -2.0820   -0.2690 c2        1 RXC      0.321000
     20 OAB         2.8000   -1.9040    0.9270 o         1 RXC     -0.344000
     21 CAA         3.8670   -3.1130   -0.8050 c3        1 RXC     -0.215000
     22 CAU         2.2950    1.0300   -1.5040 c2        1 RXC     -0.100000
     23 CAK         3.0020    2.0700   -0.9170 c2        1 RXC     -0.122000
     24 CAH         3.5370    3.0760   -1.7060 c1        1 RXC     -0.117000
     25 CAJ         3.3660    3.0440   -3.0810 c1        1 RXC     -0.111000
     26 CAT         2.6590    2.0040   -3.6680 c1        1 RXC     -0.066000
     27 CLAG        2.3740    2.0070   -5.3870 cl        1 RXC     -0.007000
     28 CAN         2.1240    0.9980   -2.8790 c2        1 RXC     -0.088000
     29 HNAP       -4.5280   -1.6060    4.8590 hn        1 RXC      0.260000
     30 HAM        -5.6510    0.5700    0.7950 ha        1 RXC      0.171000
     31 HAI        -4.4560    1.3690   -1.0830 ha        1 RXC      0.168000
     32 HAL        -2.1160    1.0520   -1.2140 ha        1 RXC      0.168000
     33 HNAO       -0.0660   -0.1460    1.3690 hn        1 RXC      0.266000
     34 HBB         2.0510    0.0210    0.2740 h1        1 RXC      0.153000
     35 HAA         4.1130   -3.7350   -0.0870 hc        1 RXC      0.121000
     36 HAAA        4.6710   -2.6630   -1.1370 hc        1 RXC      0.121000
     37 HAAB        3.4440   -3.6100   -1.5370 hc        1 RXC      0.121000
     38 HAK         3.1230    2.0920    0.0510 ha        1 RXC      0.148000
     39 HAH         4.0350    3.8070   -1.2930 ha        1 RXC      0.148000
     40 HAJ         3.7440    3.7540   -3.6370 ha        1 RXC      0.152000
     41 HAN         1.6270    0.2670   -3.2910 ha        1 RXC      0.166000
@<TRIPOS>BOND
     1    1    2 1   
     2    2    6 1   
     3    3    4 1   
     4    3   29 1   
     5    4    5 1   
     6    4    8 1   
     7    6    7 1   
     8    6   10 1   
     9    7    8 1   
    10    7   13 1   
    11    8    9 1   
    12   10   30 1   
    13   11   12 1   
    14   11   31 1   
    15   12   32 1   
    16   13   14 1   
    17   14   15 1   
    18   14   33 1   
    19   15   16 1   
    20   15   17 1   
    21   17   18 1   
    22   17   22 1   
    23   17   34 1   
    24   18   19 1   
    25   19   20 1   
    26   19   21 1   
    27   21   35 1   
    28   21   36 1   
    29   21   37 1   
    30   22   23 1   
    31   22   28 1   
    32   23   24 1   
    33   23   38 1   
    34   24   39 1   
    35   25   26 1   
    36   25   40 1   
    37   26   28 1   
    38   28   41 1   
@<TRIPOS>SUBSTRUCTURE
     1 RXC         1 TEMP              0 ****  ****    0 ROOT
