@<TRIPOS>MOLECULE
RXC
   42    44     1     0     0
SMALL
bcc


@<TRIPOS>ATOM
      1 OAE         0.8010   -1.3800    0.3690 o         1 RXC     -0.540500
      2 CAX         1.9290   -0.9780    0.0560 c         1 RXC      0.709100
      3 NAP         2.9510   -0.9660    1.0040 n         1 RXC     -0.578500
      4 CAW         4.2380   -0.5140    0.7520 c         1 RXC      0.624500
      5 OAD         5.1310   -0.6010    1.6010 o         1 RXC     -0.500500
      6 CAZ         2.2420   -0.5060   -1.3270 ca        1 RXC     -0.082600
      7 CBA         3.5010    0.0180   -1.6610 ca        1 RXC     -0.115600
      8 CAY         4.5300    0.1140   -0.6040 c         1 RXC      0.526700
      9 OAF         5.6170    0.6790   -0.7690 o         1 RXC     -0.509100
     10 CAM         1.2240   -0.6170   -2.2820 ca        1 RXC     -0.038000
     11 CAI         1.4540   -0.2090   -3.5940 ca        1 RXC     -0.077000
     12 CAL         2.6930    0.3120   -3.9570 ca        1 RXC     -0.090000
     13 CAV         3.7170    0.4350   -2.9970 ca        1 RXC      0.008600
     14 NAO         4.9950    0.9970   -3.4440 n4        1 RXC     -0.565200
     15 CAS         5.8760   -0.0500   -4.1290 c         1 RXC      0.531100
     16 OAC         5.4730   -0.4830   -5.1900 o         1 RXC     -0.395100
     17 CBB         7.1790   -0.3690   -3.3810 c3        1 RXC      0.174400
     18 OAQ         7.7500   -1.5200   -3.9830 os        1 RXC     -0.416900
     19 CAR         7.2820   -2.7600   -3.5640 c         1 RXC      0.657100
     20 OAB         6.3010   -2.7420   -2.8220 o         1 RXC     -0.541000
     21 CAA         8.0680   -3.8840   -4.1260 c3        1 RXC     -0.149100
     22 CAU         8.1160    0.7880   -3.5300 ca        1 RXC     -0.160300
     23 CAK         8.2580    1.6840   -2.4620 ca        1 RXC     -0.130000
     24 CAH         9.1430    2.7530   -2.5750 ca        1 RXC     -0.112000
     25 CAJ         9.8920    2.9330   -3.7390 ca        1 RXC     -0.085000
     26 CAT         9.7540    2.0290   -4.7980 ca        1 RXC      0.013400
     27 CLAG       10.6630    2.2320   -6.2100 cl        1 RXC     -0.041400
     28 CAN         8.8690    0.9490   -4.6960 ca        1 RXC     -0.083000
     29 HNAP        2.7490   -1.3350    1.9170 hn        1 RXC      0.370500
     30 HAM         0.2420   -1.0320   -1.9800 ha        1 RXC      0.203000
     31 HAI         0.6560   -0.3010   -4.3520 ha        1 RXC      0.186000
     32 HAL         2.8640    0.6120   -5.0070 ha        1 RXC      0.174000
     33 HNAO        4.7950    1.7490   -4.1170 hn        1 RXC      0.475800
     34 HBB         6.9350   -0.5740   -2.2930 h1        1 RXC      0.126700
     35 HAA         7.3690   -4.5960   -4.6340 hc        1 RXC      0.099367
     36 HAAA        8.5820   -4.4150   -3.2840 hc        1 RXC      0.099367
     37 HAAB        8.8310   -3.5210   -4.8560 hc        1 RXC      0.099367
     38 HAK         7.6980    1.5300   -1.5240 ha        1 RXC      0.155000
     39 HAH         9.2650    3.4550   -1.7340 ha        1 RXC      0.162000
     40 HAJ        10.5960    3.7790   -3.8170 ha        1 RXC      0.171000
     41 HAN         8.7790    0.2180   -5.5170 ha        1 RXC      0.169000
     42 HAO2        5.5160    1.4010   -2.6470 hn        1 RXC      0.475800
@<TRIPOS>BOND
     1    1    2 2   
     2    2    3 1   
     3    2    6 1   
     4    3    4 1   
     5    3   29 1   
     6    4    5 2   
     7    4    8 1   
     8    6    7 ar  
     9    6   10 ar  
    10    7    8 1   
    11    7   13 ar  
    12    8    9 2   
    13   10   11 ar  
    14   10   30 1   
    15   11   12 ar  
    16   11   31 1   
    17   12   13 ar  
    18   12   32 1   
    19   13   14 1   
    20   14   15 1   
    21   14   33 1   
    22   14   42 1   
    23   15   16 2   
    24   15   17 1   
    25   17   18 1   
    26   17   22 1   
    27   17   34 1   
    28   18   19 1   
    29   19   20 2   
    30   19   21 1   
    31   21   35 1   
    32   21   36 1   
    33   21   37 1   
    34   22   23 ar  
    35   22   28 ar  
    36   23   24 ar  
    37   23   38 1   
    38   24   25 ar  
    39   24   39 1   
    40   25   26 ar  
    41   25   40 1   
    42   26   27 1   
    43   26   28 ar  
    44   28   41 1   
@<TRIPOS>SUBSTRUCTURE
     1 RXC         1 TEMP              0 ****  ****    0 ROOT
