@<TRIPOS>MOLECULE
RXC
   41    43     1     0     0
SMALL
bcc


@<TRIPOS>ATOM
      1 OAE        -6.0400    1.4470   -1.1380 o         1 RXC     -0.589500
      2 CAX        -5.0440    1.1380   -0.4620 c         1 RXC      0.714100
      3 NAP        -5.0860    1.3210    0.9210 n         1 RXC     -0.590500
      4 CAW        -4.0050    1.0600    1.7540 c         1 RXC      0.612500
      5 OAD        -4.1430    1.0800    2.9850 o         1 RXC     -0.550500
      6 CAZ        -3.8120    0.5500   -1.0570 ca        1 RXC     -0.086600
      7 CBA        -2.6400    0.3600   -0.2920 ca        1 RXC     -0.208600
      8 CAY        -2.6470    0.7890    1.1120 c         1 RXC      0.532700
      9 OAF        -1.6490    0.9600    1.8190 o         1 RXC     -0.498100
     10 CAM        -3.8750    0.1830   -2.3950 ca        1 RXC     -0.107000
     11 CAI        -2.7580   -0.4020   -3.0000 ca        1 RXC     -0.080000
     12 CAL        -1.5960   -0.6070   -2.2830 ca        1 RXC     -0.147000
     13 CAV        -1.5010   -0.2260   -0.9140 ca        1 RXC      0.148600
     14 NAO        -0.3140   -0.4120   -0.2040 n         1 RXC     -0.474100
     15 CAS         0.7160   -1.2960   -0.5130 c         1 RXC      0.657100
     16 OAC         0.7230   -2.0280   -1.5140 o         1 RXC     -0.565100
     17 CBB         1.8670   -1.3460    0.5140 c3        1 RXC      0.129400
     18 OAQ         2.9080   -2.1440   -0.0560 os        1 RXC     -0.422900
     19 CAR         2.9250   -3.4900    0.2340 c         1 RXC      0.650100
     20 OAB         2.1010   -3.9280    1.0360 o         1 RXC     -0.533000
     21 CAA         3.9980   -4.2080   -0.5060 c3        1 RXC     -0.147100
     22 CAU         2.4260    0.0140    0.7990 ca        1 RXC     -0.107300
     23 CAK         1.9170    0.7490    1.8770 ca        1 RXC     -0.122000
     24 CAH         2.4280    2.0150    2.1570 ca        1 RXC     -0.117000
     25 CAJ         3.4480    2.5560    1.3750 ca        1 RXC     -0.111000
     26 CAT         3.9560    1.8150    0.3040 ca        1 RXC      0.012400
     27 CLAG        5.2020    2.4620   -0.6540 cl        1 RXC     -0.085400
     28 CAN         3.4500    0.5450    0.0090 ca        1 RXC     -0.088000
     29 HNAP       -5.9500    1.6080    1.3350 hn        1 RXC      0.346500
     30 HAM        -4.8020    0.3540   -2.9670 ha        1 RXC      0.171000
     31 HAI        -2.8070   -0.6990   -4.0610 ha        1 RXC      0.152000
     32 HAL        -0.7290   -1.0740   -2.7840 ha        1 RXC      0.184000
     33 HNAO       -0.2020    0.1220    0.6360 hn        1 RXC      0.352500
     34 HBB         1.4760   -1.8280    1.4590 h1        1 RXC      0.113700
     35 HAA         4.4030   -5.0250    0.1390 hc        1 RXC      0.081700
     36 HAAA        3.5520   -4.6520   -1.4310 hc        1 RXC      0.081700
     37 HAAB        4.8180   -3.5090   -0.7960 hc        1 RXC      0.081700
     38 HAK         1.1130    0.3340    2.5060 ha        1 RXC      0.148000
     39 HAH         2.0220    2.5930    3.0020 ha        1 RXC      0.148000
     40 HAJ         3.8490    3.5550    1.6020 ha        1 RXC      0.152000
     41 HAN         3.8540   -0.0420   -0.8310 ha        1 RXC      0.166000
@<TRIPOS>BOND
     1    1    2 2   
     2    2    3 1   
     3    2    6 1   
     4    3    4 1   
     5    3   29 1   
     6    4    5 2   
     7    4    8 1   
     8    6    7 ar  
     9    6   10 ar  
    10    7    8 1   
    11    7   13 ar  
    12    8    9 2   
    13   10   11 ar  
    14   10   30 1   
    15   11   12 ar  
    16   11   31 1   
    17   12   13 ar  
    18   12   32 1   
    19   13   14 1   
    20   14   15 1   
    21   14   33 1   
    22   15   16 2   
    23   15   17 1   
    24   17   18 1   
    25   17   22 1   
    26   17   34 1   
    27   18   19 1   
    28   19   20 2   
    29   19   21 1   
    30   21   35 1   
    31   21   36 1   
    32   21   37 1   
    33   22   23 ar  
    34   22   28 ar  
    35   23   24 ar  
    36   23   38 1   
    37   24   25 ar  
    38   24   39 1   
    39   25   26 ar  
    40   25   40 1   
    41   26   27 1   
    42   26   28 ar  
    43   28   41 1   
@<TRIPOS>SUBSTRUCTURE
     1 RXC         1 TEMP              0 ****  ****    0 ROOT
