@<TRIPOS>MOLECULE
RXD
   49    51     1     0     0
SMALL
bcc


@<TRIPOS>ATOM
      1 FAN         0.0800   -0.1570   -0.4070 f         1 RXD     -0.238300
      2 CAN         1.3990   -0.5110   -0.2170 c3        1 RXD      0.157900
      3 CAO         1.9010   -0.1290    1.1830 c3        1 RXD      0.092400
      4 OAU         1.6410   -1.2670    2.0090 os        1 RXD     -0.330900
      5 CAZ         1.9330   -1.1170    3.3530 ca        1 RXD      0.153100
      6 CAI         2.5590    0.0050    3.9070 ca        1 RXD     -0.226000
      7 CAG         2.8070    0.0180    5.2780 ca        1 RXD     -0.072000
      8 CAH         2.4500   -1.0500    6.0940 ca        1 RXD     -0.186000
      9 CAL         1.5580   -2.2090    4.1470 ca        1 RXD     -0.214000
     10 CAX         1.8180   -2.1830    5.5360 ca        1 RXD      0.099600
     11 NAR         1.4270   -3.2990    6.2950 n         1 RXD     -0.467100
     12 CAV         1.5810   -3.4950    7.6580 c         1 RXD      0.667100
     13 OAA         2.1160   -2.6650    8.4170 o         1 RXD     -0.596100
     14 CAP         1.0480   -4.8170    8.1900 c3        1 RXD     -0.151400
     15 CAQ         1.2650   -4.9010    9.6860 c3        1 RXD     -0.147400
     16 CAW         0.7450   -6.2240   10.2210 c         1 RXD      0.667100
     17 OAB         0.2340   -7.0780    9.4780 o         1 RXD     -0.576100
     18 NAS         0.8830   -6.4040   11.5960 n         1 RXD     -0.474100
     19 CAY         0.4990   -7.5120   12.3580 ca        1 RXD      0.098600
     20 CAJ         0.7290   -7.4790   13.7560 ca        1 RXD     -0.176000
     21 CAK         0.3660   -8.5530   14.5590 ca        1 RXD     -0.047000
     22 CBD        -0.2320   -9.6860   14.0020 ca        1 RXD     -0.147600
     23 CBE        -0.4670   -9.7340   12.6190 ca        1 RXD     -0.111600
     24 CBC        -1.0970  -10.9210   12.0110 c         1 RXD      0.511700
     25 OAE        -1.3300  -11.0330   10.8090 o         1 RXD     -0.439100
     26 CAM        -0.1080   -8.6630   11.8010 ca        1 RXD     -0.114000
     27 CBB        -0.6060  -10.8110   14.8890 c         1 RXD      0.722100
     28 OAD        -0.4120  -10.8030   16.1170 o         1 RXD     -0.599500
     29 NAT        -1.2040  -11.9330   14.3080 n         1 RXD     -0.591500
     30 CBA        -1.4720  -12.0620   12.9490 c         1 RXD      0.609500
     31 OAC        -2.0080  -13.0950   12.5250 o         1 RXD     -0.551500
     32 HAN         1.5020   -1.6230   -0.3630 h1        1 RXD      0.058700
     33 HANA        2.0290    0.0260   -0.9790 h1        1 RXD      0.058700
     34 HAO         1.3530    0.7660    1.5750 h1        1 RXD      0.055700
     35 HAOA        3.0040    0.0670    1.1560 h1        1 RXD      0.055700
     36 HAI         2.8530    0.8620    3.2880 ha        1 RXD      0.139000
     37 HAG         3.2990    0.8940    5.7290 ha        1 RXD      0.137000
     38 HAH         2.6650   -0.9980    7.1730 ha        1 RXD      0.173000
     39 HAL         1.0670   -3.0670    3.6640 ha        1 RXD      0.149000
     40 HNAR        0.9830   -4.0290    5.7810 hn        1 RXD      0.321500
     41 HAP        -0.0480   -4.9090    7.9610 hc        1 RXD      0.087200
     42 HAPA        1.5690   -5.6720    7.6830 hc        1 RXD      0.087200
     43 HAQ         2.3600   -4.8000    9.9140 hc        1 RXD      0.088200
     44 HAQA        0.7380   -4.0480   10.1920 hc        1 RXD      0.088200
     45 HNAS        1.3050   -5.6580   12.1060 hn        1 RXD      0.324500
     46 HAJ         1.1990   -6.6010   14.2270 ha        1 RXD      0.144000
     47 HAK         0.5480   -8.5220   15.6480 ha        1 RXD      0.169000
     48 HAM        -0.3090   -8.7370   10.7150 ha        1 RXD      0.201000
     49 HNAT       -1.4560  -12.6910   14.9100 hn        1 RXD      0.344500
@<TRIPOS>BOND
     1    1    2 1   
     2    2    3 1   
     3    2   32 1   
     4    2   33 1   
     5    3    4 1   
     6    3   34 1   
     7    3   35 1   
     8    4    5 1   
     9    5    6 ar  
    10    5    9 ar  
    11    6    7 ar  
    12    6   36 1   
    13    7    8 ar  
    14    7   37 1   
    15    8   10 ar  
    16    8   38 1   
    17    9   10 ar  
    18    9   39 1   
    19   10   11 1   
    20   11   12 1   
    21   11   40 1   
    22   12   13 2   
    23   12   14 1   
    24   14   15 1   
    25   14   41 1   
    26   14   42 1   
    27   15   16 1   
    28   15   43 1   
    29   15   44 1   
    30   16   17 2   
    31   16   18 1   
    32   18   19 1   
    33   18   45 1   
    34   19   20 ar  
    35   19   26 ar  
    36   20   21 ar  
    37   20   46 1   
    38   21   22 ar  
    39   21   47 1   
    40   22   23 ar  
    41   22   27 1   
    42   23   24 1   
    43   23   26 ar  
    44   24   25 2   
    45   24   30 1   
    46   26   48 1   
    47   27   28 2   
    48   27   29 1   
    49   29   30 1   
    50   29   49 1   
    51   30   31 2   
@<TRIPOS>SUBSTRUCTURE
     1 RXD         1 TEMP              0 ****  ****    0 ROOT
