@<TRIPOS>MOLECULE
RXD
   49    47     1     0     0
SMALL
bcc


@<TRIPOS>ATOM
      1 FAN        -5.5970    3.8710    2.2070 f         1 RXD     -0.168000
      2 CAN        -5.8870    4.7210    1.2600 c3        1 RXD      0.006000
      3 CAO        -5.0490    4.4020   -0.0030 c3        1 RXD     -0.060000
      4 OAU        -4.7950    3.0010   -0.0670 os        1 RXD     -0.212000
      5 CAZ        -4.2460    2.5550   -1.3560 c2        1 RXD      0.108000
      6 CAI        -5.0700    2.4960   -2.4760 c1        1 RXD     -0.175000
      7 CAG        -4.5790    2.0050   -3.6790 c1        1 RXD     -0.142500
      8 CAH        -3.2650    1.5730   -3.7670 c1        1 RXD     -0.142500
      9 CAL        -2.9380    2.1260   -1.4400 c2        1 RXD     -0.225000
     10 CAX        -2.4390    1.6320   -2.6490 c1        1 RXD      0.101000
     11 NAR        -1.0520    1.2080   -2.7390 n         1 RXD     -0.316000
     12 CAV        -0.1300    1.5380   -1.6730 c2        1 RXD      0.312000
     13 OAA        -0.5240    2.1780   -0.6950 o         1 RXD     -0.381000
     14 CAP         1.3010    1.1020   -1.7580 c3        1 RXD     -0.185000
     15 CAQ         2.0690    1.6620   -0.5990 c3        1 RXD     -0.177000
     16 CAW         3.1620    0.6040   -0.1240 c2        1 RXD      0.309000
     17 OAB         4.3280    0.9240   -0.0710 o         1 RXD     -0.347000
     18 NAS         2.7420   -0.7100    0.3650 n         1 RXD     -0.323000
     19 CAY         3.7280   -1.6390    0.9200 c2        1 RXD      0.104000
     20 CAJ         4.2870   -2.5620    0.0150 c2        1 RXD     -0.150000
     21 CAK         4.3920   -3.9220    0.3700 c1        1 RXD     -0.050000
     22 CBD         3.9380   -4.3580    1.6320 c1        1 RXD     -0.129000
     23 CBE         3.3890   -3.4500    2.5180 c1        1 RXD     -0.093000
     24 CBC         2.9250   -3.9130    3.8990 c1        1 RXD      0.255000
     25 OAE         2.5260   -3.0970    4.7120 o         1 RXD     -0.212000
     26 CAM         3.2820   -2.0650    2.1550 c2        1 RXD     -0.135000
     27 CBB         4.1480   -5.8420    2.0730 c2        1 RXD      0.359000
     28 OAD         4.7600   -6.6250    1.3380 o         1 RXD     -0.322000
     29 NAT         3.6280   -6.3040    3.3650 n         1 RXD     -0.371000
     30 CBA         3.0620   -5.3570    4.2900 c2        1 RXD      0.268000
     31 OAC         2.5940   -5.7420    5.3310 o         1 RXD     -0.279000
     32 HAN        -6.8360    4.6580    1.0470 h1        1 RXD      0.098500
     33 HANA       -5.6900    5.5870    1.5490 h1        1 RXD      0.098500
     34 HAO        -4.2480    4.8580    0.0390 h1        1 RXD      0.097500
     35 HAOA       -5.5540    4.6890   -0.8240 h1        1 RXD      0.097500
     36 HAI        -5.9620    2.7900   -2.4180 ha        1 RXD      0.154000
     37 HAG        -5.1550    1.9660   -4.4560 ha        1 RXD      0.135500
     38 HAH        -2.9230    1.2290   -4.6060 ha        1 RXD      0.135500
     39 HAL        -2.3540    2.1710   -0.6490 ha        1 RXD      0.175000
     40 HNAR       -0.7740    0.7100   -3.4380 hn        1 RXD      0.235000
     41 HAP         1.6880    1.4300   -2.5960 hc        1 RXD      0.121500
     42 HAPA        1.3490    0.0480   -1.7340 hc        1 RXD      0.121500
     43 HAQ         1.4540    1.8510    0.1400 hc        1 RXD      0.130500
     44 HAQA        2.4930    2.4550   -0.8610 hc        1 RXD      0.130500
     45 HNAS        1.9170   -0.9700    0.2530 hn        1 RXD      0.265000
     46 HAJ         4.5970   -2.2510   -0.8990 ha        1 RXD      0.186000
     47 HAK         4.7780   -4.5590   -0.2540 ha        1 RXD      0.169000
     48 HAM         2.8190   -1.4480    2.7400 ha        1 RXD      0.165000
     49 HNAT        3.7140   -7.2260    3.6150 hn        1 RXD      0.257000
@<TRIPOS>BOND
     1    1    2 1   
     2    2    3 1   
     3    2   32 1   
     4    2   33 1   
     5    3    4 1   
     6    3   34 1   
     7    3   35 1   
     8    4    5 1   
     9    5    6 1   
    10    5    9 1   
    11    6   36 1   
    12    7    8 1   
    13    7   37 1   
    14    8   38 1   
    15    9   10 1   
    16    9   39 1   
    17   10   11 1   
    18   11   12 1   
    19   11   40 1   
    20   12   13 1   
    21   12   14 1   
    22   14   15 1   
    23   14   41 1   
    24   14   42 1   
    25   15   16 1   
    26   15   43 1   
    27   15   44 1   
    28   16   17 1   
    29   16   18 1   
    30   18   19 1   
    31   18   45 1   
    32   19   20 1   
    33   19   26 1   
    34   20   21 1   
    35   20   46 1   
    36   21   47 1   
    37   22   23 1   
    38   22   27 1   
    39   23   26 1   
    40   24   25 1   
    41   24   30 1   
    42   26   48 1   
    43   27   28 1   
    44   27   29 1   
    45   29   30 1   
    46   29   49 1   
    47   30   31 1   
@<TRIPOS>SUBSTRUCTURE
     1 RXD         1 TEMP              0 ****  ****    0 ROOT
