@<TRIPOS>MOLECULE
RXD
   51    53     1     0     0
SMALL
bcc


@<TRIPOS>ATOM
      1 FAN        -1.6460   -0.3950    3.8720 f         1 RXD     -0.234300
      2 CAN        -0.8040   -0.3310    2.7820 c3        1 RXD      0.157900
      3 CAO         0.6700   -0.4040    3.2070 c3        1 RXD      0.082400
      4 OAU         0.8770   -1.7750    3.5960 os        1 RXD     -0.309900
      5 CAZ         2.0210   -2.0630    4.2850 ca        1 RXD      0.181100
      6 CAI         3.0760   -1.1640    4.5250 ca        1 RXD     -0.147000
      7 CAG         4.1840   -1.5840    5.2540 ca        1 RXD     -0.055000
      8 CAH         4.2700   -2.8850    5.7530 ca        1 RXD     -0.151000
      9 CAL         2.0870   -3.3880    4.7610 ca        1 RXD     -0.167000
     10 CAX         3.2170   -3.7770    5.4940 ca        1 RXD     -0.040400
     11 NAR         3.3140   -5.1700    5.9540 n4        1 RXD     -0.535200
     12 CAV         2.1620   -5.5520    6.8500 c         1 RXD      0.545100
     13 OAA         1.3920   -6.3910    6.4080 o         1 RXD     -0.395100
     14 CAP         2.0830   -4.8700    8.1870 c3        1 RXD     -0.151400
     15 CAQ         0.7890   -5.2620    8.8870 c3        1 RXD     -0.155400
     16 CAW         0.7050   -4.5990   10.2310 c         1 RXD      0.547100
     17 OAB         1.5020   -3.8200   10.7290 o         1 RXD     -0.387100
     18 NAS        -0.5210   -4.9180   11.0640 n4        1 RXD     -0.540200
     19 CAY        -0.4010   -6.2130   11.7470 ca        1 RXD     -0.066400
     20 CAJ         0.0890   -6.2620   13.0660 ca        1 RXD     -0.076000
     21 CAK         0.1580   -7.4910   13.7200 ca        1 RXD     -0.054000
     22 CBD        -0.2510   -8.6620   13.0700 ca        1 RXD     -0.043600
     23 CBE        -0.7280   -8.6070   11.7540 ca        1 RXD     -0.121600
     24 CBC        -1.1380   -9.8460   11.0500 c         1 RXD      0.503700
     25 OAE        -1.4250   -9.8470    9.8550 o         1 RXD     -0.424100
     26 CAM        -0.8150   -7.3820   11.0870 ca        1 RXD     -0.079000
     27 CBB        -0.1770   -9.9630   13.8070 c         1 RXD      0.702100
     28 OAD         0.2920  -10.0260   14.9510 o         1 RXD     -0.532500
     29 NAT        -0.6580  -11.0990   13.1660 n         1 RXD     -0.579500
     30 CBA        -1.1750  -11.1250   11.8700 c         1 RXD      0.617500
     31 OAC        -1.6360  -12.1660   11.3960 o         1 RXD     -0.479500
     32 HAN        -1.0400   -1.1820    2.0860 h1        1 RXD      0.080700
     33 HANA       -0.9620    0.6480    2.2490 h1        1 RXD      0.080700
     34 HAO         0.8690    0.2780    4.0730 h1        1 RXD      0.072200
     35 HAOA        1.3430   -0.1680    2.3430 h1        1 RXD      0.072200
     36 HAI         3.0380   -0.1350    4.1280 ha        1 RXD      0.183000
     37 HAG         5.0170   -0.8820    5.4360 ha        1 RXD      0.184000
     38 HAH         5.1680   -3.1880    6.3170 ha        1 RXD      0.161000
     39 HAL         1.2620   -4.0780    4.5220 ha        1 RXD      0.178000
     40 HNAR        3.3070   -5.7860    5.1220 hn        1 RXD      0.479300
     41 HAP         2.9700   -5.1680    8.8140 hc        1 RXD      0.129700
     42 HAPA        2.1300   -3.7520    8.0490 hc        1 RXD      0.129700
     43 HAQ         0.7380   -6.3820    9.0140 hc        1 RXD      0.128200
     44 HAQA       -0.0950   -4.9560    8.2570 hc        1 RXD      0.128200
     45 HNAS       -1.3550   -4.9320   10.4630 hn        1 RXD      0.479300
     46 HAJ         0.4130   -5.3510   13.6000 ha        1 RXD      0.179000
     47 HAK         0.5330   -7.5520   14.7620 ha        1 RXD      0.216000
     48 HAM        -1.2240   -7.3720   10.0600 ha        1 RXD      0.175000
     49 HNAT       -0.6550  -11.9620   13.6830 hn        1 RXD      0.375500
     50 HAR2        4.2020   -5.3010    6.4550 hn        1 RXD      0.479300
     51 HAS2       -0.6380   -4.1800   11.7790 hn        1 RXD      0.479300
@<TRIPOS>BOND
     1    1    2 1   
     2    2    3 1   
     3    2   32 1   
     4    2   33 1   
     5    3    4 1   
     6    3   34 1   
     7    3   35 1   
     8    4    5 1   
     9    5    6 ar  
    10    5    9 ar  
    11    6    7 ar  
    12    6   36 1   
    13    7    8 ar  
    14    7   37 1   
    15    8   10 ar  
    16    8   38 1   
    17    9   10 ar  
    18    9   39 1   
    19   10   11 1   
    20   11   12 1   
    21   11   40 1   
    22   11   50 1   
    23   12   13 2   
    24   12   14 1   
    25   14   15 1   
    26   14   41 1   
    27   14   42 1   
    28   15   16 1   
    29   15   43 1   
    30   15   44 1   
    31   16   17 2   
    32   16   18 1   
    33   18   19 1   
    34   18   45 1   
    35   18   51 1   
    36   19   20 ar  
    37   19   26 ar  
    38   20   21 ar  
    39   20   46 1   
    40   21   22 ar  
    41   21   47 1   
    42   22   23 ar  
    43   22   27 1   
    44   23   24 1   
    45   23   26 ar  
    46   24   25 2   
    47   24   30 1   
    48   26   48 1   
    49   27   28 2   
    50   27   29 1   
    51   29   30 1   
    52   29   49 1   
    53   30   31 2   
@<TRIPOS>SUBSTRUCTURE
     1 RXD         1 TEMP              0 ****  ****    0 ROOT
