@<TRIPOS>MOLECULE
RXD
   49    51     1     0     0
SMALL
bcc


@<TRIPOS>ATOM
      1 FAN        10.3490   -2.6260   -0.9800 f         1 RXD     -0.238300
      2 CAN        10.1700   -2.0960    0.2810 c3        1 RXD      0.157900
      3 CAO         9.4540   -0.7390    0.2380 c3        1 RXD      0.092400
      4 OAU         8.0590   -1.0360    0.3390 os        1 RXD     -0.330900
      5 CAZ         7.2020    0.0440    0.2300 ca        1 RXD      0.153100
      6 CAI         7.6160    1.3790    0.1510 ca        1 RXD     -0.226000
      7 CAG         6.6420    2.3710    0.0600 ca        1 RXD     -0.072000
      8 CAH         5.2860    2.0640    0.0490 ca        1 RXD     -0.186000
      9 CAL         5.8430   -0.3000    0.2200 ca        1 RXD     -0.214000
     10 CAX         4.8670    0.7180    0.1290 ca        1 RXD      0.099600
     11 NAR         3.5170    0.3290    0.1220 n         1 RXD     -0.467100
     12 CAV         2.3990    1.1450    0.0480 c         1 RXD      0.667100
     13 OAA         2.4560    2.3870   -0.0230 o         1 RXD     -0.596100
     14 CAP         1.0620    0.4190    0.0590 c3        1 RXD     -0.151400
     15 CAQ        -0.0720    1.4170   -0.0390 c3        1 RXD     -0.147400
     16 CAW        -1.4100    0.6990   -0.0150 c         1 RXD      0.667100
     17 OAB        -1.4920   -0.5360    0.0850 o         1 RXD     -0.576100
     18 NAS        -2.5300    1.5250   -0.1110 n         1 RXD     -0.474100
     19 CAY        -3.8760    1.1460   -0.1150 ca        1 RXD      0.098600
     20 CAJ        -4.8590    2.1600   -0.2310 ca        1 RXD     -0.176000
     21 CAK        -6.2110    1.8380   -0.2390 ca        1 RXD     -0.047000
     22 CBD        -6.6240    0.5080   -0.1330 ca        1 RXD     -0.147600
     23 CBE        -5.6630   -0.5070   -0.0160 ca        1 RXD     -0.111600
     24 CBC        -6.0790   -1.9180    0.0980 c         1 RXD      0.511700
     25 OAE        -5.2930   -2.8570    0.2050 o         1 RXD     -0.439100
     26 CAM        -4.3030   -0.1990   -0.0070 ca        1 RXD     -0.114000
     27 CBB        -8.0730    0.2040   -0.1450 c         1 RXD      0.722100
     28 OAD        -8.9520    1.0780   -0.2460 o         1 RXD     -0.599500
     29 NAT        -8.4630   -1.1340   -0.0380 n         1 RXD     -0.591500
     30 CBA        -7.5760   -2.2010    0.0810 c         1 RXD      0.609500
     31 OAC        -8.0160   -3.3560    0.1700 o         1 RXD     -0.551500
     32 HAN         9.5680   -2.8200    0.8980 h1        1 RXD      0.058700
     33 HANA       11.1800   -1.9500    0.7560 h1        1 RXD      0.058700
     34 HAO         9.7650   -0.1120    1.1130 h1        1 RXD      0.055700
     35 HAOA        9.6660   -0.2030   -0.7230 h1        1 RXD      0.055700
     36 HAI         8.6790    1.6510    0.1590 ha        1 RXD      0.139000
     37 HAG         6.9520    3.4260   -0.0030 ha        1 RXD      0.137000
     38 HAH         4.5500    2.8810   -0.0230 ha        1 RXD      0.173000
     39 HAL         5.5700   -1.3630    0.2820 ha        1 RXD      0.149000
     40 HNAR        3.3560   -0.6530    0.1750 hn        1 RXD      0.321500
     41 HAP         1.0080   -0.3010   -0.8010 hc        1 RXD      0.087200
     42 HAPA        0.9600   -0.1790    1.0040 hc        1 RXD      0.087200
     43 HAQ        -0.0120    2.1420    0.8170 hc        1 RXD      0.088200
     44 HAQA        0.0280    2.0100   -0.9870 hc        1 RXD      0.088200
     45 HNAS       -2.3590    2.5040   -0.1890 hn        1 RXD      0.324500
     46 HAJ        -4.5660    3.2180   -0.3170 ha        1 RXD      0.144000
     47 HAK        -6.9720    2.6330   -0.3310 ha        1 RXD      0.169000
     48 HAM        -3.5740   -1.0260    0.0860 ha        1 RXD      0.201000
     49 HNAT       -9.4420   -1.3370   -0.0470 hn        1 RXD      0.344500
@<TRIPOS>BOND
     1    1    2 1   
     2    2    3 1   
     3    2   32 1   
     4    2   33 1   
     5    3    4 1   
     6    3   34 1   
     7    3   35 1   
     8    4    5 1   
     9    5    6 ar  
    10    5    9 ar  
    11    6    7 ar  
    12    6   36 1   
    13    7    8 ar  
    14    7   37 1   
    15    8   10 ar  
    16    8   38 1   
    17    9   10 ar  
    18    9   39 1   
    19   10   11 1   
    20   11   12 1   
    21   11   40 1   
    22   12   13 2   
    23   12   14 1   
    24   14   15 1   
    25   14   41 1   
    26   14   42 1   
    27   15   16 1   
    28   15   43 1   
    29   15   44 1   
    30   16   17 2   
    31   16   18 1   
    32   18   19 1   
    33   18   45 1   
    34   19   20 ar  
    35   19   26 ar  
    36   20   21 ar  
    37   20   46 1   
    38   21   22 ar  
    39   21   47 1   
    40   22   23 ar  
    41   22   27 1   
    42   23   24 1   
    43   23   26 ar  
    44   24   25 2   
    45   24   30 1   
    46   26   48 1   
    47   27   28 2   
    48   27   29 1   
    49   29   30 1   
    50   29   49 1   
    51   30   31 2   
@<TRIPOS>SUBSTRUCTURE
     1 RXD         1 TEMP              0 ****  ****    0 ROOT
