@<TRIPOS>MOLECULE
RXD
   49    51     1     0     0
SMALL
bcc


@<TRIPOS>ATOM
      1 FAN         0.1050   -0.1820   -0.4250 f         1 RXD     -0.238300
      2 CAN         1.4260   -0.5210   -0.2200 c3        1 RXD      0.157900
      3 CAO         1.9080   -0.1300    1.1840 c3        1 RXD      0.092400
      4 OAU         1.6540   -1.2690    2.0100 os        1 RXD     -0.330900
      5 CAZ         1.9300   -1.1120    3.3560 ca        1 RXD      0.153100
      6 CAI         2.5370    0.0180    3.9140 ca        1 RXD     -0.226000
      7 CAG         2.7720    0.0360    5.2870 ca        1 RXD     -0.072000
      8 CAH         2.4200   -1.0340    6.1010 ca        1 RXD     -0.186000
      9 CAL         1.5610   -2.2080    4.1490 ca        1 RXD     -0.214000
     10 CAX         1.8070   -2.1760    5.5400 ca        1 RXD      0.099600
     11 NAR         1.4230   -3.2950    6.2970 ns        1 RXD     -0.467100
     12 CAV         1.5650   -3.4860    7.6620 c         1 RXD      0.667100
     13 OAA         2.0820   -2.6490    8.4250 o         1 RXD     -0.596100
     14 CAP         1.0430   -4.8140    8.1910 c3        1 RXD     -0.151400
     15 CAQ         1.2450   -4.8930    9.6890 c3        1 RXD     -0.147400
     16 CAW         0.7380   -6.2220   10.2220 c         1 RXD      0.667100
     17 OAB         0.2480   -7.0850    9.4750 o         1 RXD     -0.576100
     18 NAS         0.8640   -6.3970   11.5990 ns        1 RXD     -0.474100
     19 CAY         0.4870   -7.5090   12.3590 ca        1 RXD      0.098600
     20 CAJ         0.7000   -7.4700   13.7590 ca        1 RXD     -0.176000
     21 CAK         0.3440   -8.5470   14.5610 ca        1 RXD     -0.047000
     22 CBD        -0.2300   -9.6900   13.9990 ca        1 RXD     -0.147600
     23 CBE        -0.4470   -9.7450   12.6140 ca        1 RXD     -0.111600
     24 CBC        -1.0520  -10.9430   12.0010 c         1 RXD      0.511700
     25 OAE        -1.2690  -11.0600   10.7960 o         1 RXD     -0.439100
     26 CAM        -0.0950   -8.6700   11.7970 ca        1 RXD     -0.114000
     27 CBB        -0.5960  -10.8190   14.8850 c         1 RXD      0.722100
     28 OAD        -0.4180  -10.8050   16.1150 o         1 RXD     -0.599500
     29 NAT        -1.1710  -11.9510   14.2990 ns        1 RXD     -0.591500
     30 CBA        -1.4210  -12.0870   12.9370 c         1 RXD      0.609500
     31 OAC        -1.9350  -13.1300   12.5090 o         1 RXD     -0.551500
     32 HAN         1.5440   -1.6310   -0.3630 h1        1 RXD      0.058700
     33 HANA        2.0570    0.0220   -0.9770 h1        1 RXD      0.058700
     34 HAO         1.3470    0.7600    1.5690 h1        1 RXD      0.055700
     35 HAOA        3.0090    0.0790    1.1680 h1        1 RXD      0.055700
     36 HAI         2.8270    0.8770    3.2960 ha        1 RXD      0.139000
     37 HAG         3.2480    0.9200    5.7410 ha        1 RXD      0.137000
     38 HAH         2.6240   -0.9780    7.1830 ha        1 RXD      0.173000
     39 HAL         1.0850   -3.0720    3.6620 ha        1 RXD      0.149000
     40 HNAR        0.9940   -4.0320    5.7800 hn        1 RXD      0.321500
     41 HAP         1.5820   -5.6640    7.6910 hc        1 RXD      0.087200
     42 HAPA       -0.0480   -4.9220    7.9500 hc        1 RXD      0.087200
     43 HAQ         0.7010   -4.0460   10.1880 hc        1 RXD      0.088200
     44 HAQA        2.3360   -4.7760    9.9300 hc        1 RXD      0.088200
     45 HNAS        1.2690   -5.6440   12.1120 hn        1 RXD      0.324500
     46 HAJ         1.1510   -6.5830   14.2330 ha        1 RXD      0.144000
     47 HAK         0.5130   -8.5110   15.6510 ha        1 RXD      0.169000
     48 HAM        -0.2820   -8.7490   10.7090 ha        1 RXD      0.201000
     49 HNAT       -1.4180  -12.7110   14.9000 hn        1 RXD      0.344500
@<TRIPOS>BOND
     1    1    2 1   
     2    2    3 1   
     3    2   32 1   
     4    2   33 1   
     5    3    4 1   
     6    3   34 1   
     7    3   35 1   
     8    4    5 1   
     9    5    6 ar  
    10    5    9 ar  
    11    6    7 ar  
    12    6   36 1   
    13    7    8 ar  
    14    7   37 1   
    15    8   10 ar  
    16    8   38 1   
    17    9   10 ar  
    18    9   39 1   
    19   10   11 1   
    20   11   12 1   
    21   11   40 1   
    22   12   13 2   
    23   12   14 1   
    24   14   15 1   
    25   14   41 1   
    26   14   42 1   
    27   15   16 1   
    28   15   43 1   
    29   15   44 1   
    30   16   17 2   
    31   16   18 1   
    32   18   19 1   
    33   18   45 1   
    34   19   20 ar  
    35   19   26 ar  
    36   20   21 ar  
    37   20   46 1   
    38   21   22 ar  
    39   21   47 1   
    40   22   23 ar  
    41   22   27 1   
    42   23   24 1   
    43   23   26 ar  
    44   24   25 2   
    45   24   30 1   
    46   26   48 1   
    47   27   28 2   
    48   27   29 1   
    49   29   30 1   
    50   29   49 1   
    51   30   31 2   
@<TRIPOS>SUBSTRUCTURE
     1 RXD         1 TEMP              0 ****  ****    0 ROOT
