@<TRIPOS>MOLECULE
RXP
   96   100     1     0     0
SMALL
bcc


@<TRIPOS>ATOM
      1 N1         -0.3510   -0.9460    0.4030 n4        1 RXP     -0.763400
      2 N2          0.9410   -1.2230   -3.2070 n4        1 RXP     -0.668800
      3 C1          0.9170   -0.6760   -1.8150 c3        1 RXP      0.043500
      4 C2          1.0520    0.8780   -1.8040 c3        1 RXP      0.021800
      5 C3          2.1060    1.3220   -2.7070 cc        1 RXP     -0.328400
      6 C4          3.5260    1.0480   -2.5910 ca        1 RXP     -0.094800
      7 C5          1.9560    2.2810   -3.7320 cd        1 RXP     -0.014100
      8 N3          3.1820    2.5820   -4.2800 na        1 RXP     -0.142400
      9 C6          4.1740    1.8570   -3.5960 ca        1 RXP     -0.059200
     10 C7          4.3090    0.2500   -1.7540 ca        1 RXP     -0.137000
     11 C8          5.5690    1.8490   -3.7570 ca        1 RXP     -0.100000
     12 C9          5.6860    0.2510   -1.9180 ca        1 RXP     -0.097000
     13 C10         6.3060    1.0380   -2.9080 ca        1 RXP     -0.095000
     14 C11        -0.3740   -1.0330   -1.0830 c         1 RXP      0.522100
     15 O1         -1.4290   -1.3550   -1.6140 o         1 RXP     -0.402100
     16 O2          2.5240   -2.9120   -2.9640 o         1 RXP     -0.384100
     17 C12         1.3690   -2.6770   -3.2750 c         1 RXP      0.539100
     18 C13         0.2820   -4.7990   -2.6770 c3        1 RXP     -0.095400
     19 C14        -0.2100   -4.5210    1.1050 ca        1 RXP     -0.090300
     20 C15        -1.3110   -4.8270    1.9090 ca        1 RXP     -0.180000
     21 C16        -1.4600   -4.2210    3.1590 ca        1 RXP     -0.117500
     22 C17        -0.5140   -3.2990    3.6110 ca        1 RXP     -0.121000
     23 C18         0.5890   -2.9890    2.8120 ca        1 RXP     -0.117500
     24 C19         0.7390   -3.5890    1.5580 ca        1 RXP     -0.180000
     25 C20         0.3180   -3.6900   -3.7320 c3        1 RXP     -0.072700
     26 C38        -0.1790   -4.2380   -1.3490 c3        1 RXP     -0.068400
     27 C39        -0.0070   -5.2120   -0.2010 c3        1 RXP     -0.046100
     28 C21         0.6310   -4.2290   -5.1240 c3        1 RXP     -0.440600
     29 P          -0.0940   -3.2630   -6.2590 p5        1 RXP      1.510100
     30 O1P        -0.0770   -1.8930   -5.7340 o         1 RXP     -0.896300
     31 O2P        -1.6040   -3.7770   -6.3560 oh        1 RXP     -0.828400
     32 N4         -0.4450   -4.0740   -8.8040 n4        1 RXP     -0.615800
     33 C22         0.4790   -3.4690   -7.8220 c3        1 RXP     -0.201700
     34 C23         1.8200   -4.2190   -7.7580 c3        1 RXP     -0.034100
     35 C24         2.4160   -4.4550   -9.0970 ca        1 RXP     -0.183300
     36 C25         3.1130   -3.4320   -9.7510 ca        1 RXP     -0.125500
     37 C26         2.3260   -5.7230   -9.6900 ca        1 RXP     -0.125500
     38 C27         3.7110   -3.6730  -10.9870 ca        1 RXP     -0.106000
     39 C28         2.9250   -5.9600  -10.9250 ca        1 RXP     -0.106000
     40 C29         3.6190   -4.9360  -11.5750 ca        1 RXP     -0.077000
     41 C30        -1.0480   -3.0760   -9.7850 c         1 RXP      0.626100
     42 O5         -0.9530   -1.8700   -9.6040 o         1 RXP     -0.442000
     43 O6         -1.6470   -3.7290  -10.7720 os        1 RXP     -0.399900
     44 C31        -2.2830   -2.8840  -11.8420 c3        1 RXP      0.235700
     45 C32        -2.7940   -3.8630  -12.8170 ca        1 RXP     -0.173300
     46 C33        -4.0970   -4.3680  -12.6900 ca        1 RXP     -0.081000
     47 C34        -4.6010   -5.2400  -13.6520 ca        1 RXP     -0.128000
     48 C35        -3.8100   -5.6180  -14.7390 ca        1 RXP     -0.062000
     49 C36        -2.5090   -5.1240  -14.8640 ca        1 RXP     -0.128000
     50 C37        -1.9980   -4.2520  -13.9060 ca        1 RXP     -0.081000
     51 HN11       -1.3060   -0.7860    0.7600 hn        1 RXP      0.496800
     52 HN22       -0.0030   -1.8580    0.8190 hn        1 RXP      0.496800
     53 HN2         1.6410   -0.6470   -3.7320 hn        1 RXP      0.509300
     54 H1          1.8210   -1.1120   -1.2800 hx        1 RXP      0.153700
     55 H21         1.3040    1.1670   -0.7460 hc        1 RXP      0.081700
     56 H22A        0.0690    1.3440   -2.0820 hc        1 RXP      0.081700
     57 H5          1.0400    2.7670   -4.0880 h4        1 RXP      0.189000
     58 HN3         3.3600    3.2840   -4.9580 hn        1 RXP      0.334700
     59 H7          3.8480   -0.3490   -0.9580 ha        1 RXP      0.105000
     60 H8          6.0600    2.4750   -4.5170 ha        1 RXP      0.168000
     61 H9          6.3180   -0.3620   -1.2550 ha        1 RXP      0.159000
     62 H10         7.4060    1.0170   -2.9970 ha        1 RXP      0.171000
     63 H131       -0.4270   -5.6030   -3.0130 hc        1 RXP      0.100200
     64 H132        1.3000   -5.2630   -2.5790 hc        1 RXP      0.100200
     65 H15        -2.0500   -5.5740    1.5760 ha        1 RXP      0.148000
     66 H16        -2.3150   -4.4930    3.8030 ha        1 RXP      0.166000
     67 H17        -0.6160   -2.8480    4.6120 ha        1 RXP      0.175000
     68 H18         1.3760   -2.3230    3.2030 ha        1 RXP      0.166000
     69 H19         1.6750   -3.4510    0.9950 ha        1 RXP      0.148000
     70 H20        -0.7010   -3.2010   -3.7620 hc        1 RXP      0.089700
     71 H381       -1.2560   -3.9240   -1.4230 hc        1 RXP      0.010700
     72 H382        0.4220   -3.3110   -1.1210 hc        1 RXP      0.010700
     73 H391       -0.7360   -6.0600   -0.3130 hc        1 RXP      0.087700
     74 H392        1.0240   -5.6590   -0.2240 hc        1 RXP      0.087700
     75 H211        0.2590   -5.2950   -5.1600 hc        1 RXP      0.152700
     76 H212        1.7470   -4.3370   -5.2160 hc        1 RXP      0.152700
     77 HOP        -2.3260   -3.2090   -6.0830 ho        1 RXP      0.525000
     78 HN4        -1.2250   -4.5470   -8.3220 hn        1 RXP      0.487800
     79 H22         0.7430   -2.4280   -8.2330 hx        1 RXP      0.198700
     80 H231        1.6630   -5.2010   -7.2340 hc        1 RXP      0.075200
     81 H232        2.5150   -3.5860   -7.1420 hc        1 RXP      0.075200
     82 H25         3.2050   -2.4390   -9.2850 ha        1 RXP      0.133000
     83 H26         1.8210   -6.5500   -9.1670 ha        1 RXP      0.133000
     84 H27         4.2690   -2.8680  -11.4940 ha        1 RXP      0.169500
     85 H28         2.8660   -6.9620  -11.3830 ha        1 RXP      0.169500
     86 H29         4.1040   -5.1290  -12.5470 ha        1 RXP      0.175000
     87 H311       -3.0830   -2.2920  -11.3300 h1        1 RXP      0.087200
     88 H312       -1.4730   -2.2230  -12.2430 h1        1 RXP      0.087200
     89 H33        -4.7270   -4.0630  -11.8410 ha        1 RXP      0.135500
     90 H34        -5.6300   -5.6250  -13.5600 ha        1 RXP      0.162000
     91 H35        -4.2150   -6.3030  -15.5030 ha        1 RXP      0.166000
     92 H36        -1.8900   -5.4170  -15.7270 ha        1 RXP      0.162000
     93 H37        -0.9780   -3.8550  -14.0140 ha        1 RXP      0.135500
     94 H13         0.2580   -0.1820    0.7180 hn        1 RXP      0.496800
     95 H221        0.0320   -1.0950   -3.6880 hn        1 RXP      0.509300
     96 H42         0.0670   -4.7760   -9.3800 hn        1 RXP      0.487800
@<TRIPOS>BOND
     1    1   14 1   
     2    1   51 1   
     3    1   52 1   
     4    1   94 1   
     5    2    3 1   
     6    2   17 1   
     7    2   53 1   
     8    2   95 1   
     9    3    4 1   
    10    3   14 1   
    11    3   54 1   
    12    4    5 1   
    13    4   55 1   
    14    4   56 1   
    15    5    6 1   
    16    5    7 2   
    17    6    9 ar  
    18    6   10 ar  
    19    7    8 1   
    20    7   57 1   
    21    8    9 1   
    22    8   58 1   
    23    9   11 ar  
    24   10   12 ar  
    25   10   59 1   
    26   11   13 ar  
    27   11   60 1   
    28   12   13 ar  
    29   12   61 1   
    30   13   62 1   
    31   14   15 2   
    32   16   17 2   
    33   17   25 1   
    34   18   25 1   
    35   18   26 1   
    36   18   63 1   
    37   18   64 1   
    38   19   20 ar  
    39   19   24 ar  
    40   19   27 1   
    41   20   21 ar  
    42   20   65 1   
    43   21   22 ar  
    44   21   66 1   
    45   22   23 ar  
    46   22   67 1   
    47   23   24 ar  
    48   23   68 1   
    49   24   69 1   
    50   25   28 1   
    51   25   70 1   
    52   26   27 1   
    53   26   71 1   
    54   26   72 1   
    55   27   73 1   
    56   27   74 1   
    57   28   29 1   
    58   28   75 1   
    59   28   76 1   
    60   29   30 2   
    61   29   31 1   
    62   29   33 1   
    63   31   77 1   
    64   32   33 1   
    65   32   41 1   
    66   32   78 1   
    67   32   96 1   
    68   33   34 1   
    69   33   79 1   
    70   34   35 1   
    71   34   80 1   
    72   34   81 1   
    73   35   36 ar  
    74   35   37 ar  
    75   36   38 ar  
    76   36   82 1   
    77   37   39 ar  
    78   37   83 1   
    79   38   40 ar  
    80   38   84 1   
    81   39   40 ar  
    82   39   85 1   
    83   40   86 1   
    84   41   42 2   
    85   41   43 1   
    86   43   44 1   
    87   44   45 1   
    88   44   87 1   
    89   44   88 1   
    90   45   46 ar  
    91   45   50 ar  
    92   46   47 ar  
    93   46   89 1   
    94   47   48 ar  
    95   47   90 1   
    96   48   49 ar  
    97   48   91 1   
    98   49   50 ar  
    99   49   92 1   
   100   50   93 1   
@<TRIPOS>SUBSTRUCTURE
     1 RXP         1 TEMP              0 ****  ****    0 ROOT
