@<TRIPOS>MOLECULE
RXP
   95    99     1     0     0
SMALL
bcc


@<TRIPOS>ATOM
      1 N1          1.6270   -1.6470    0.3060 nz        1 RXP     -0.764400
      2 N2          0.0860   -1.5950   -2.2080 ns        1 RXP     -0.552900
      3 C1          0.2280   -0.3710   -1.4630 c3        1 RXP      0.043700
      4 C2         -1.0420    0.5140   -1.4890 c3        1 RXP      0.003800
      5 C3         -1.4920    0.7770   -2.8550 cc        1 RXP     -0.223400
      6 C4         -0.7840    1.5100   -3.8840 ca        1 RXP     -0.090800
      7 C5         -2.7520    0.4520   -3.3770 cd        1 RXP     -0.061100
      8 N3         -2.8600    0.9070   -4.6840 na        1 RXP     -0.168400
      9 C6         -1.6780    1.5810   -5.0180 ca        1 RXP     -0.054200
     10 C7          0.4690    2.1250   -3.9650 ca        1 RXP     -0.111000
     11 C8         -1.3070    2.2470   -6.1970 ca        1 RXP     -0.131000
     12 C9          0.8220    2.7790   -5.1350 ca        1 RXP     -0.132000
     13 C10        -0.0540    2.8380   -6.2350 ca        1 RXP     -0.111000
     14 C11         0.5840   -0.6040    0.0160 c         1 RXP      0.520100
     15 O1          0.1600    0.0070    0.9810 o         1 RXP     -0.392100
     16 O2          2.3370   -1.8850   -2.4020 o         1 RXP     -0.635100
     17 C12         1.1890   -2.2100   -2.7780 c         1 RXP      0.656100
     18 C13         1.2290   -4.6620   -3.0170 c3        1 RXP     -0.086400
     19 C14         1.0750   -5.1790    0.1490 ca        1 RXP     -0.092300
     20 C15         0.2240   -4.6080    1.1060 ca        1 RXP     -0.147500
     21 C16         0.7520   -3.9380    2.2100 ca        1 RXP     -0.146500
     22 C17         2.1360   -3.8230    2.3650 ca        1 RXP     -0.176000
     23 C18         2.9880   -4.3850    1.4130 ca        1 RXP     -0.146500
     24 C19         2.4620   -5.0590    0.3100 ca        1 RXP     -0.147500
     25 C20         0.9730   -3.3550   -3.7700 c3        1 RXP     -0.105700
     26 C38         0.0620   -5.0670   -2.1380 c3        1 RXP     -0.083400
     27 C39         0.5050   -5.9540   -0.9880 c3        1 RXP     -0.047100
     28 C21         1.9200   -3.1920   -4.9510 c3        1 RXP     -0.454600
     29 P           1.1080   -3.0480   -6.3580 p5        1 RXP      1.476100
     30 O1P         1.6000   -1.6810   -7.0130 oh        1 RXP     -0.804400
     31 O2P        -0.3560   -3.0490   -6.3720 o         1 RXP     -0.863300
     32 N4          0.6350   -4.3090   -8.6100 ny        1 RXP     -0.616800
     33 C22         1.6310   -4.1990   -7.5140 c3        1 RXP     -0.153700
     34 C23         1.8700   -5.5320   -6.7980 c3        1 RXP     -0.039100
     35 C24         1.8170   -6.7230   -7.6870 ca        1 RXP     -0.171300
     36 C25         2.9500   -7.1120   -8.4120 ca        1 RXP     -0.127500
     37 C26         0.6470   -7.4920   -7.7650 ca        1 RXP     -0.127500
     38 C27         2.9110   -8.2550   -9.2100 ca        1 RXP     -0.113000
     39 C28         0.6130   -8.6340   -8.5630 ca        1 RXP     -0.113000
     40 C29         1.7440   -9.0170   -9.2870 ca        1 RXP     -0.088000
     41 C30         1.0970   -3.7380   -9.9240 c         1 RXP      0.623100
     42 O5          2.2250   -3.3040  -10.1050 o         1 RXP     -0.425000
     43 O6          0.1050   -3.8320  -10.8220 os        1 RXP     -0.405900
     44 C31         0.3500   -3.2570  -12.1560 c3        1 RXP      0.214700
     45 C32         0.0890   -1.8000  -12.1620 ca        1 RXP     -0.186300
     46 C33         1.1530   -0.8950  -12.0560 ca        1 RXP     -0.091500
     47 C34         0.9120    0.4750  -12.1370 ca        1 RXP     -0.132000
     48 C35        -0.3890    0.9470  -12.3210 ca        1 RXP     -0.086000
     49 C36        -1.4520    0.0480  -12.4190 ca        1 RXP     -0.132000
     50 C37        -1.2160   -1.3230  -12.3410 ca        1 RXP     -0.091500
     51 HN11        2.4300   -1.5200   -0.3280 hn        1 RXP      0.478800
     52 HN22        1.2380   -2.5910    0.1500 hn        1 RXP      0.478800
     53 HN2        -0.8150   -1.7490   -2.6130 hn        1 RXP      0.351500
     54 H1          1.0990    0.2340   -1.8800 h1        1 RXP      0.120700
     55 H21        -0.7790    1.4810   -0.9740 hc        1 RXP      0.085700
     56 H22A       -1.8560    0.0230   -0.8910 hc        1 RXP      0.085700
     57 H5         -3.5840   -0.0680   -2.8940 h4        1 RXP      0.179000
     58 HN3        -3.6860    0.9070   -5.2270 hn        1 RXP      0.317700
     59 H7          1.1510    2.1130   -3.1040 ha        1 RXP      0.124000
     60 H8         -1.9950    2.3140   -7.0510 ha        1 RXP      0.148000
     61 H9          1.7990    3.2830   -5.2060 ha        1 RXP      0.148000
     62 H10         0.2610    3.3840   -7.1380 ha        1 RXP      0.149000
     63 H131        2.1600   -4.5490   -2.3980 hc        1 RXP      0.064200
     64 H132        1.4260   -5.4850   -3.7540 hc        1 RXP      0.064200
     65 H15        -0.8660   -4.7320    1.0110 ha        1 RXP      0.153000
     66 H16         0.0770   -3.5420    2.9860 ha        1 RXP      0.161500
     67 H17         2.5520   -3.3430    3.2650 ha        1 RXP      0.162000
     68 H18         4.0800   -4.3350    1.5540 ha        1 RXP      0.161500
     69 H19         3.1420   -5.5340   -0.4140 ha        1 RXP      0.153000
     70 H20        -0.0950   -3.3570   -4.1460 hc        1 RXP      0.109700
     71 H381       -0.4620   -4.1660   -1.7270 hc        1 RXP      0.050700
     72 H382       -0.6900   -5.6250   -2.7590 hc        1 RXP      0.050700
     73 H391       -0.3850   -6.5370   -0.6190 hc        1 RXP      0.075700
     74 H392        1.2570   -6.7030   -1.3550 hc        1 RXP      0.075700
     75 H211        2.6820   -4.0200   -4.9130 hc        1 RXP      0.155700
     76 H212        2.5740   -2.2820   -4.7730 hc        1 RXP      0.155700
     77 HN4         0.4160   -5.3100   -8.7920 hn        1 RXP      0.494300
     78 H22         2.6200   -3.8880   -7.9850 hx        1 RXP      0.176700
     79 H231        2.8930   -5.5000   -6.3260 hc        1 RXP      0.075700
     80 H232        1.1030   -5.6360   -5.9810 hc        1 RXP      0.075700
     81 H25         3.8790   -6.5260   -8.3430 ha        1 RXP      0.139500
     82 H26        -0.2380   -7.2190   -7.1690 ha        1 RXP      0.139500
     83 H27         3.8090   -8.5620   -9.7710 ha        1 RXP      0.162500
     84 H28        -0.3050   -9.2420   -8.6130 ha        1 RXP      0.162500
     85 H29         1.7180   -9.9260   -9.9100 ha        1 RXP      0.166000
     86 H311       -0.4080   -3.8360  -12.7560 h1        1 RXP      0.103200
     87 H312        1.3980   -3.5100  -12.4650 h1        1 RXP      0.103200
     88 H33         2.1800   -1.2690  -11.9200 ha        1 RXP      0.143500
     89 H34         1.7520    1.1850  -12.0700 ha        1 RXP      0.153500
     90 H35        -0.5750    2.0300  -12.4010 ha        1 RXP      0.154000
     91 H36        -2.4770    0.4210  -12.5750 ha        1 RXP      0.153500
     92 H37        -2.0540   -2.0320  -12.4350 ha        1 RXP      0.143500
     93 H13         1.9400   -1.5990    1.2860 hn        1 RXP      0.478800
     94 H221        0.9680   -0.9760   -7.1570 ho        1 RXP      0.510000
     95 H42        -0.2530   -3.8400   -8.3250 hn        1 RXP      0.494300
@<TRIPOS>BOND
     1    1   14 1   
     2    1   51 1   
     3    1   52 1   
     4    1   93 1   
     5    2    3 1   
     6    2   17 1   
     7    2   53 1   
     8    3    4 1   
     9    3   14 1   
    10    3   54 1   
    11    4    5 1   
    12    4   55 1   
    13    4   56 1   
    14    5    6 1   
    15    5    7 2   
    16    6    9 ar  
    17    6   10 ar  
    18    7    8 1   
    19    7   57 1   
    20    8    9 1   
    21    8   58 1   
    22    9   11 ar  
    23   10   12 ar  
    24   10   59 1   
    25   11   13 ar  
    26   11   60 1   
    27   12   13 ar  
    28   12   61 1   
    29   13   62 1   
    30   14   15 2   
    31   16   17 2   
    32   17   25 1   
    33   18   25 1   
    34   18   26 1   
    35   18   63 1   
    36   18   64 1   
    37   19   20 ar  
    38   19   24 ar  
    39   19   27 1   
    40   20   21 ar  
    41   20   65 1   
    42   21   22 ar  
    43   21   66 1   
    44   22   23 ar  
    45   22   67 1   
    46   23   24 ar  
    47   23   68 1   
    48   24   69 1   
    49   25   28 1   
    50   25   70 1   
    51   26   27 1   
    52   26   71 1   
    53   26   72 1   
    54   27   73 1   
    55   27   74 1   
    56   28   29 1   
    57   28   75 1   
    58   28   76 1   
    59   29   30 1   
    60   29   31 2   
    61   29   33 1   
    62   30   94 1   
    63   32   33 1   
    64   32   41 1   
    65   32   77 1   
    66   32   95 1   
    67   33   34 1   
    68   33   78 1   
    69   34   35 1   
    70   34   79 1   
    71   34   80 1   
    72   35   36 ar  
    73   35   37 ar  
    74   36   38 ar  
    75   36   81 1   
    76   37   39 ar  
    77   37   82 1   
    78   38   40 ar  
    79   38   83 1   
    80   39   40 ar  
    81   39   84 1   
    82   40   85 1   
    83   41   42 2   
    84   41   43 1   
    85   43   44 1   
    86   44   45 1   
    87   44   86 1   
    88   44   87 1   
    89   45   46 ar  
    90   45   50 ar  
    91   46   47 ar  
    92   46   88 1   
    93   47   48 ar  
    94   47   89 1   
    95   48   49 ar  
    96   48   90 1   
    97   49   50 ar  
    98   49   91 1   
    99   50   92 1   
@<TRIPOS>SUBSTRUCTURE
     1 RXP         1 TEMP              0 ****  ****    0 ROOT
