@<TRIPOS>MOLECULE
RXP
   95    99     1     0     0
SMALL
bcc


@<TRIPOS>ATOM
      1 N1          1.6920   -2.6480    0.7180 n4        1 RXP     -0.763400
      2 N2          0.8700   -1.4800   -1.8600 n         1 RXP     -0.555900
      3 C1          1.9060   -0.8250   -1.1050 c3        1 RXP      0.043700
      4 C2          1.8520    0.7190   -1.1880 c3        1 RXP      0.001800
      5 C3          1.9020    1.1940   -2.5710 cc        1 RXP     -0.218400
      6 C4          2.9780    1.0120   -3.5240 ca        1 RXP     -0.089800
      7 C5          0.9510    2.0230   -3.1800 cd        1 RXP     -0.064100
      8 N3          1.3470    2.3370   -4.4740 na        1 RXP     -0.171400
      9 C6          2.6010    1.7550   -4.7050 ca        1 RXP     -0.051200
     10 C7          4.2050    0.3440   -3.5030 ca        1 RXP     -0.111000
     11 C8          3.4380    1.8070   -5.8310 ca        1 RXP     -0.128000
     12 C9          5.0230    0.4050   -4.6210 ca        1 RXP     -0.135000
     13 C10         4.6430    1.1260   -5.7690 ca        1 RXP     -0.112000
     14 C11         1.8800   -1.1950    0.3900 c         1 RXP      0.519100
     15 O1          2.0550   -0.4500    1.3380 o         1 RXP     -0.391100
     16 O2          2.0240   -3.4420   -1.9620 o         1 RXP     -0.630100
     17 C12         1.0690   -2.7520   -2.3800 c         1 RXP      0.659100
     18 C13        -0.5310   -4.5970   -2.7770 c3        1 RXP     -0.091400
     19 C14        -0.7020   -4.6620    1.0500 ca        1 RXP     -0.132300
     20 C15        -1.9090   -4.0520    1.4050 ca        1 RXP     -0.166000
     21 C16        -2.1350   -3.6500    2.7230 ca        1 RXP     -0.116500
     22 C17        -1.1590   -3.8560    3.6970 ca        1 RXP     -0.111000
     23 C18         0.0460   -4.4700    3.3520 ca        1 RXP     -0.116500
     24 C19         0.2760   -4.8680    2.0370 ca        1 RXP     -0.166000
     25 C20         0.0530   -3.3140   -3.3770 c3        1 RXP     -0.081700
     26 C38        -1.1600   -4.3700   -1.4130 c3        1 RXP     -0.086400
     27 C39        -0.4450   -5.1590   -0.3300 c3        1 RXP     -0.055100
     28 C21         0.7600   -3.5540   -4.7080 c3        1 RXP     -0.427600
     29 P          -0.1980   -3.1370   -5.9650 p5        1 RXP      1.473100
     30 O1P        -0.3880   -1.5590   -5.8210 oh        1 RXP     -0.798400
     31 O2P        -1.5110   -3.7630   -6.1250 o         1 RXP     -0.852300
     32 N4         -0.3220   -3.7320   -8.5410 n4        1 RXP     -0.618800
     33 C22         0.6130   -3.3130   -7.4640 c3        1 RXP     -0.163700
     34 C23         1.7540   -4.3140   -7.2800 c3        1 RXP     -0.042100
     35 C24         2.4210   -4.6860   -8.5550 ca        1 RXP     -0.163300
     36 C25         3.3760   -3.8370   -9.1250 ca        1 RXP     -0.128000
     37 C26         2.1240   -5.9090   -9.1720 ca        1 RXP     -0.128000
     38 C27         4.0250   -4.2050  -10.3030 ca        1 RXP     -0.110500
     39 C28         2.7750   -6.2740  -10.3490 ca        1 RXP     -0.110500
     40 C29         3.7250   -5.4230  -10.9170 ca        1 RXP     -0.090000
     41 C30        -0.6780   -2.6340   -9.5030 c         1 RXP      0.623100
     42 O5         -0.5760   -1.4450   -9.2230 o         1 RXP     -0.455000
     43 O6         -1.1170   -3.1530  -10.6520 os        1 RXP     -0.398900
     44 C31        -1.5550   -2.1750  -11.6830 c3        1 RXP      0.223700
     45 C32        -1.9940   -3.0040  -12.8260 ca        1 RXP     -0.158300
     46 C33        -3.3230   -3.4410  -12.9080 ca        1 RXP     -0.086500
     47 C34        -3.7460   -4.1770  -14.0130 ca        1 RXP     -0.129000
     48 C35        -2.8460   -4.4840  -15.0350 ca        1 RXP     -0.077000
     49 C36        -1.5200   -4.0550  -14.9530 ca        1 RXP     -0.129000
     50 C37        -1.0910   -3.3200  -13.8500 ca        1 RXP     -0.086500
     51 HN11        2.3230   -3.2200    0.1360 hn        1 RXP      0.479133
     52 HN22        1.8660   -2.8370    1.7140 hn        1 RXP      0.479133
     53 HN2        -1.2240   -1.1710   -6.0780 ho        1 RXP      0.507000
     54 H1          2.9270   -1.1710   -1.4730 h1        1 RXP      0.119700
     55 H21         0.9260    1.0920   -0.6730 hc        1 RXP      0.085700
     56 H22A        2.7390    1.1110   -0.6140 hc        1 RXP      0.085700
     57 H5          0.0160    2.4170   -2.7690 h4        1 RXP      0.178000
     58 HN3         0.9250    3.0170   -5.0530 hn        1 RXP      0.315700
     59 H7          4.5310   -0.1970   -2.6040 ha        1 RXP      0.123000
     60 H8          3.1550    2.3860   -6.7220 ha        1 RXP      0.149000
     61 H9          6.0010   -0.1000   -4.6100 ha        1 RXP      0.146000
     62 H10         5.3320    1.1650   -6.6270 ha        1 RXP      0.148000
     63 H131       -1.3130   -5.0050   -3.4730 hc        1 RXP      0.081200
     64 H132        0.2880   -5.3630   -2.7070 hc        1 RXP      0.081200
     65 H15        -2.7010   -3.9110    0.6520 ha        1 RXP      0.140000
     66 H16        -3.0970   -3.1870    2.9960 ha        1 RXP      0.157000
     67 H17        -1.3460   -3.5540    4.7410 ha        1 RXP      0.163000
     68 H18         0.8040   -4.6670    4.1280 ha        1 RXP      0.157000
     69 H19         1.1970   -5.4160    1.7850 ha        1 RXP      0.140000
     70 H20        -0.7860   -2.5770   -3.5410 hc        1 RXP      0.078700
     71 H381       -1.1600   -3.2790   -1.1530 hc        1 RXP      0.053700
     72 H382       -2.2370   -4.6880   -1.4460 hc        1 RXP      0.053700
     73 H391        0.6640   -5.1460   -0.5290 hc        1 RXP      0.064200
     74 H392       -0.7680   -6.2360   -0.3860 hc        1 RXP      0.064200
     75 H211        1.7290   -2.9780   -4.7000 hc        1 RXP      0.141200
     76 H212        1.0880   -4.6320   -4.7220 hc        1 RXP      0.141200
     77 HN4         0.0990   -4.5020   -9.0970 hn        1 RXP      0.498800
     78 H22         1.0790   -2.3260   -7.7820 hx        1 RXP      0.170700
     79 H231        2.5070   -3.8380   -6.5930 hc        1 RXP      0.078200
     80 H232        1.3500   -5.2350   -6.7770 hc        1 RXP      0.078200
     81 H25         3.6290   -2.8840   -8.6370 ha        1 RXP      0.136000
     82 H26         1.4060   -6.6060   -8.7110 ha        1 RXP      0.136000
     83 H27         4.7840   -3.5380  -10.7430 ha        1 RXP      0.161000
     84 H28         2.5480   -7.2420  -10.8250 ha        1 RXP      0.161000
     85 H29         4.2460   -5.7170  -11.8420 ha        1 RXP      0.164000
     86 H311       -0.6690   -1.5300  -11.9130 h1        1 RXP      0.082700
     87 H312       -2.3830   -1.5740  -11.2260 h1        1 RXP      0.082700
     88 H33        -4.0350   -3.1940  -12.1060 ha        1 RXP      0.136500
     89 H34        -4.7930   -4.5110  -14.0810 ha        1 RXP      0.155500
     90 H35        -3.1850   -5.0610  -15.9110 ha        1 RXP      0.158000
     91 H36        -0.8130   -4.2930  -15.7640 ha        1 RXP      0.155500
     92 H37        -0.0460   -2.9770  -13.7910 ha        1 RXP      0.136500
     93 H13         0.7230   -2.9380    0.5060 hn        1 RXP      0.479133
     94 H221        0.2180   -0.8720   -2.3100 hn        1 RXP      0.347500
     95 H42        -1.2100   -4.0800   -8.1070 hn        1 RXP      0.498800
@<TRIPOS>BOND
     1    1   14 1   
     2    1   51 1   
     3    1   52 1   
     4    1   93 1   
     5    2    3 1   
     6    2   17 1   
     7    2   94 1   
     8    3    4 1   
     9    3   14 1   
    10    3   54 1   
    11    4    5 1   
    12    4   55 1   
    13    4   56 1   
    14    5    6 1   
    15    5    7 2   
    16    6    9 ar  
    17    6   10 ar  
    18    7    8 1   
    19    7   57 1   
    20    8    9 1   
    21    8   58 1   
    22    9   11 ar  
    23   10   12 ar  
    24   10   59 1   
    25   11   13 ar  
    26   11   60 1   
    27   12   13 ar  
    28   12   61 1   
    29   13   62 1   
    30   14   15 2   
    31   16   17 2   
    32   17   25 1   
    33   18   25 1   
    34   18   26 1   
    35   18   63 1   
    36   18   64 1   
    37   19   20 ar  
    38   19   24 ar  
    39   19   27 1   
    40   20   21 ar  
    41   20   65 1   
    42   21   22 ar  
    43   21   66 1   
    44   22   23 ar  
    45   22   67 1   
    46   23   24 ar  
    47   23   68 1   
    48   24   69 1   
    49   25   28 1   
    50   25   70 1   
    51   26   27 1   
    52   26   71 1   
    53   26   72 1   
    54   27   73 1   
    55   27   74 1   
    56   28   29 1   
    57   28   75 1   
    58   28   76 1   
    59   29   30 1   
    60   29   31 2   
    61   29   33 1   
    62   30   53 1   
    63   32   33 1   
    64   32   41 1   
    65   32   77 1   
    66   32   95 1   
    67   33   34 1   
    68   33   78 1   
    69   34   35 1   
    70   34   79 1   
    71   34   80 1   
    72   35   36 ar  
    73   35   37 ar  
    74   36   38 ar  
    75   36   81 1   
    76   37   39 ar  
    77   37   82 1   
    78   38   40 ar  
    79   38   83 1   
    80   39   40 ar  
    81   39   84 1   
    82   40   85 1   
    83   41   42 2   
    84   41   43 1   
    85   43   44 1   
    86   44   45 1   
    87   44   86 1   
    88   44   87 1   
    89   45   46 ar  
    90   45   50 ar  
    91   46   47 ar  
    92   46   88 1   
    93   47   48 ar  
    94   47   89 1   
    95   48   49 ar  
    96   48   90 1   
    97   49   50 ar  
    98   49   91 1   
    99   50   92 1   
@<TRIPOS>SUBSTRUCTURE
     1 RXP         1 TEMP              0 ****  ****    0 ROOT
