@<TRIPOS>MOLECULE
RXP
   93    97     1     0     0
SMALL
bcc


@<TRIPOS>ATOM
      1 N1         -0.7300   -0.6680   -5.9320 n         1 RXP     -0.671000
      2 N2         -0.4450   -0.8480   -2.9260 n         1 RXP     -0.545900
      3 C1          0.4420   -1.4700   -3.8810 c3        1 RXP      0.037700
      4 C2          1.0340   -2.7970   -3.3720 c3        1 RXP     -0.001200
      5 C3          1.8830   -2.6110   -2.1910 cc        1 RXP     -0.182400
      6 C4          3.3270   -2.5070   -2.1820 ca        1 RXP     -0.083800
      7 C5          1.4580   -2.5220   -0.8610 cd        1 RXP     -0.089100
      8 N3          2.5550   -2.3650   -0.0180 na        1 RXP     -0.185400
      9 C6          3.7150   -2.3480   -0.7960 ca        1 RXP     -0.057200
     10 C7          4.3140   -2.5350   -3.1680 ca        1 RXP     -0.089000
     11 C8          5.0640   -2.2160   -0.4330 ca        1 RXP     -0.142000
     12 C9          5.6430   -2.4030   -2.7940 ca        1 RXP     -0.159000
     13 C10         6.0110   -2.2450   -1.4450 ca        1 RXP     -0.123000
     14 C11        -0.2770   -1.7480   -5.2260 c         1 RXP      0.640100
     15 O1         -0.4260   -2.9080   -5.6620 o         1 RXP     -0.622100
     16 O2         -0.1180    1.2730   -3.7350 o         1 RXP     -0.636100
     17 C12        -0.6560    0.5080   -2.9040 c         1 RXP      0.657100
     18 C13        -2.4570    2.1630   -2.4330 c3        1 RXP     -0.075400
     19 C14        -5.1850    2.2340   -5.1110 ca        1 RXP     -0.080300
     20 C15        -6.3120    1.4960   -4.7290 ca        1 RXP     -0.127000
     21 C16        -7.2030    1.0250   -5.6910 ca        1 RXP     -0.127500
     22 C17        -6.9780    1.2880   -7.0420 ca        1 RXP     -0.131000
     23 C18        -5.8590    2.0240   -7.4280 ca        1 RXP     -0.127500
     24 C19        -4.9650    2.4960   -6.4680 ca        1 RXP     -0.127000
     25 C20        -1.6040    1.0570   -1.8270 c3        1 RXP     -0.098700
     26 C38        -3.3980    1.6250   -3.4910 c3        1 RXP     -0.079400
     27 C39        -4.2390    2.7430   -4.0800 c3        1 RXP     -0.034100
     28 C21        -0.8050    1.5600   -0.6330 c3        1 RXP     -0.425600
     29 P          -0.9480    0.5020    0.6210 p5        1 RXP      1.499100
     30 O1P        -1.0100   -0.9040    0.2250 o         1 RXP     -0.877300
     31 O2P        -2.3560    0.8580    1.3160 oh        1 RXP     -0.799400
     32 N4          0.0100    0.1540    2.9430 n         1 RXP     -0.462900
     33 C22         0.2250    0.9510    1.7470 c3        1 RXP     -0.214500
     34 C23         0.1280    2.4620    1.9690 c3        1 RXP     -0.057100
     35 C24         0.8890    2.9420    3.1510 ca        1 RXP     -0.102300
     36 C25         2.2640    3.1870    3.0530 ca        1 RXP     -0.123000
     37 C26         0.2350    3.1660    4.3680 ca        1 RXP     -0.123000
     38 C27         2.9750    3.6470    4.1600 ca        1 RXP     -0.122500
     39 C28         0.9490    3.6270    5.4740 ca        1 RXP     -0.122500
     40 C29         2.3190    3.8670    5.3720 ca        1 RXP     -0.119000
     41 C30         1.0810   -0.6400    3.3850 c         1 RXP      0.727100
     42 O5          2.0220   -1.0960    2.7140 o         1 RXP     -0.594000
     43 O6          0.9740   -0.9870    4.7090 os        1 RXP     -0.427900
     44 C31         1.9440   -1.9570    5.1670 c3        1 RXP      0.196700
     45 C32         1.6730   -2.1980    6.6130 ca        1 RXP     -0.102300
     46 C33         0.3650   -2.3610    7.0800 ca        1 RXP     -0.108000
     47 C34         0.1340   -2.6250    8.4300 ca        1 RXP     -0.131500
     48 C35         1.2060   -2.7310    9.3150 ca        1 RXP     -0.120000
     49 C36         2.5120   -2.5670    8.8510 ca        1 RXP     -0.131500
     50 C37         2.7470   -2.2950    7.5050 ca        1 RXP     -0.108000
     51 HN11       -1.1740   -0.8060   -6.8060 hn        1 RXP      0.320000
     52 HN22       -0.5800    0.2560   -5.6070 hn        1 RXP      0.320000
     53 HN2        -0.7860   -1.4210   -2.1820 hn        1 RXP      0.349500
     54 H1          1.2950   -0.7540   -4.0990 h1        1 RXP      0.087700
     55 H21         0.2010   -3.5190   -3.1540 hc        1 RXP      0.072700
     56 H22A        1.6360   -3.2350   -4.2150 hc        1 RXP      0.072700
     57 H5          0.4390   -2.5470   -0.4530 h4        1 RXP      0.205000
     58 HN3         2.5190   -2.2460    0.9630 hn        1 RXP      0.320700
     59 H7          4.0340   -2.6640   -4.2230 ha        1 RXP      0.132000
     60 H8          5.3570   -2.0960    0.6180 ha        1 RXP      0.130000
     61 H9          6.4300   -2.4240   -3.5610 ha        1 RXP      0.126000
     62 H10         7.0760   -2.1440   -1.1920 ha        1 RXP      0.124000
     63 H131       -3.0520    2.6560   -1.6190 hc        1 RXP      0.057200
     64 H132       -1.7830    2.9380   -2.8870 hc        1 RXP      0.057200
     65 H15        -6.4900    1.2870   -3.6640 ha        1 RXP      0.130500
     66 H16        -8.0850    0.4440   -5.3830 ha        1 RXP      0.131000
     67 H17        -7.6820    0.9160   -7.8010 ha        1 RXP      0.131000
     68 H18        -5.6790    2.2330   -8.4930 ha        1 RXP      0.131000
     69 H19        -4.0830    3.0760   -6.7780 ha        1 RXP      0.130500
     70 H20        -2.2980    0.2350   -1.4790 hc        1 RXP      0.075700
     71 H381       -2.8010    1.1330   -4.3040 hc        1 RXP      0.051700
     72 H382       -4.0710    0.8450   -3.0470 hc        1 RXP      0.051700
     73 H391       -4.8210    3.2430   -3.2590 hc        1 RXP      0.048200
     74 H392       -3.5620    3.5190   -4.5280 hc        1 RXP      0.048200
     75 H211        0.2560    1.7330   -0.9560 hc        1 RXP      0.120200
     76 H212       -1.1850    2.5850   -0.3650 hc        1 RXP      0.120200
     77 HOP        -2.9320    0.1160    1.4870 ho        1 RXP      0.483000
     78 HN4        -0.4180    0.6660    3.6980 hn        1 RXP      0.314500
     79 H22         1.2660    0.7340    1.3520 h1        1 RXP      0.131700
     80 H231        0.5200    2.9730    1.0480 hc        1 RXP      0.069200
     81 H232       -0.9600    2.7310    2.0790 hc        1 RXP      0.069200
     82 H25         2.7850    3.0150    2.0990 ha        1 RXP      0.134500
     83 H26        -0.8480    2.9880    4.4510 ha        1 RXP      0.134500
     84 H27         4.0550    3.8380    4.0760 ha        1 RXP      0.138500
     85 H28         0.4280    3.8000    6.4280 ha        1 RXP      0.138500
     86 H29         2.8810    4.2300    6.2450 ha        1 RXP      0.138000
     87 H311        1.8120   -2.8970    4.5670 h1        1 RXP      0.066200
     88 H312        2.9720   -1.5420    4.9910 h1        1 RXP      0.066200
     89 H33        -0.4770   -2.2730    6.3770 ha        1 RXP      0.138000
     90 H34        -0.8960   -2.7520    8.7940 ha        1 RXP      0.135000
     91 H35         1.0230   -2.9430   10.3790 ha        1 RXP      0.134000
     92 H36         3.3580   -2.6490    9.5490 ha        1 RXP      0.135000
     93 H37         3.7780   -2.1610    7.1430 ha        1 RXP      0.138000
@<TRIPOS>BOND
     1    1   14 1   
     2    1   51 1   
     3    1   52 1   
     4    2    3 1   
     5    2   17 1   
     6    2   53 1   
     7    3    4 1   
     8    3   14 1   
     9    3   54 1   
    10    4    5 1   
    11    4   55 1   
    12    4   56 1   
    13    5    6 1   
    14    5    7 2   
    15    6    9 ar  
    16    6   10 ar  
    17    7    8 1   
    18    7   57 1   
    19    8    9 1   
    20    8   58 1   
    21    9   11 ar  
    22   10   12 ar  
    23   10   59 1   
    24   11   13 ar  
    25   11   60 1   
    26   12   13 ar  
    27   12   61 1   
    28   13   62 1   
    29   14   15 2   
    30   16   17 2   
    31   17   25 1   
    32   18   25 1   
    33   18   26 1   
    34   18   63 1   
    35   18   64 1   
    36   19   20 ar  
    37   19   24 ar  
    38   19   27 1   
    39   20   21 ar  
    40   20   65 1   
    41   21   22 ar  
    42   21   66 1   
    43   22   23 ar  
    44   22   67 1   
    45   23   24 ar  
    46   23   68 1   
    47   24   69 1   
    48   25   28 1   
    49   25   70 1   
    50   26   27 1   
    51   26   71 1   
    52   26   72 1   
    53   27   73 1   
    54   27   74 1   
    55   28   29 1   
    56   28   75 1   
    57   28   76 1   
    58   29   30 2   
    59   29   31 1   
    60   29   33 1   
    61   31   77 1   
    62   32   33 1   
    63   32   41 1   
    64   32   78 1   
    65   33   34 1   
    66   33   79 1   
    67   34   35 1   
    68   34   80 1   
    69   34   81 1   
    70   35   36 ar  
    71   35   37 ar  
    72   36   38 ar  
    73   36   82 1   
    74   37   39 ar  
    75   37   83 1   
    76   38   40 ar  
    77   38   84 1   
    78   39   40 ar  
    79   39   85 1   
    80   40   86 1   
    81   41   42 2   
    82   41   43 1   
    83   43   44 1   
    84   44   45 1   
    85   44   87 1   
    86   44   88 1   
    87   45   46 ar  
    88   45   50 ar  
    89   46   47 ar  
    90   46   89 1   
    91   47   48 ar  
    92   47   90 1   
    93   48   49 ar  
    94   48   91 1   
    95   49   50 ar  
    96   49   92 1   
    97   50   93 1   
@<TRIPOS>SUBSTRUCTURE
     1 RXP         1 TEMP              0 ****  ****    0 ROOT
