@<TRIPOS>MOLECULE
RXP
   93    85     1     0     0
SMALL
bcc


@<TRIPOS>ATOM
      1 N1          0.7670    1.5410    5.6350 n         1 RXP     -0.424000
      2 N2          0.3460    2.6800    2.2150 n         1 RXP     -0.334000
      3 C1          0.3590    3.0130    3.6190 c3        1 RXP     -0.003000
      4 C2         -0.6910    4.0840    3.8960 c3        1 RXP     -0.092000
      5 C3         -0.5380    4.5870    5.3180 c2        1 RXP     -0.189000
      6 C4         -0.7240    4.4540    6.6810 c1        1 RXP     -0.080000
      7 C5          0.0570    5.8230    5.0840 c1        1 RXP     -0.045000
      8 N3          0.2370    6.4470    6.3000 n2        1 RXP     -0.211000
      9 C6         -0.2460    5.6040    7.2910 c1        1 RXP     -0.008000
     10 C7         -1.2400    3.4100    7.4600 c1        1 RXP     -0.104000
     11 C8         -0.2790    5.7210    8.6850 c1        1 RXP     -0.139000
     12 C9         -1.2730    3.5270    8.8460 c1        1 RXP     -0.129300
     13 C10        -0.7920    4.6820    9.4600 c1        1 RXP     -0.129300
     14 C11         0.0530    1.7940    4.4250 c2        1 RXP      0.282000
     15 O1         -0.8290    1.0450    4.0760 o         1 RXP     -0.403000
     16 O2          2.2370    1.3160    2.0960 o         1 RXP     -0.394000
     17 C12         1.0990    1.5060    1.7240 c2        1 RXP      0.300000
     18 C13         0.3570   -0.7890    1.2260 c3        1 RXP     -0.151000
     19 C14        -2.1250   -2.3080    3.7200 c1        1 RXP     -0.076000
     20 C15        -1.8340   -2.3880    5.0790 c1        1 RXP     -0.129300
     21 C16        -2.8660   -2.5000    6.0060 c1        1 RXP     -0.129300
     22 C17        -4.1880   -2.5300    5.5740 c1        1 RXP     -0.129300
     23 C18        -4.4780   -2.4500    4.2170 c1        1 RXP     -0.129300
     24 C19        -3.4460   -2.3390    3.2900 c1        1 RXP     -0.130000
     25 C20         0.4810    0.5920    0.6730 c3        1 RXP     -0.105000
     26 C38        -0.8640   -0.8660    2.1360 c3        1 RXP     -0.178000
     27 C39        -0.9900   -2.2700    2.6950 c3        1 RXP     -0.115000
     28 C21         1.3830    0.5660   -0.5870 c3        1 RXP     -0.916000
     29 P           0.6350   -0.5640   -1.8650 p5        1 RXP      2.800000
     30 O1P        -0.6550   -0.0060   -2.3230 o         1 RXP     -1.125000
     31 O2P         0.3970   -1.9780   -1.2340 oh        1 RXP     -0.839000
     32 N4          1.1540   -1.4670   -4.3520 n         1 RXP     -0.269000
     33 C22         1.7890   -0.7170   -3.3090 c3        1 RXP     -0.695000
     34 C23         3.0300   -1.4140   -2.8840 c3        1 RXP     -0.127000
     35 C24         3.7330   -2.0120   -4.1200 c2        1 RXP     -0.093000
     36 C25         3.9780   -3.3750   -4.1870 c2        1 RXP     -0.123000
     37 C26         4.1290   -1.1790   -5.1700 c1        1 RXP     -0.121000
     38 C27         4.6210   -3.9150   -5.3040 c1        1 RXP     -0.131000
     39 C28         4.7680   -1.7150   -6.2800 c1        1 RXP     -0.129300
     40 C29         5.0140   -3.0840   -6.3490 c1        1 RXP     -0.129300
     41 C30         0.4370   -0.7880   -5.3850 c2        1 RXP      0.382000
     42 O5          0.3610    0.4090   -5.3760 o         1 RXP     -0.401000
     43 O6         -0.1440   -1.5270   -6.4480 os        1 RXP     -0.273000
     44 C31        -0.9170   -0.7240   -7.3620 c3        1 RXP      0.040000
     45 C32        -1.5410   -1.6140   -8.4160 c2        1 RXP     -0.092000
     46 C33        -0.9310   -1.7510   -9.6600 c2        1 RXP     -0.118000
     47 C34        -1.4930   -2.5800  -10.6200 c1        1 RXP     -0.132000
     48 C35        -2.6600   -3.2700  -10.3420 c1        1 RXP     -0.129300
     49 C36        -3.2700   -3.1330   -9.0980 c1        1 RXP     -0.129300
     50 C37        -2.7080   -2.3040   -8.1370 c1        1 RXP     -0.101000
     51 HN11        0.6370    0.7520    6.0880 hn        1 RXP      0.234000
     52 HN22        1.3740    2.1480    5.9400 hn        1 RXP      0.234000
     53 HN2        -0.1010    3.2150    1.6230 hn        1 RXP      0.239000
     54 H1          1.2490    3.3550    3.8670 h1        1 RXP      0.154000
     55 H21        -0.5700    4.8300    3.2710 hc        1 RXP      0.105500
     56 H22A       -1.5850    3.7030    3.7780 hc        1 RXP      0.105500
     57 H5          0.2860    6.1870    4.2210 DU        1 RXP      0.227500
     58 HN3         0.6070    7.2680    6.4290 DU        1 RXP      0.227500
     59 H7         -1.5790    2.5960    7.0270 ha        1 RXP      0.134000
     60 H8          0.0580    6.5280    9.1140 ha        1 RXP      0.133000
     61 H9         -1.6310    2.8010    9.3870 ha        1 RXP      0.134100
     62 H10        -0.8150    4.7630   10.4290 ha        1 RXP      0.134100
     63 H131        0.2560   -1.4260    0.4910 hc        1 RXP      0.091500
     64 H132        1.1640   -1.0080    1.7420 hc        1 RXP      0.091500
     65 H15        -0.9120   -2.3670    5.3800 ha        1 RXP      0.134100
     66 H16        -2.6630   -2.5560    6.9560 ha        1 RXP      0.134100
     67 H17        -4.9120   -2.6080    6.2240 ha        1 RXP      0.134100
     68 H18        -5.4010   -2.4720    3.9160 ha        1 RXP      0.134100
     69 H19        -3.6500   -2.2830    2.3390 ha        1 RXP      0.127000
     70 H20        -0.4020    0.9250    0.4330 hc        1 RXP      0.148000
     71 H381       -0.7630   -0.2300    2.8700 hc        1 RXP      0.100500
     72 H382       -1.6660   -0.6480    1.6230 hc        1 RXP      0.100500
     73 H391       -1.1870   -2.8960    1.9660 hc        1 RXP      0.085500
     74 H392       -0.1490   -2.5260    3.1290 hc        1 RXP      0.085500
     75 H211        1.4570    1.4730   -0.9560 hc        1 RXP      0.165500
     76 H212        2.2710    0.2410   -0.3440 hc        1 RXP      0.165500
     77 HOP        -0.3590   -2.3150   -1.5400 ho        1 RXP      0.277000
     78 HN4         1.2840   -2.3790   -4.4070 hn        1 RXP      0.224000
     79 H22         2.0140    0.1710   -3.6390 h1        1 RXP      0.186000
     80 H231        2.8030   -2.1310   -2.2580 hc        1 RXP      0.106000
     81 H232        3.6300   -0.7750   -2.4440 hc        1 RXP      0.106000
     82 H25         3.7040   -3.9550   -3.4580 ha        1 RXP      0.129000
     83 H26         3.9580   -0.2260   -5.1230 ha        1 RXP      0.157000
     84 H27         4.7920   -4.8650   -5.3520 ha        1 RXP      0.132000
     85 H28         5.0450   -1.1310   -7.0160 ha        1 RXP      0.134100
     86 H29         5.4630   -3.4610   -7.1290 ha        1 RXP      0.134100
     87 H311       -0.3350   -0.0700   -7.7920 h1        1 RXP      0.101500
     88 H312       -1.6250   -0.2560   -6.8680 h1        1 RXP      0.101500
     89 H33        -0.1140   -1.2670   -9.8550 ha        1 RXP      0.131000
     90 H34        -1.0640   -2.6760  -11.4960 ha        1 RXP      0.133000
     91 H35        -3.0510   -3.8480  -11.0130 ha        1 RXP      0.134100
     92 H36        -4.0860   -3.6170   -8.9030 ha        1 RXP      0.134100
     93 H37        -3.1330   -2.2090   -7.2700 ha        1 RXP      0.146000
@<TRIPOS>BOND
     1    1   14 1   
     2    1   51 1   
     3    1   52 1   
     4    2    3 1   
     5    2   17 1   
     6    2   53 1   
     7    3    4 1   
     8    3   14 1   
     9    3   54 1   
    10    4    5 1   
    11    4   55 1   
    12    4   56 1   
    13    5    6 1   
    14    5    7 1   
    15    6   10 1   
    16    7    8 1   
    17    8    9 1   
    18    9   11 1   
    19   10   59 1   
    20   11   60 1   
    21   12   13 1   
    22   12   61 1   
    23   13   62 1   
    24   14   15 1   
    25   16   17 1   
    26   17   25 1   
    27   18   25 1   
    28   18   26 1   
    29   18   63 1   
    30   18   64 1   
    31   19   24 1   
    32   19   27 1   
    33   20   21 1   
    34   20   65 1   
    35   21   66 1   
    36   22   23 1   
    37   22   67 1   
    38   23   68 1   
    39   24   69 1   
    40   25   28 1   
    41   25   70 1   
    42   26   27 1   
    43   26   71 1   
    44   26   72 1   
    45   27   73 1   
    46   27   74 1   
    47   28   29 1   
    48   28   75 1   
    49   28   76 1   
    50   29   30 1   
    51   29   31 1   
    52   29   33 1   
    53   31   77 1   
    54   32   33 1   
    55   32   41 1   
    56   32   78 1   
    57   33   34 1   
    58   33   79 1   
    59   34   35 1   
    60   34   80 1   
    61   34   81 1   
    62   35   36 1   
    63   35   37 1   
    64   36   38 1   
    65   36   82 1   
    66   37   83 1   
    67   38   84 1   
    68   39   40 1   
    69   39   85 1   
    70   40   86 1   
    71   41   42 1   
    72   41   43 1   
    73   43   44 1   
    74   44   45 1   
    75   44   87 1   
    76   44   88 1   
    77   45   46 1   
    78   45   50 1   
    79   46   47 1   
    80   46   89 1   
    81   47   90 1   
    82   48   49 1   
    83   48   91 1   
    84   49   92 1   
    85   50   93 1   
@<TRIPOS>SUBSTRUCTURE
     1 RXP         1 TEMP              0 ****  ****    0 ROOT
