@<TRIPOS>MOLECULE
RXT
   41    44     1     0     0
SMALL
bcc


@<TRIPOS>ATOM
      1 CAK        -0.1120   -0.0240   -0.0820 c3        1 RXT     -0.078400
      2 CAH         1.4080   -0.0430   -0.1770 c3        1 RXT     -0.079900
      3 CAI         1.9500   -0.3900    1.2030 c3        1 RXT     -0.079900
      4 CAL         0.7570   -0.5370    2.1380 c3        1 RXT     -0.078400
      5 CAU        -0.4810   -0.6770    1.2520 c3        1 RXT     -0.082700
      6 CAV        -1.7300   -0.0280    1.8770 c3        1 RXT      0.077000
      7 CAJ        -2.9350   -0.2470    0.9370 c3        1 RXT     -0.039300
      8 CAB        -4.0930    0.5090    1.3510 c1        1 RXT      0.204700
      9 NAA        -5.0310    1.1160    1.6720 n1        1 RXT     -0.350800
     10 NAW        -2.0020   -0.5380    3.2200 na        1 RXT      0.081400
     11 CAG        -2.2430   -1.8790    3.5300 cc        1 RXT     -0.081300
     12 NAO        -2.0580    0.2460    4.3160 nc        1 RXT     -0.507800
     13 CAF        -2.3320   -0.5630    5.3650 cd        1 RXT      0.331200
     14 CAQ        -2.4550   -1.9380    4.9220 cd        1 RXT     -0.338800
     15 CAR        -2.7560   -3.1180    5.7010 ca        1 RXT      0.594800
     16 NAM        -3.2440   -4.2100    5.0590 nb        1 RXT     -0.737000
     17 CAE        -3.5390   -5.3110    5.8120 ca        1 RXT      0.647900
     18 NAP        -3.4140   -5.4910    7.1450 nb        1 RXT     -0.708000
     19 CAT        -2.9090   -4.3940    7.7870 ca        1 RXT      0.444800
     20 CAS        -2.5480   -3.1520    7.1010 ca        1 RXT     -0.312400
     21 CAD        -2.0360   -2.2680    8.1150 cc        1 RXT     -0.158200
     22 CAC        -2.1030   -2.9450    9.3290 cd        1 RXT     -0.111100
     23 NAN        -2.6300   -4.2290    9.1470 na        1 RXT     -0.284100
     24 H1         -0.5740   -0.5780   -0.9360 hc        1 RXT      0.050200
     25 H2         -0.4850    1.0320   -0.1210 hc        1 RXT      0.050200
     26 H3          1.7410   -0.8020   -0.9290 hc        1 RXT      0.045950
     27 H4          1.7900    0.9510   -0.5170 hc        1 RXT      0.045950
     28 H5          2.5330   -1.3450    1.1630 hc        1 RXT      0.045950
     29 H6          2.6420    0.4070    1.5720 hc        1 RXT      0.045950
     30 H7          0.6680    0.3670    2.7940 hc        1 RXT      0.050200
     31 H8          0.8710   -1.4270    2.8040 hc        1 RXT      0.050200
     32 H9         -0.6890   -1.7680    1.0800 hc        1 RXT      0.056700
     33 H10        -1.5450    1.0870    1.9640 h1        1 RXT      0.100700
     34 H11        -3.2010   -1.3400    0.8890 hc        1 RXT      0.085700
     35 H12        -2.6370    0.0810   -0.0980 hc        1 RXT      0.085700
     36 H18        -2.2490   -2.6710    2.7810 h4        1 RXT      0.190000
     37 H19        -2.4550   -0.1730    6.3770 h4        1 RXT      0.049100
     38 H20        -3.9410   -6.1780    5.2460 h5        1 RXT      0.050100
     39 H21        -1.6530   -1.2640    7.9600 ha        1 RXT      0.161000
     40 H22        -1.8120   -2.6110   10.3270 h4        1 RXT      0.171000
     41 H23        -2.7800   -4.9060    9.8480 hn        1 RXT      0.312700
@<TRIPOS>BOND
     1    1    2 1   
     2    1    5 1   
     3    1   24 1   
     4    1   25 1   
     5    2    3 1   
     6    2   26 1   
     7    2   27 1   
     8    3    4 1   
     9    3   28 1   
    10    3   29 1   
    11    4    5 1   
    12    4   30 1   
    13    4   31 1   
    14    5    6 1   
    15    5   32 1   
    16    6    7 1   
    17    6   10 1   
    18    6   33 1   
    19    7    8 1   
    20    7   34 1   
    21    7   35 1   
    22    8    9 3   
    23   10   11 1   
    24   10   12 1   
    25   11   14 2   
    26   11   36 1   
    27   12   13 2   
    28   13   14 1   
    29   13   37 1   
    30   14   15 1   
    31   15   16 ar  
    32   15   20 ar  
    33   16   17 ar  
    34   17   18 ar  
    35   17   38 1   
    36   18   19 ar  
    37   19   20 ar  
    38   19   23 1   
    39   20   21 1   
    40   21   22 2   
    41   21   39 1   
    42   22   23 1   
    43   22   40 1   
    44   23   41 1   
@<TRIPOS>SUBSTRUCTURE
     1 RXT         1 TEMP              0 ****  ****    0 ROOT
