@<TRIPOS>MOLECULE
RXT
   41    44     1     0     0
SMALL
bcc


@<TRIPOS>ATOM
      1 CAK        -0.1170   -0.0230   -0.0830 c3        1 RXT     -0.078400
      2 CAH         1.4030   -0.0530   -0.1840 c3        1 RXT     -0.079900
      3 CAI         1.9480   -0.4060    1.1940 c3        1 RXT     -0.079900
      4 CAL         0.7580   -0.5470    2.1330 c3        1 RXT     -0.078400
      5 CAU        -0.4850   -0.6770    1.2510 c3        1 RXT     -0.082700
      6 CAV        -1.7270   -0.0210    1.8830 c3        1 RXT      0.077000
      7 CAJ        -2.9370   -0.2300    0.9470 c3        1 RXT     -0.039300
      8 CAB        -4.0880    0.5330    1.3670 c1        1 RXT      0.204700
      9 NAA        -5.0210    1.1450    1.6940 n1        1 RXT     -0.350800
     10 NAW        -1.9970   -0.5330    3.2250 na        1 RXT      0.081400
     11 CAG        -2.2470   -1.8730    3.5320 cc        1 RXT     -0.081300
     12 NAO        -2.0420    0.2480    4.3240 nc        1 RXT     -0.507800
     13 CAF        -2.3170   -0.5610    5.3720 cd        1 RXT      0.331200
     14 CAQ        -2.4540   -1.9350    4.9250 cd        1 RXT     -0.338800
     15 CAR        -2.7600   -3.1140    5.7020 ca        1 RXT      0.594800
     16 NAM        -3.2600   -4.2010    5.0600 nb        1 RXT     -0.737000
     17 CAE        -3.5600   -5.3010    5.8110 ca        1 RXT      0.647900
     18 NAP        -3.4300   -5.4860    7.1430 nb        1 RXT     -0.708000
     19 CAT        -2.9120   -4.3950    7.7860 ca        1 RXT      0.444800
     20 CAS        -2.5440   -3.1540    7.1010 ca        1 RXT     -0.312400
     21 CAD        -2.0200   -2.2770    8.1150 cc        1 RXT     -0.158200
     22 CAC        -2.0860   -2.9580    9.3280 cd        1 RXT     -0.111100
     23 NAN        -2.6240   -4.2360    9.1440 na        1 RXT     -0.284100
     24 H1         -0.5860   -0.5720   -0.9360 hc        1 RXT      0.050200
     25 H2         -0.4820    1.0350   -0.1170 hc        1 RXT      0.050200
     26 H3          1.7910    0.9390   -0.5240 hc        1 RXT      0.045950
     27 H4          1.7280   -0.8130   -0.9380 hc        1 RXT      0.045950
     28 H5          2.5260   -1.3630    1.1500 hc        1 RXT      0.045950
     29 H6          2.6460    0.3870    1.5620 hc        1 RXT      0.045950
     30 H7          0.6770    0.3550    2.7910 hc        1 RXT      0.050200
     31 H8          0.8690   -1.4400    2.7960 hc        1 RXT      0.050200
     32 H9         -0.7010   -1.7670    1.0770 hc        1 RXT      0.056700
     33 H10        -1.5340    1.0920    1.9710 h1        1 RXT      0.100700
     34 H11        -3.2100   -1.3210    0.8970 hc        1 RXT      0.085700
     35 H12        -2.6410    0.0990   -0.0880 hc        1 RXT      0.085700
     36 H18        -2.2630   -2.6630    2.7810 h4        1 RXT      0.190000
     37 H19        -2.4330   -0.1740    6.3850 h4        1 RXT      0.049100
     38 H20        -3.9720   -6.1630    5.2450 h5        1 RXT      0.050100
     39 H21        -1.6290   -1.2760    7.9610 ha        1 RXT      0.161000
     40 H22        -1.7870   -2.6280   10.3250 h4        1 RXT      0.171000
     41 H23        -2.7760   -4.9140    9.8440 hn        1 RXT      0.312700
@<TRIPOS>BOND
     1    1    2 1   
     2    1    5 1   
     3    1   24 1   
     4    1   25 1   
     5    2    3 1   
     6    2   26 1   
     7    2   27 1   
     8    3    4 1   
     9    3   28 1   
    10    3   29 1   
    11    4    5 1   
    12    4   30 1   
    13    4   31 1   
    14    5    6 1   
    15    5   32 1   
    16    6    7 1   
    17    6   10 1   
    18    6   33 1   
    19    7    8 1   
    20    7   34 1   
    21    7   35 1   
    22    8    9 3   
    23   10   11 1   
    24   10   12 1   
    25   11   14 2   
    26   11   36 1   
    27   12   13 2   
    28   13   14 1   
    29   13   37 1   
    30   14   15 1   
    31   15   16 ar  
    32   15   20 ar  
    33   16   17 ar  
    34   17   18 ar  
    35   17   38 1   
    36   18   19 ar  
    37   19   20 ar  
    38   19   23 1   
    39   20   21 1   
    40   21   22 2   
    41   21   39 1   
    42   22   23 1   
    43   22   40 1   
    44   23   41 1   
@<TRIPOS>SUBSTRUCTURE
     1 RXT         1 TEMP              0 ****  ****    0 ROOT
