@<TRIPOS>MOLECULE
RXT
   41    44     1     0     0
SMALL
bcc


@<TRIPOS>ATOM
      1 CAK        -0.1260   -0.0210   -0.0850 c3        1 RXT     -0.078400
      2 CAH         1.3930   -0.0530   -0.1910 c3        1 RXT     -0.079900
      3 CAI         1.9420   -0.4090    1.1850 c3        1 RXT     -0.079900
      4 CAL         0.7540   -0.5500    2.1270 c3        1 RXT     -0.078400
      5 CAU        -0.4910   -0.6760    1.2490 c3        1 RXT     -0.082700
      6 CAV        -1.7310   -0.0200    1.8850 c3        1 RXT      0.077000
      7 CAJ        -2.9430   -0.2260    0.9530 c3        1 RXT     -0.039300
      8 CAB        -4.0930    0.5380    1.3770 c1        1 RXT      0.204700
      9 NAA        -5.0240    1.1510    1.7070 n1        1 RXT     -0.350800
     10 NAW        -1.9970   -0.5330    3.2280 na        1 RXT      0.081400
     11 CAG        -2.2480   -1.8730    3.5340 cc        1 RXT     -0.081300
     12 NAO        -2.0390    0.2480    4.3270 nc        1 RXT     -0.507800
     13 CAF        -2.3120   -0.5630    5.3750 cd        1 RXT      0.331200
     14 CAQ        -2.4500   -1.9360    4.9280 cd        1 RXT     -0.338800
     15 CAR        -2.7550   -3.1150    5.7040 ca        1 RXT      0.594800
     16 NAM        -3.2570   -4.2020    5.0630 nb        1 RXT     -0.737000
     17 CAE        -3.5550   -5.3030    5.8130 ca        1 RXT      0.647900
     18 NAP        -3.4220   -5.4890    7.1440 nb        1 RXT     -0.708000
     19 CAT        -2.9020   -4.3990    7.7870 ca        1 RXT      0.444800
     20 CAS        -2.5360   -3.1570    7.1030 ca        1 RXT     -0.312400
     21 CAD        -2.0100   -2.2810    8.1170 cc        1 RXT     -0.158200
     22 CAC        -2.0730   -2.9620    9.3290 cd        1 RXT     -0.111100
     23 NAN        -2.6120   -4.2400    9.1450 na        1 RXT     -0.284100
     24 H1         -0.4910    1.0370   -0.1170 hc        1 RXT      0.050200
     25 H2         -0.5990   -0.5690   -0.9380 hc        1 RXT      0.050200
     26 H3          1.7810    0.9400   -0.5300 hc        1 RXT      0.045950
     27 H4          1.7150   -0.8110   -0.9480 hc        1 RXT      0.045950
     28 H5          2.6430    0.3810    1.5520 hc        1 RXT      0.045950
     29 H6          2.5170   -1.3680    1.1370 hc        1 RXT      0.045950
     30 H7          0.8660   -1.4430    2.7890 hc        1 RXT      0.050200
     31 H8          0.6770    0.3520    2.7870 hc        1 RXT      0.050200
     32 H9         -0.7090   -1.7660    1.0740 hc        1 RXT      0.056700
     33 H10        -1.5360    1.0930    1.9740 h1        1 RXT      0.100700
     34 H11        -2.6510    0.1030   -0.0830 hc        1 RXT      0.085700
     35 H12        -3.2190   -1.3160    0.9030 hc        1 RXT      0.085700
     36 H18        -2.2650   -2.6630    2.7830 h4        1 RXT      0.190000
     37 H19        -2.4250   -0.1760    6.3890 h4        1 RXT      0.049100
     38 H20        -3.9690   -6.1640    5.2470 h5        1 RXT      0.050100
     39 H21        -1.6190   -1.2790    7.9630 ha        1 RXT      0.161000
     40 H22        -1.7720   -2.6340   10.3250 h4        1 RXT      0.171000
     41 H23        -2.7630   -4.9190    9.8450 hn        1 RXT      0.312700
@<TRIPOS>BOND
     1    1    2 1   
     2    1    5 1   
     3    1   24 1   
     4    1   25 1   
     5    2    3 1   
     6    2   26 1   
     7    2   27 1   
     8    3    4 1   
     9    3   28 1   
    10    3   29 1   
    11    4    5 1   
    12    4   30 1   
    13    4   31 1   
    14    5    6 1   
    15    5   32 1   
    16    6    7 1   
    17    6   10 1   
    18    6   33 1   
    19    7    8 1   
    20    7   34 1   
    21    7   35 1   
    22    8    9 3   
    23   10   11 1   
    24   10   12 1   
    25   11   14 2   
    26   11   36 1   
    27   12   13 2   
    28   13   14 1   
    29   13   37 1   
    30   14   15 1   
    31   15   16 ar  
    32   15   20 ar  
    33   16   17 ar  
    34   17   18 ar  
    35   17   38 1   
    36   18   19 ar  
    37   19   20 ar  
    38   19   23 1   
    39   20   21 1   
    40   21   22 2   
    41   21   39 1   
    42   22   23 1   
    43   22   40 1   
    44   23   41 1   
@<TRIPOS>SUBSTRUCTURE
     1 RXT         1 TEMP              0 ****  ****    0 ROOT
