@<TRIPOS>MOLECULE
RXV
   61    65     1     0     0
SMALL
bcc


@<TRIPOS>ATOM
      1 N11        -1.1010   -0.7980   -2.1840 n1        1 RXV     -0.350800
      2 C10        -0.5240   -0.6630   -1.1830 cg        1 RXV      0.232800
      3 C9          0.1650   -0.4940    0.0460 ca        1 RXV     -0.125300
      4 C12         1.5320   -0.2810    0.1100 ca        1 RXV     -0.002300
      5 C32         2.1350   -0.1080    1.3990 ca        1 RXV     -0.114300
      6 C33         3.5190    0.1280    1.5620 ca        1 RXV     -0.170000
      7 C3          4.0550    0.2830    2.8310 ca        1 RXV      0.137100
      8 O2          5.4140    0.5200    2.8720 os        1 RXV     -0.331900
      9 C1          6.0050    0.6080    4.1650 c3        1 RXV      0.110700
     10 C4          3.2310    0.2090    3.9850 ca        1 RXV     -0.171000
     11 C5          1.8850   -0.0170    3.8490 ca        1 RXV     -0.124300
     12 C6          1.2940   -0.1790    2.5550 ca        1 RXV      0.377600
     13 N7         -0.0680   -0.4000    2.4640 nb        1 RXV     -0.633000
     14 C8         -0.5950   -0.5460    1.2670 ca        1 RXV      0.432200
     15 C13         2.3590   -0.2510   -1.1280 c3        1 RXV     -0.052100
     16 C14         2.6170    1.2000   -1.5560 c3        1 RXV      0.177800
     17 N15         3.2550    1.2930   -2.8630 n3        1 RXV     -0.746600
     18 C16         2.9660    2.5370   -3.5560 c3        1 RXV      0.176300
     19 C17         3.5000    2.5350   -4.9920 c3        1 RXV     -0.104900
     20 C18         5.0050    2.2460   -4.9770 c3        1 RXV      0.122500
     21 C19         5.2780    0.9290   -4.2460 c3        1 RXV     -0.104900
     22 C20         4.6750    0.9940   -2.8390 c3        1 RXV      0.176300
     23 N21         5.5510    2.2260   -6.3850 n4        1 RXV     -0.756000
     24 C22         7.0210    2.4720   -6.4340 c3        1 RXV      0.076500
     25 C23         7.6090    2.3610   -7.8220 ca        1 RXV      0.311600
     26 C24         9.0090    2.1950   -7.9040 ca        1 RXV     -0.169300
     27 C25         9.5820    2.1350   -9.1710 ca        1 RXV     -0.028100
     28 S26        11.1870    1.9500   -9.6420 ss        1 RXV     -0.104000
     29 C27        10.7360    2.0120  -11.4000 c3        1 RXV      0.174500
     30 O28         9.3080    2.1760  -11.5360 os        1 RXV     -0.266900
     31 C29         8.7200    2.2390  -10.2940 ca        1 RXV      0.006800
     32 C30         7.3330    2.3970  -10.1240 ca        1 RXV      0.423200
     33 N31         6.7900    2.4590   -8.8980 nb        1 RXV     -0.689000
     34 H8         -1.6870   -0.7220    1.2220 h4        1 RXV      0.043100
     35 H131        1.8330   -0.8010   -1.9550 hc        1 RXV      0.070200
     36 H132        3.3290   -0.7860   -0.9480 hc        1 RXV      0.070200
     37 H33         4.1830    0.1890    0.6880 ha        1 RXV      0.142000
     38 H4          3.6700    0.3300    4.9870 ha        1 RXV      0.152000
     39 H11C        5.5950    1.4840    4.7250 h1        1 RXV      0.051700
     40 H12C        7.0920    0.7580    3.9410 h1        1 RXV      0.051700
     41 H13C        5.8480   -0.3380    4.7380 h1        1 RXV      0.051700
     42 H5          1.2380   -0.0760    4.7400 ha        1 RXV      0.165000
     43 H141        1.6220    1.7290   -1.6090 h1        1 RXV      0.054200
     44 H142        3.2330    1.7090   -0.7580 h1        1 RXV      0.054200
     45 H161        3.3900    3.4340   -3.0170 h1        1 RXV      0.057700
     46 H162        1.8460    2.6610   -3.6070 h1        1 RXV      0.057700
     47 H201        5.2590    1.7490   -2.2330 h1        1 RXV      0.057700
     48 H202        4.8100   -0.0150   -2.3540 h1        1 RXV      0.057700
     49 H171        2.9580    1.7560   -5.5910 hc        1 RXV      0.072700
     50 H172        3.2930    3.5390   -5.4440 hc        1 RXV      0.072700
     51 H18         5.5350    3.0880   -4.4370 hx        1 RXV      0.101700
     52 H191        6.3800    0.7480   -4.1470 hc        1 RXV      0.072700
     53 H192        4.8260    0.0690   -4.8070 hc        1 RXV      0.072700
     54 H21         5.0710    2.9470   -6.9400 hn        1 RXV      0.460300
     55 H221        7.2140    3.5120   -6.0380 hx        1 RXV      0.108200
     56 H222        7.5240    1.7220   -5.7570 hx        1 RXV      0.108200
     57 H24         9.6250    2.1190   -6.9970 ha        1 RXV      0.165000
     58 H271       11.0040    1.0560  -11.9120 h2        1 RXV      0.106700
     59 H272       11.2140    2.8880  -11.9010 h2        1 RXV      0.106700
     60 H30         6.6480    2.4780  -10.9880 h4        1 RXV      0.065100
     61 H212        5.3450    1.3160   -6.8140 hn        1 RXV      0.460300
@<TRIPOS>BOND
     1    1    2 3   
     2    2    3 1   
     3    3    4 ar  
     4    3   14 ar  
     5    4    5 ar  
     6    4   15 1   
     7    5    6 ar  
     8    5   12 ar  
     9    6    7 ar  
    10    6   37 1   
    11    7    8 1   
    12    7   10 ar  
    13    8    9 1   
    14    9   39 1   
    15    9   40 1   
    16    9   41 1   
    17   10   11 ar  
    18   10   38 1   
    19   11   12 ar  
    20   11   42 1   
    21   12   13 ar  
    22   13   14 ar  
    23   14   34 1   
    24   15   16 1   
    25   15   35 1   
    26   15   36 1   
    27   16   17 1   
    28   16   43 1   
    29   16   44 1   
    30   17   18 1   
    31   17   22 1   
    32   18   19 1   
    33   18   45 1   
    34   18   46 1   
    35   19   20 1   
    36   19   49 1   
    37   19   50 1   
    38   20   21 1   
    39   20   23 1   
    40   20   51 1   
    41   21   22 1   
    42   21   52 1   
    43   21   53 1   
    44   22   47 1   
    45   22   48 1   
    46   23   24 1   
    47   23   54 1   
    48   23   61 1   
    49   24   25 1   
    50   24   55 1   
    51   24   56 1   
    52   25   26 ar  
    53   25   33 ar  
    54   26   27 ar  
    55   26   57 1   
    56   27   28 1   
    57   27   31 ar  
    58   28   29 1   
    59   29   30 1   
    60   29   58 1   
    61   29   59 1   
    62   30   31 1   
    63   31   32 ar  
    64   32   33 ar  
    65   32   60 1   
@<TRIPOS>SUBSTRUCTURE
     1 RXV         1 TEMP              0 ****  ****    0 ROOT
