@<TRIPOS>MOLECULE
RXV
   60    57     1     0     0
SMALL
bcc


@<TRIPOS>ATOM
      1 N11        -3.4010    2.4190    0.9300 n1        1 RXV     -0.036000
      2 C10        -3.2480    1.6880    1.7750 c1        1 RXV     -0.090000
      3 C9         -3.0490    0.7300    2.8820 c1        1 RXV     -0.071000
      4 C12        -2.6100   -0.5360    3.2910 c1        1 RXV      0.029000
      5 C32        -2.8070   -0.9540    4.6140 c1        1 RXV     -0.036000
      6 C33        -2.4320   -2.2610    5.0060 c1        1 RXV     -0.111000
      7 C3         -2.6970   -2.7060    6.3100 c1        1 RXV      0.080000
      8 O2         -2.4300   -4.0440    6.2000 os        1 RXV     -0.206000
      9 C1         -2.8220   -4.8050    7.3360 c3        1 RXV     -0.078000
     10 C4         -3.3250   -1.8680    7.2160 c1        1 RXV     -0.172000
     11 C5         -3.6980   -0.5800    6.8350 c1        1 RXV     -0.111000
     12 C6         -3.4310   -0.1230    5.5090 c1        1 RXV     -0.036000
     13 N7         -3.8720    1.1550    5.0940 n1        1 RXV     -0.122000
     14 C8         -3.6750    1.5660    3.7780 c2        1 RXV     -0.033000
     15 C13        -1.9670   -1.1090    2.0340 c3        1 RXV     -0.146000
     16 C14        -0.5670   -0.4930    1.8290 c3        1 RXV     -0.063000
     17 N15        -0.2550   -0.4590    0.3880 n3        1 RXV     -0.258000
     18 C16        -0.3470    0.9290   -0.1060 c3        1 RXV     -0.066500
     19 C17         0.0990    1.0590   -1.5490 c3        1 RXV     -0.172500
     20 C18         1.4060    0.4700   -1.7770 c3        1 RXV     -0.023000
     21 C19         1.4890   -0.9240   -1.2810 c3        1 RXV     -0.172500
     22 C20         1.0320   -1.0490    0.1650 c3        1 RXV     -0.066500
     23 N21         1.6880    0.4850   -3.2350 n3        1 RXV     -0.297000
     24 C22         2.8970    1.2940   -3.4900 c3        1 RXV     -0.018000
     25 C23         3.1790    1.3430   -5.0110 c2        1 RXV     -0.029000
     26 C24         3.7170    2.5020   -5.5820 c2        1 RXV     -0.117000
     27 C25         4.0030    2.5380   -6.9430 c1        1 RXV     -0.249000
     28 S26         4.5340    3.7080   -7.9060 s         1 RXV      0.227000
     29 C27         4.7210    3.0760   -9.3560 c3        1 RXV     -0.144000
     30 O28         4.3640    1.6590   -9.2680 os        1 RXV     -0.171000
     31 C29         3.7430    1.3760   -7.7680 c2        1 RXV     -0.013000
     32 C30         3.2140    0.2380   -7.2020 c1        1 RXV     -0.059000
     33 N31         2.9250    0.2050   -5.8180 n1        1 RXV     -0.125000
     34 H8         -3.9190    2.4990    3.5040 h4        1 RXV      0.171000
     35 H131       -1.8840   -2.0570    2.1260 hc        1 RXV      0.111000
     36 H132       -2.4890   -0.9180    1.3130 hc        1 RXV      0.111000
     37 H33        -2.0220   -2.8650    4.3600 ha        1 RXV      0.160500
     38 H4         -3.4970   -2.1610    8.0660 ha        1 RXV      0.145000
     39 H11C       -2.5640   -5.7890    7.1970 h1        1 RXV      0.086667
     40 H12C       -2.3550   -4.4460    8.1570 h1        1 RXV      0.086667
     41 H13C       -3.7500   -4.7390    7.4510 h1        1 RXV      0.086667
     42 H5         -4.1520    0.0270    7.4970 ha        1 RXV      0.160500
     43 H141        0.1140   -1.0520    2.3060 h1        1 RXV      0.079500
     44 H142       -0.5520    0.3950    2.1790 h1        1 RXV      0.079500
     45 H161        0.2570    1.5510    0.5000 h1        1 RXV      0.072000
     46 H162       -1.2620    1.2220   -0.0360 h1        1 RXV      0.072000
     47 H201        0.9850   -2.0150    0.4050 h1        1 RXV      0.072000
     48 H202        1.7040   -0.5980    0.7570 h1        1 RXV      0.072000
     49 H171        0.1290    1.9980   -1.7920 hc        1 RXV      0.093750
     50 H172       -0.5690    0.5930   -2.1340 hc        1 RXV      0.093750
     51 H18         2.1130    1.0340   -1.2970 h1        1 RXV      0.092000
     52 H191        0.9220   -1.5040   -1.8520 hc        1 RXV      0.093750
     53 H192        2.3760   -1.2140   -1.3420 hc        1 RXV      0.093750
     54 H21         0.9740    0.8520   -3.6800 hn        1 RXV      0.172000
     55 H221        2.7510    2.2560   -3.1360 h1        1 RXV      0.082500
     56 H222        3.6310    0.9070   -3.0480 h1        1 RXV      0.082500
     57 H24         3.8700    3.3550   -4.9920 ha        1 RXV      0.158000
     58 H271        4.0950    3.5400  -10.0070 h2        1 RXV      0.124000
     59 H272        5.6820    3.1580   -9.6320 h2        1 RXV      0.124000
     60 H30         3.0330   -0.5610   -7.7660 ha        1 RXV      0.180000
@<TRIPOS>BOND
     1    1    2 1   
     2    3    4 1   
     3    3   14 1   
     4    4   15 1   
     5    5    6 1   
     6    5   12 1   
     7    6   37 1   
     8    7    8 1   
     9    7   10 1   
    10    8    9 1   
    11    9   39 1   
    12    9   40 1   
    13    9   41 1   
    14   10   38 1   
    15   11   12 1   
    16   11   42 1   
    17   13   14 1   
    18   14   34 1   
    19   15   16 1   
    20   15   35 1   
    21   15   36 1   
    22   16   17 1   
    23   16   43 1   
    24   16   44 1   
    25   17   18 1   
    26   17   22 1   
    27   18   19 1   
    28   18   45 1   
    29   18   46 1   
    30   19   20 1   
    31   19   49 1   
    32   19   50 1   
    33   20   21 1   
    34   20   23 1   
    35   20   51 1   
    36   21   22 1   
    37   21   52 1   
    38   21   53 1   
    39   22   47 1   
    40   22   48 1   
    41   23   24 1   
    42   23   54 1   
    43   24   25 1   
    44   24   55 1   
    45   24   56 1   
    46   25   26 1   
    47   25   33 1   
    48   26   27 1   
    49   26   57 1   
    50   27   31 1   
    51   28   29 1   
    52   29   30 1   
    53   29   58 1   
    54   29   59 1   
    55   30   31 1   
    56   31   32 1   
    57   32   60 1   
@<TRIPOS>SUBSTRUCTURE
     1 RXV         1 TEMP              0 ****  ****    0 ROOT
