@<TRIPOS>MOLECULE
RXV
   61    65     1     0     0
SMALL
bcc


@<TRIPOS>ATOM
      1 N11        -1.2810   -0.0090   -2.2250 n1        1 RXV     -0.367800
      2 C10        -0.7230    0.0000   -1.2360 cg        1 RXV      0.229800
      3 C9          0.0000    0.0000    0.0000 ca        1 RXV     -0.058300
      4 C12         1.3900    0.0000    0.0000 ca        1 RXV     -0.036300
      5 C32         2.0500    0.0000    1.2400 ca        1 RXV     -0.079300
      6 C33         3.4530    0.0010    1.3180 ca        1 RXV     -0.204000
      7 C3          4.0600    0.0010    2.5410 ca        1 RXV      0.194100
      8 O2          5.4170    0.0020    2.6180 os        1 RXV     -0.315900
      9 C1          5.9930    0.0010    3.9260 c3        1 RXV      0.247700
     10 C4          3.3020   -0.0000    3.7160 ca        1 RXV     -0.200000
     11 C5          1.9420   -0.0010    3.6720 ca        1 RXV     -0.100300
     12 C6          1.2810   -0.0010    2.4320 ca        1 RXV      0.338600
     13 N7         -0.0560   -0.0020    2.3690 nb        1 RXV     -0.554000
     14 C8         -0.6910    0.0040    1.2250 ca        1 RXV      0.415200
     15 C13         2.1660    0.0010   -1.2930 c3        1 RXV      0.016900
     16 C14         2.4280    1.4430   -1.7300 c3        1 RXV      0.157800
     17 N15         3.1840    1.4440   -2.9890 n3        1 RXV     -0.541600
     18 C16         3.2500    2.7940   -3.5630 c3        1 RXV      0.159800
     19 C17         3.9160    2.7320   -4.9400 c3        1 RXV     -0.029900
     20 C18         5.3240    2.1510   -4.7940 c3        1 RXV     -0.069500
     21 C19         5.2310    0.7640   -4.1510 c3        1 RXV     -0.029900
     22 C20         4.5280    0.8830   -2.7960 c3        1 RXV      0.159800
     23 N21         5.9470    2.0350   -6.1200 ny        1 RXV      0.025000
     24 C22         7.4110    2.0610   -6.0180 c3        1 RXV     -0.045500
     25 C23         8.0140    1.9410   -7.3950 ca        1 RXV      0.231600
     26 C24         8.3720    3.0780   -8.0970 ca        1 RXV     -0.111300
     27 C25         8.9250    2.9360   -9.3520 ca        1 RXV      0.001900
     28 S26         9.4980    4.0870  -10.5750 ss        1 RXV     -0.297000
     29 C27         9.5770    2.8310  -11.9150 c3        1 RXV      0.350500
     30 O28         9.6980    1.6230  -11.1390 os        1 RXV     -0.265900
     31 C29         9.1280    1.6650   -9.9100 ca        1 RXV      0.059800
     32 C30         8.7260    0.5790   -9.1260 ca        1 RXV      0.402200
     33 N31         8.2050    0.7510   -7.9310 nb        1 RXV     -0.525000
     34 H8         -1.7600    0.0200    1.4010 h4        1 RXV      0.001100
     35 H131        1.5940   -0.5100   -2.0570 hc        1 RXV      0.037200
     36 H132        3.1110   -0.5090   -1.1470 hc        1 RXV      0.037200
     37 H33         4.1640   -0.6250    0.7930 ha        1 RXV      0.136000
     38 H4          3.4310    0.0130    4.7920 ha        1 RXV      0.142000
     39 H11C        7.0730   -0.0020    3.8450 h1        1 RXV      0.002367
     40 H12C        5.6700   -0.8830    4.4620 h1        1 RXV      0.002367
     41 H13C        5.6730    0.8860    4.4620 h1        1 RXV      0.002367
     42 H5          1.3450    0.0060    4.5760 ha        1 RXV      0.126000
     43 H141        2.9990    1.9550   -0.9650 h1        1 RXV      0.027200
     44 H142        1.4830    1.9530   -1.8760 h1        1 RXV      0.027200
     45 H161        3.8320    3.4340   -2.9110 h1        1 RXV      0.032200
     46 H162        2.2480    3.1910   -3.6660 h1        1 RXV      0.032200
     47 H201        4.4460   -0.1000   -2.3470 h1        1 RXV      0.032200
     48 H202        5.1010    1.5350   -2.1490 h1        1 RXV      0.032200
     49 H171        3.9800    3.7310   -5.3550 hc        1 RXV      0.038450
     50 H172        3.3310    2.0990   -5.5950 hc        1 RXV      0.038450
     51 H18         5.9200    2.8010   -4.1650 hx        1 RXV      0.087700
     52 H191        6.2280    0.3660   -4.0050 hc        1 RXV      0.038450
     53 H192        4.6630    0.1050   -4.7950 hc        1 RXV      0.038450
     54 H21         5.6440    2.7980   -6.6930 hn        1 RXV      0.247300
     55 H221        7.7450    1.2330   -5.4040 hx        1 RXV      0.083200
     56 H222        7.7250    2.9950   -5.5670 hx        1 RXV      0.083200
     57 H24         8.4140    4.0360   -7.5930 ha        1 RXV      0.131000
     58 H271       10.4630    2.9810  -12.5200 h2        1 RXV      0.063700
     59 H272        8.6540    2.8250  -12.4810 h2        1 RXV      0.063700
     60 H30         8.8470   -0.4260   -9.5120 h4        1 RXV      0.011100
     61 H212        5.6630    1.1730   -6.5430 hn        1 RXV      0.247300
@<TRIPOS>BOND
     1    1    2 3   
     2    2    3 1   
     3    3    4 ar  
     4    3   14 ar  
     5    4    5 ar  
     6    4   15 1   
     7    5    6 ar  
     8    5   12 ar  
     9    6    7 ar  
    10    6   37 1   
    11    7    8 1   
    12    7   10 ar  
    13    8    9 1   
    14    9   39 1   
    15    9   40 1   
    16    9   41 1   
    17   10   11 ar  
    18   10   38 1   
    19   11   12 ar  
    20   11   42 1   
    21   12   13 ar  
    22   13   14 ar  
    23   14   34 1   
    24   15   16 1   
    25   15   35 1   
    26   15   36 1   
    27   16   17 1   
    28   16   43 1   
    29   16   44 1   
    30   17   18 1   
    31   17   22 1   
    32   18   19 1   
    33   18   45 1   
    34   18   46 1   
    35   19   20 1   
    36   19   49 1   
    37   19   50 1   
    38   20   21 1   
    39   20   23 1   
    40   20   51 1   
    41   21   22 1   
    42   21   52 1   
    43   21   53 1   
    44   22   47 1   
    45   22   48 1   
    46   23   24 1   
    47   23   54 1   
    48   23   61 1   
    49   24   25 1   
    50   24   55 1   
    51   24   56 1   
    52   25   26 ar  
    53   25   33 ar  
    54   26   27 ar  
    55   26   57 1   
    56   27   28 1   
    57   27   31 ar  
    58   28   29 1   
    59   29   30 1   
    60   29   58 1   
    61   29   59 1   
    62   30   31 1   
    63   31   32 ar  
    64   32   33 ar  
    65   32   60 1   
@<TRIPOS>SUBSTRUCTURE
     1 RXV         1 TEMP              0 ****  ****    0 ROOT
