@<TRIPOS>MOLECULE
RXV
   61    65     1     0     0
SMALL
bcc


@<TRIPOS>ATOM
      1 N11        -1.0740   -0.8190   -2.2010 n1        1 RXV     -0.350800
      2 C10        -0.5030   -0.6820   -1.1960 cg        1 RXV      0.232800
      3 C9          0.1770   -0.5110    0.0360 ca        1 RXV     -0.125300
      4 C12         1.5430   -0.2920    0.1090 ca        1 RXV     -0.002300
      5 C32         2.1380   -0.1170    1.4010 ca        1 RXV     -0.114300
      6 C33         3.5210    0.1240    1.5720 ca        1 RXV     -0.170000
      7 C3          4.0480    0.2810    2.8450 ca        1 RXV      0.137100
      8 O2          5.4060    0.5230    2.8930 os        1 RXV     -0.331900
      9 C1          5.9890    0.6140    4.1900 c3        1 RXV      0.110700
     10 C4          3.2180    0.2020    3.9930 ca        1 RXV     -0.171000
     11 C5          1.8740   -0.0290    3.8490 ca        1 RXV     -0.124300
     12 C6          1.2910   -0.1930    2.5520 ca        1 RXV      0.377600
     13 N7         -0.0700   -0.4190    2.4530 nb        1 RXV     -0.633000
     14 C8         -0.5890   -0.5680    1.2530 ca        1 RXV      0.432200
     15 C13         2.3770   -0.2580   -1.1250 c3        1 RXV     -0.052100
     16 C14         2.6310    1.1940   -1.5510 c3        1 RXV      0.177800
     17 N15         3.2640    1.2930   -2.8590 n3        1 RXV     -0.746600
     18 C16         2.9800    2.5430   -3.5430 c3        1 RXV      0.175800
     19 C17         3.5090    2.5480   -4.9800 c3        1 RXV     -0.104900
     20 C18         5.0130    2.2500   -4.9740 c3        1 RXV      0.122500
     21 C19         5.2800    0.9260   -4.2530 c3        1 RXV     -0.104900
     22 C20         4.6830    0.9840   -2.8430 c3        1 RXV      0.175800
     23 N21         5.5530    2.2360   -6.3830 n4        1 RXV     -0.756000
     24 C22         7.0240    2.4720   -6.4380 c3        1 RXV      0.076500
     25 C23         7.6050    2.3680   -7.8280 ca        1 RXV      0.311600
     26 C24         9.0030    2.1900   -7.9170 ca        1 RXV     -0.169300
     27 C25         9.5700    2.1350   -9.1870 ca        1 RXV     -0.028100
     28 S26        11.1720    1.9410   -9.6670 ss        1 RXV     -0.104000
     29 C27        10.7150    2.0210  -11.4220 c3        1 RXV      0.174500
     30 O28         9.2870    2.1990  -11.5510 os        1 RXV     -0.266900
     31 C29         8.7050    2.2570  -10.3060 ca        1 RXV      0.006800
     32 C30         7.3200    2.4260  -10.1290 ca        1 RXV      0.423200
     33 N31         6.7830    2.4820   -8.8990 nb        1 RXV     -0.689000
     34 H8         -1.6800   -0.7480    1.2010 h4        1 RXV      0.043100
     35 H131        3.3490   -0.7880   -0.9400 hc        1 RXV      0.070200
     36 H132        1.8590   -0.8100   -1.9550 hc        1 RXV      0.070200
     37 H33         4.1890    0.1890    0.7020 ha        1 RXV      0.142000
     38 H4          3.6500    0.3250    4.9980 ha        1 RXV      0.152000
     39 H11C        5.5720    1.4870    4.7480 h1        1 RXV      0.051700
     40 H12C        5.8320   -0.3330    4.7610 h1        1 RXV      0.051700
     41 H13C        7.0770    0.7680    3.9720 h1        1 RXV      0.051700
     42 H5          1.2220   -0.0920    4.7370 ha        1 RXV      0.165000
     43 H141        1.6350    1.7220   -1.6010 h1        1 RXV      0.053700
     44 H142        3.2480    1.7030   -0.7530 h1        1 RXV      0.053700
     45 H161        1.8610    2.6740   -3.5880 h1        1 RXV      0.057700
     46 H162        3.4130    3.4340   -2.9980 h1        1 RXV      0.057700
     47 H201        5.2740    1.7310   -2.2340 h1        1 RXV      0.057700
     48 H202        4.8140   -0.0290   -2.3660 h1        1 RXV      0.057700
     49 H171        2.9600    1.7760   -5.5830 hc        1 RXV      0.072950
     50 H172        3.3060    3.5570   -5.4240 hc        1 RXV      0.072950
     51 H18         5.5490    3.0850   -4.4300 hx        1 RXV      0.101700
     52 H191        4.8210    0.0720   -4.8180 hc        1 RXV      0.072950
     53 H192        6.3810    0.7380   -4.1590 hc        1 RXV      0.072950
     54 H21         5.0750    2.9650   -6.9310 hn        1 RXV      0.460300
     55 H221        7.5250    1.7150   -5.7680 hx        1 RXV      0.108200
     56 H222        7.2260    3.5080   -6.0350 hx        1 RXV      0.108200
     57 H24         9.6230    2.1020   -7.0140 ha        1 RXV      0.165000
     58 H271       10.9720    1.0680  -11.9430 h2        1 RXV      0.106700
     59 H272       11.1980    2.8970  -11.9180 h2        1 RXV      0.106700
     60 H30         6.6320    2.5190  -10.9900 h4        1 RXV      0.065100
     61 H212        5.3380    1.3310   -6.8190 hn        1 RXV      0.460300
@<TRIPOS>BOND
     1    1    2 3   
     2    2    3 1   
     3    3    4 ar  
     4    3   14 ar  
     5    4    5 ar  
     6    4   15 1   
     7    5    6 ar  
     8    5   12 ar  
     9    6    7 ar  
    10    6   37 1   
    11    7    8 1   
    12    7   10 ar  
    13    8    9 1   
    14    9   39 1   
    15    9   40 1   
    16    9   41 1   
    17   10   11 ar  
    18   10   38 1   
    19   11   12 ar  
    20   11   42 1   
    21   12   13 ar  
    22   13   14 ar  
    23   14   34 1   
    24   15   16 1   
    25   15   35 1   
    26   15   36 1   
    27   16   17 1   
    28   16   43 1   
    29   16   44 1   
    30   17   18 1   
    31   17   22 1   
    32   18   19 1   
    33   18   45 1   
    34   18   46 1   
    35   19   20 1   
    36   19   49 1   
    37   19   50 1   
    38   20   21 1   
    39   20   23 1   
    40   20   51 1   
    41   21   22 1   
    42   21   52 1   
    43   21   53 1   
    44   22   47 1   
    45   22   48 1   
    46   23   24 1   
    47   23   54 1   
    48   23   61 1   
    49   24   25 1   
    50   24   55 1   
    51   24   56 1   
    52   25   26 ar  
    53   25   33 ar  
    54   26   27 ar  
    55   26   57 1   
    56   27   28 1   
    57   27   31 ar  
    58   28   29 1   
    59   29   30 1   
    60   29   58 1   
    61   29   59 1   
    62   30   31 1   
    63   31   32 ar  
    64   32   33 ar  
    65   32   60 1   
@<TRIPOS>SUBSTRUCTURE
     1 RXV         1 TEMP              0 ****  ****    0 ROOT
