@<TRIPOS>MOLECULE
RXV
   60    64     1     0     0
SMALL
bcc


@<TRIPOS>ATOM
      1 N11        -5.3100   -4.6860    0.5930 n1        1 RXV     -0.355800
      2 C10        -5.5900   -3.5660    0.4450 cg        1 RXV      0.237800
      3 C9         -5.9560   -2.2080    0.2570 ca        1 RXV     -0.137300
      4 C12        -5.0540   -1.1640    0.3680 ca        1 RXV      0.019700
      5 C32        -5.5350    0.1720    0.1590 ca        1 RXV     -0.118300
      6 C33        -4.6870    1.3000    0.2500 ca        1 RXV     -0.153000
      7 C3         -5.1990    2.5730    0.0450 ca        1 RXV      0.125100
      8 O2         -4.2810    3.6000    0.1540 os        1 RXV     -0.325900
      9 C1         -4.7840    4.9200   -0.0240 c3        1 RXV      0.112700
     10 C4         -6.5700    2.7680   -0.2590 ca        1 RXV     -0.173000
     11 C5         -7.4080    1.6860   -0.3530 ca        1 RXV     -0.134300
     12 C6         -6.9200    0.3570   -0.1490 ca        1 RXV      0.375600
     13 N7         -7.8000   -0.7060   -0.2550 nb        1 RXV     -0.648000
     14 C8         -7.3300   -1.9190   -0.0600 ca        1 RXV      0.433200
     15 C13        -3.6260   -1.4060    0.7150 c3        1 RXV     -0.059100
     16 C14        -2.7430   -1.3100   -0.5380 c3        1 RXV      0.177800
     17 N15        -1.3240   -1.3680   -0.2200 n3        1 RXV     -0.737600
     18 C16        -0.5390   -1.9880   -1.2790 c3        1 RXV      0.174300
     19 C17         0.9500   -2.0770   -0.9540 c3        1 RXV     -0.093900
     20 C18         1.5090   -0.6850   -0.6200 c3        1 RXV      0.174500
     21 C19         0.6890   -0.1200    0.5510 c3        1 RXV     -0.093900
     22 C20        -0.7930   -0.0770    0.1950 c3        1 RXV      0.174300
     23 N21         2.9480   -0.7460   -0.4030 n3        1 RXV     -0.818200
     24 C22         3.5960    0.5490   -0.4190 c3        1 RXV      0.125500
     25 C23         5.0370    0.4990    0.0510 ca        1 RXV      0.392600
     26 C24         6.0460    0.8960   -0.8610 ca        1 RXV     -0.182300
     27 C25         7.3640    0.8860   -0.4260 ca        1 RXV     -0.022100
     28 S26         8.7990    1.2940   -1.2290 ss        1 RXV     -0.182000
     29 C27         9.7930    0.9050    0.2360 c3        1 RXV      0.188500
     30 O28         8.9440    0.4690    1.3140 os        1 RXV     -0.287900
     31 C29         7.6230    0.4720    0.9030 ca        1 RXV     -0.033200
     32 C30         6.5700    0.0850    1.7450 ca        1 RXV      0.406200
     33 N31         5.2930    0.1020    1.3190 nb        1 RXV     -0.651000
     34 H8         -8.0530   -2.7520   -0.1500 h4        1 RXV      0.035100
     35 H131       -3.3010   -0.6600    1.4890 hc        1 RXV      0.072200
     36 H132       -3.5000   -2.4230    1.1740 hc        1 RXV      0.072200
     37 H33        -3.6180    1.1780    0.4810 ha        1 RXV      0.157000
     38 H4         -6.9630    3.7830   -0.4190 ha        1 RXV      0.145000
     39 H11C       -5.1940    5.0500   -1.0550 h1        1 RXV      0.047033
     40 H12C       -5.5610    5.1540    0.7430 h1        1 RXV      0.047033
     41 H13C       -3.8780    5.5620    0.1240 h1        1 RXV      0.047033
     42 H5         -8.4760    1.8290   -0.5900 ha        1 RXV      0.157000
     43 H141       -3.0060   -2.1760   -1.2100 h1        1 RXV      0.040700
     44 H142       -3.0080   -0.3620   -1.0940 h1        1 RXV      0.040700
     45 H161       -0.9320   -3.0340   -1.4250 h1        1 RXV      0.030950
     46 H162       -0.6600   -1.4360   -2.2580 h1        1 RXV      0.030950
     47 H201       -0.9460    0.7090   -0.6050 h1        1 RXV      0.030950
     48 H202       -1.3730    0.2520    1.1040 h1        1 RXV      0.030950
     49 H171        1.1120   -2.7710   -0.0890 hc        1 RXV      0.054700
     50 H172        1.4790   -2.5030   -1.8440 hc        1 RXV      0.054700
     51 H18         1.3360   -0.0170   -1.5170 h1        1 RXV      0.051700
     52 H191        0.8460   -0.7520    1.4640 hc        1 RXV      0.054700
     53 H192        1.0180    0.9230    0.7950 hc        1 RXV      0.054700
     54 H21         3.1520   -1.2500    0.4400 hn        1 RXV      0.376800
     55 H221        3.5760    0.9190   -1.4840 h1        1 RXV      0.042700
     56 H222        3.0590    1.3190    0.2130 h1        1 RXV      0.042700
     57 H24         5.7850    1.1970   -1.8850 ha        1 RXV      0.157000
     58 H271       10.5010    0.0720    0.0180 h2        1 RXV      0.085200
     59 H272       10.3350    1.8130    0.5930 h2        1 RXV      0.085200
     60 H30         6.7510   -0.2450    2.7820 h4        1 RXV      0.043100
@<TRIPOS>BOND
     1    1    2 3   
     2    2    3 1   
     3    3    4 ar  
     4    3   14 ar  
     5    4    5 ar  
     6    4   15 1   
     7    5    6 ar  
     8    5   12 ar  
     9    6    7 ar  
    10    6   37 1   
    11    7    8 1   
    12    7   10 ar  
    13    8    9 1   
    14    9   39 1   
    15    9   40 1   
    16    9   41 1   
    17   10   11 ar  
    18   10   38 1   
    19   11   12 ar  
    20   11   42 1   
    21   12   13 ar  
    22   13   14 ar  
    23   14   34 1   
    24   15   16 1   
    25   15   35 1   
    26   15   36 1   
    27   16   17 1   
    28   16   43 1   
    29   16   44 1   
    30   17   18 1   
    31   17   22 1   
    32   18   19 1   
    33   18   45 1   
    34   18   46 1   
    35   19   20 1   
    36   19   49 1   
    37   19   50 1   
    38   20   21 1   
    39   20   23 1   
    40   20   51 1   
    41   21   22 1   
    42   21   52 1   
    43   21   53 1   
    44   22   47 1   
    45   22   48 1   
    46   23   24 1   
    47   23   54 1   
    48   24   25 1   
    49   24   55 1   
    50   24   56 1   
    51   25   26 ar  
    52   25   33 ar  
    53   26   27 ar  
    54   26   57 1   
    55   27   28 1   
    56   27   31 ar  
    57   28   29 1   
    58   29   30 1   
    59   29   58 1   
    60   29   59 1   
    61   30   31 1   
    62   31   32 ar  
    63   32   33 ar  
    64   32   60 1   
@<TRIPOS>SUBSTRUCTURE
     1 RXV         1 TEMP              0 ****  ****    0 ROOT
