@<TRIPOS>MOLECULE
RYJ
   29    28     1     0     0
SMALL
bcc


@<TRIPOS>ATOM
      1 S        -590.7690   66.0080 -250.8100 s6        1 RYJ      2.832000
      2 N'       1328.1620 -149.4040  554.7740 n3        1 RYJ     -0.205000
      3 O'       -592.6180   70.0620 -245.9130 o         1 RYJ     -0.204000
      4 C1       -592.7600   68.5160 -247.7030 c2        1 RYJ     -0.010000
      5 C2       -592.7180   66.4620 -248.9870 c2        1 RYJ      0.217000
      6 C3       -593.3060   67.2990 -248.0000 c2        1 RYJ     -0.199000
      7 C4       -591.5720   66.8620 -249.6650 c2        1 RYJ     -1.000000
      8 C5       -591.5560   69.0060 -248.4070 c3        1 RYJ     -0.196000
      9 C6       -590.9970   68.1170 -249.3930 c1        1 RYJ     -0.145000
     10 F2'1     1327.9160 -150.0450  557.0900 f         1 RYJ     -0.078333
     11 F2'2     1326.7910 -151.1960  555.5900 f         1 RYJ     -0.078333
     12 F2'3     1326.1770 -149.1410  556.0830 f         1 RYJ     -0.078333
     13 C1'      1329.4480 -149.2900  554.8710 c2        1 RYJ      0.153000
     14 O1S      -590.0840   64.9210 -250.3060 o         1 RYJ     -0.855500
     15 C2'      1327.2550 -149.9530  555.9000 c3        1 RYJ      0.523000
     16 O2S      -591.4540   65.9110 -252.0030 o         1 RYJ     -0.855500
     17 N3S      -589.4080   67.1710 -251.2290 n4        1 RYJ     -0.552000
     18 HN'      -594.4490   69.3730 -246.5640 h4        1 RYJ      0.149000
     19 H2       -594.2080   66.9340 -247.4750 ha        1 RYJ      0.185000
     20 H3       -593.2010   65.4860 -249.1950 ha        1 RYJ      0.174000
     21 H5       -591.7680   70.0080 -248.9040 hc        1 RYJ      0.222500
     22 H6       -590.7540   69.2600 -247.6340 hc        1 RYJ      0.222500
     23 H1'      1329.9870 -149.5860  555.8040 h4        1 RYJ      0.226000
     24 H1'A     1330.0490 -148.8880  554.0190 h4        1 RYJ      0.226000
     25 HN3S     -589.4300   67.4590 -252.2040 hn        1 RYJ      0.275000
     26 HN3A     -588.4890   66.7810 -251.0340 hn        1 RYJ      0.275000
     27 H'2      1327.6450 -149.1420  553.9430 hn        1 RYJ      0.312000
     28 H3S3     -589.5470   68.0280 -250.6210 hn        1 RYJ      0.275000
     29 C7       -593.3400   69.3880 -246.6400 c2        1 RYJ      0.188000
@<TRIPOS>BOND
     1    1    7 1   
     2    1   14 1   
     3    1   16 1   
     4    1   17 1   
     5    2   13 1   
     6    2   15 1   
     7    2   27 1   
     8    3   29 1   
     9    4    6 1   
    10    4    8 1   
    11    4   29 1   
    12    5    6 1   
    13    5    7 1   
    14    5   20 1   
    15    6   19 1   
    16    7    9 1   
    17    8    9 1   
    18    8   21 1   
    19    8   22 1   
    20   10   15 1   
    21   11   15 1   
    22   12   15 1   
    23   13   23 1   
    24   13   24 1   
    25   17   25 1   
    26   17   26 1   
    27   17   28 1   
    28   18   29 1   
@<TRIPOS>SUBSTRUCTURE
     1 RYJ         1 TEMP              0 ****  ****    0 ROOT
