@<TRIPOS>MOLECULE
RYJ
   27    27     1     0     0
SMALL
bcc


@<TRIPOS>ATOM
      1 S          -4.3280    0.4170    0.1800 sy        1 RYJ      1.524200
      2 N'          2.3590   -0.5200    0.4820 n         1 RYJ     -0.568900
      3 O'          1.7890   -2.0240   -1.1540 o         1 RYJ     -0.574100
      4 C1          0.0120   -0.7220   -0.2070 ca        1 RYJ     -0.084600
      5 C2         -1.6950    0.9700   -0.0040 ca        1 RYJ     -0.026500
      6 C3         -0.3490    0.6250   -0.1140 ca        1 RYJ     -0.118000
      7 C4         -2.6900   -0.0130    0.0170 ca        1 RYJ     -0.354500
      8 C5         -0.9710   -1.7160   -0.1900 ca        1 RYJ     -0.118000
      9 C6         -2.3120   -1.3570   -0.0740 ca        1 RYJ     -0.026500
     10 F2'1        4.2790    0.8290   -1.4410 f         1 RYJ     -0.237300
     11 F2'2        5.9200    0.2580   -0.1290 f         1 RYJ     -0.237300
     12 F2'3        4.3780    1.6200    0.5820 f         1 RYJ     -0.237300
     13 C1'         3.7550   -0.7660    0.3890 c3        1 RYJ      0.066000
     14 O1S        -5.0030   -0.6650    0.7800 o         1 RYJ     -0.653300
     15 C2'         4.5680    0.4750   -0.1510 c3        1 RYJ      0.589900
     16 O2S        -4.3830    1.6710    0.8220 o         1 RYJ     -0.653300
     17 N3S        -4.8120    0.5730   -1.3350 n3        1 RYJ     -1.027700
     18 HN'         2.0580    0.2070    1.0870 hn        1 RYJ      0.327500
     19 H2         -1.9820    2.0330    0.0880 ha        1 RYJ      0.160000
     20 H3          0.4140    1.4180   -0.1420 ha        1 RYJ      0.154500
     21 H5         -0.6790   -2.7750   -0.2790 ha        1 RYJ      0.154500
     22 H6         -3.0880   -2.1430   -0.0350 ha        1 RYJ      0.160000
     23 H1'         4.1780   -0.9910    1.4080 h1        1 RYJ      0.101700
     24 H1'A        3.9610   -1.6250   -0.3110 h1        1 RYJ      0.101700
     25 HN3S       -4.7820    1.4250   -1.8360 hn        1 RYJ      0.450800
     26 HN3A       -5.1990   -0.1670   -1.8660 hn        1 RYJ      0.450800
     27 C7          1.4380   -1.1370   -0.3550 c         1 RYJ      0.672700
@<TRIPOS>BOND
     1    1    7 1   
     2    1   14 2   
     3    1   16 2   
     4    1   17 1   
     5    2   13 1   
     6    2   18 1   
     7    2   27 1   
     8    3   27 2   
     9    4    6 ar  
    10    4    8 ar  
    11    4   27 1   
    12    5    6 ar  
    13    5    7 ar  
    14    5   19 1   
    15    6   20 1   
    16    7    9 ar  
    17    8    9 ar  
    18    8   21 1   
    19    9   22 1   
    20   10   15 1   
    21   11   15 1   
    22   12   15 1   
    23   13   15 1   
    24   13   23 1   
    25   13   24 1   
    26   17   25 1   
    27   17   26 1   
@<TRIPOS>SUBSTRUCTURE
     1 RYJ         1 TEMP              0 ****  ****    0 ROOT
