@<TRIPOS>MOLECULE
RYJ
   29    29     1     0     0
SMALL
bcc


@<TRIPOS>ATOM
      1 S          -0.1430    0.1040    0.4130 s6        1 RYJ      2.812000
      2 N'          6.6790    0.2660    1.2340 ny        1 RYJ     -0.101000
      3 O'          6.3860    0.0860   -1.0800 o         1 RYJ     -0.100000
      4 C1          4.3500    0.0980    0.2110 c2        1 RYJ     -0.077000
      5 C2          2.3030   -0.7740    1.2000 c2        1 RYJ      0.197000
      6 C3          3.7470   -0.7260    1.1050 c2        1 RYJ     -0.126000
      7 C4          1.5250    0.0110    0.3850 c2        1 RYJ     -0.931000
      8 C5          3.5560    0.9530   -0.7140 c3        1 RYJ     -0.189000
      9 C6          2.1250    0.8550   -0.5820 c1        1 RYJ     -0.084000
     10 F2'1        8.8700    1.3900    2.8250 f         1 RYJ     -0.118667
     11 F2'2       10.2770   -0.1400    2.0930 f         1 RYJ     -0.118667
     12 F2'3        8.5170   -0.7160    3.2870 f         1 RYJ     -0.118667
     13 C1'         8.1160   -0.0240    0.9770 c3        1 RYJ     -0.216000
     14 O1S        -0.7090   -1.1310    0.2010 o         1 RYJ     -0.820000
     15 C2'         8.9630    0.1280    2.3060 c3        1 RYJ      0.428000
     16 O2S        -0.5810    0.9810    1.3770 o         1 RYJ     -0.820000
     17 N3S        -0.5250    1.0010   -1.1430 nz        1 RYJ     -0.534000
     18 HN'         6.5980    1.2320    1.5930 hn        1 RYJ      0.274500
     19 H2          4.3030   -1.4100    1.7720 ha        1 RYJ      0.181000
     20 H3          1.8710   -1.4720    1.9490 ha        1 RYJ      0.202000
     21 H5          3.8350    2.0520   -0.6090 hc        1 RYJ      0.228000
     22 H6          3.8260    0.7030   -1.7960 hc        1 RYJ      0.228000
     23 H1'         8.2340   -1.0790    0.5940 hx        1 RYJ      0.202000
     24 H1'A        8.5230    0.6940    0.2060 hx        1 RYJ      0.202000
     25 HN3S       -1.1390    1.8010   -0.9680 hn        1 RYJ      0.281667
     26 HN3A       -0.9950    0.4010   -1.8260 hn        1 RYJ      0.281667
     27 H'2         6.3360   -0.3730    1.9660 hn        1 RYJ      0.274500
     28 H3S3        0.3390    1.3680   -1.5830 hn        1 RYJ      0.281667
     29 C7          5.8160    0.1310   -0.0040 c2        1 RYJ      0.277000
@<TRIPOS>BOND
     1    1    7 1   
     2    1   14 1   
     3    1   16 1   
     4    1   17 1   
     5    2   13 1   
     6    2   18 1   
     7    2   27 1   
     8    2   29 1   
     9    3   29 1   
    10    4    6 1   
    11    4    8 1   
    12    4   29 1   
    13    5    6 1   
    14    5    7 1   
    15    5   20 1   
    16    6   19 1   
    17    7    9 1   
    18    8    9 1   
    19    8   21 1   
    20    8   22 1   
    21   10   15 1   
    22   11   15 1   
    23   12   15 1   
    24   13   15 1   
    25   13   23 1   
    26   13   24 1   
    27   17   25 1   
    28   17   26 1   
    29   17   28 1   
@<TRIPOS>SUBSTRUCTURE
     1 RYJ         1 TEMP              0 ****  ****    0 ROOT
