@<TRIPOS>MOLECULE
RYJ
   29    28     1     0     0
SMALL
bcc


@<TRIPOS>ATOM
      1 S          -0.7820   -0.3220    0.2200 s6        1 RYJ      2.822000
      2 N'          8.6040    0.0500    1.7800 n3        1 RYJ     -0.100000
      3 O'          5.9460    0.3510    0.5180 o         1 RYJ     -0.333000
      4 C1          3.6270    0.4480   -0.0750 c2        1 RYJ     -0.073000
      5 C2          1.7880   -0.7870    0.9300 c2        1 RYJ      0.209000
      6 C3          3.1870   -0.5060    0.7920 c2        1 RYJ     -0.145000
      7 C4          0.8550   -0.0980    0.1800 c2        1 RYJ     -0.969000
      8 C5          2.6700    1.2270   -0.8970 c3        1 RYJ     -0.193000
      9 C6          1.2730    0.9060   -0.7200 c1        1 RYJ     -0.117000
     10 F2'1       11.5500    0.7840    3.3670 f         1 RYJ     -0.096333
     11 F2'2       11.4220   -1.4040    3.1380 f         1 RYJ     -0.096333
     12 F2'3        9.8870   -0.3240    4.2810 f         1 RYJ     -0.096333
     13 C1'         9.8880   -0.0680    1.8330 c2        1 RYJ      0.067000
     14 O1S        -1.1650   -1.4970   -0.3880 o         1 RYJ     -0.837500
     15 C2'        10.6920   -0.2560    3.1810 c3        1 RYJ      0.453000
     16 O2S        -1.3370    0.0990    1.4070 o         1 RYJ     -0.837500
     17 N3S        -1.3810    0.9480   -0.9690 n4        1 RYJ     -0.537000
     18 HN'         5.3170    1.3510   -1.1610 h4        1 RYJ      0.142000
     19 H2          3.8980   -1.0880    1.4080 ha        1 RYJ      0.185000
     20 H3          1.4930   -1.5720    1.6580 ha        1 RYJ      0.184000
     21 H5          2.7960    2.3410   -0.7010 hc        1 RYJ      0.211500
     22 H6          2.9110    1.1060   -2.0040 hc        1 RYJ      0.211500
     23 H1'         8.0970    0.1710    0.9080 hn        1 RYJ      0.307500
     24 H1'A       10.5300   -0.0420    0.9170 h4        1 RYJ      0.250000
     25 HN3S       -0.5650    1.4600   -1.3680 hn        1 RYJ      0.278000
     26 HN3A       -1.8990    0.5280   -1.7420 hn        1 RYJ      0.278000
     27 H'2         8.0260    0.0250    2.6120 hn        1 RYJ      0.307500
     28 H3S3       -1.9940    1.6290   -0.5190 hn        1 RYJ      0.278000
     29 C7          5.0700    0.7430   -0.2600 c2        1 RYJ      0.248000
@<TRIPOS>BOND
     1    1    7 1   
     2    1   14 1   
     3    1   16 1   
     4    1   17 1   
     5    2   13 1   
     6    2   23 1   
     7    2   27 1   
     8    3   29 1   
     9    4    6 1   
    10    4    8 1   
    11    4   29 1   
    12    5    6 1   
    13    5    7 1   
    14    5   20 1   
    15    6   19 1   
    16    7    9 1   
    17    8    9 1   
    18    8   21 1   
    19    8   22 1   
    20   10   15 1   
    21   11   15 1   
    22   12   15 1   
    23   13   15 1   
    24   13   24 1   
    25   17   25 1   
    26   17   26 1   
    27   17   28 1   
    28   18   29 1   
@<TRIPOS>SUBSTRUCTURE
     1 RYJ         1 TEMP              0 ****  ****    0 ROOT
