@<TRIPOS>MOLECULE
RYN
   32    32     1     0     0
SMALL
bcc


@<TRIPOS>ATOM
      1 N1         -0.0490    0.0020   -0.1350 nb        1 RYN     -0.835000
      2 C2          1.3130    0.0590   -0.0850 ca        1 RYN      0.796300
      3 N3          2.0840    0.1010    1.0400 nb        1 RYN     -0.798000
      4 C4          1.3710    0.1070    2.2360 ca        1 RYN      0.923900
      5 N5         -0.0130    0.0230    2.3230 nb        1 RYN     -0.852000
      6 C6         -0.6780   -0.0350    1.1080 ca        1 RYN      0.930900
      7 N7          2.0580    0.2820    3.4420 nu        1 RYN     -0.825900
      8 C8          3.4850    0.0240    3.5430 c3        1 RYN      0.212500
      9 C9          4.0400    0.5870    4.8550 c3        1 RYN     -0.114100
     10 C10         3.8600   -1.4570    3.4490 c3        1 RYN     -0.114100
     11 N11        -2.0620   -0.2010    1.1590 nu        1 RYN     -0.844900
     12 C12        -2.8770    0.0100   -0.0120 c3        1 RYN      0.213800
     13 C13        -4.3670   -0.0630    0.2850 c3        1 RYN     -0.112100
     14 S21         2.1990    0.0830   -1.5670 ss        1 RYN     -0.194400
     15 C22         0.9970   -0.0100   -2.8340 c3        1 RYN     -0.068000
     16 HN7         1.5350    0.0740    4.2670 hn        1 RYN      0.427800
     17 H9          3.6050    0.0590    5.7370 hc        1 RYN      0.044033
     18 H9A         3.8220    1.6780    4.9470 hc        1 RYN      0.044033
     19 H10         4.9710   -1.5550    3.5030 hc        1 RYN      0.044033
     20 H10A        3.4110   -2.0390    4.2890 hc        1 RYN      0.044033
     21 H10B        3.5130   -1.8940    2.4820 hc        1 RYN      0.044033
     22 HN11       -2.4970   -0.0470    2.0430 hn        1 RYN      0.438800
     23 H12        -2.6470    1.0130   -0.4780 h1        1 RYN      0.051700
     24 H12A       -2.6110   -0.7820   -0.7710 h1        1 RYN      0.051700
     25 H13        -4.9250    0.0870   -0.6700 hc        1 RYN      0.045367
     26 H13A       -4.6480   -1.0580    0.7090 hc        1 RYN      0.045367
     27 H13B       -4.6780    0.7310    1.0060 hc        1 RYN      0.045367
     28 H22         1.5870   -0.0050   -3.7820 h1        1 RYN      0.075033
     29 H22A        0.3910   -0.9420   -2.7850 h1        1 RYN      0.075033
     30 H22B        0.3010    0.8580   -2.8320 h1        1 RYN      0.075033
     31 H16         3.9930    0.5700    2.6910 h1        1 RYN      0.087700
     32 H17         5.1460    0.4420    4.8640 hc        1 RYN      0.044033
@<TRIPOS>BOND
     1    1    2 ar  
     2    1    6 ar  
     3    2    3 ar  
     4    2   14 1   
     5    3    4 ar  
     6    4    5 ar  
     7    4    7 1   
     8    5    6 ar  
     9    6   11 1   
    10    7    8 1   
    11    7   16 1   
    12    8    9 1   
    13    8   10 1   
    14    8   31 1   
    15    9   17 1   
    16    9   18 1   
    17    9   32 1   
    18   10   19 1   
    19   10   20 1   
    20   10   21 1   
    21   11   12 1   
    22   11   22 1   
    23   12   13 1   
    24   12   23 1   
    25   12   24 1   
    26   13   25 1   
    27   13   26 1   
    28   13   27 1   
    29   14   15 1   
    30   15   28 1   
    31   15   29 1   
    32   15   30 1   
@<TRIPOS>SUBSTRUCTURE
     1 RYN         1 TEMP              0 ****  ****    0 ROOT
