@<TRIPOS>MOLECULE
RYN
   32    32     1     0     0
SMALL
bcc


@<TRIPOS>ATOM
      1 N1         -0.0510    0.0020   -0.1340 nb        1 RYN     -0.835000
      2 C2          1.3110    0.0610   -0.0850 ca        1 RYN      0.796300
      3 N3          2.0830    0.1030    1.0380 nb        1 RYN     -0.798000
      4 C4          1.3710    0.1070    2.2360 ca        1 RYN      0.923900
      5 N5         -0.0120    0.0220    2.3240 nb        1 RYN     -0.852000
      6 C6         -0.6780   -0.0360    1.1090 ca        1 RYN      0.930900
      7 N7          2.0600    0.2830    3.4410 nh        1 RYN     -0.825900
      8 C8          3.4870    0.0260    3.5400 c3        1 RYN      0.212500
      9 C9          4.0430    0.5900    4.8520 c3        1 RYN     -0.114100
     10 C10         3.8640   -1.4540    3.4450 c3        1 RYN     -0.114100
     11 N11        -2.0620   -0.2040    1.1620 nh        1 RYN     -0.844900
     12 C12        -2.8790    0.0060   -0.0080 c3        1 RYN      0.213800
     13 C13        -4.3680   -0.0690    0.2910 c3        1 RYN     -0.112100
     14 S21         2.1950    0.0860   -1.5690 ss        1 RYN     -0.194400
     15 C22         0.9930   -0.0080   -2.8340 c3        1 RYN     -0.068000
     16 HN7         1.5380    0.0740    4.2660 hn        1 RYN      0.427800
     17 H9          3.6090    0.0610    5.7340 hc        1 RYN      0.044033
     18 H9A         5.1490    0.4450    4.8590 hc        1 RYN      0.044033
     19 H10         3.5160   -1.8910    2.4790 hc        1 RYN      0.044033
     20 H10A        3.4160   -2.0360    4.2860 hc        1 RYN      0.044033
     21 H10B        4.9740   -1.5510    3.4970 hc        1 RYN      0.044033
     22 HN11       -2.4960   -0.0510    2.0460 hn        1 RYN      0.438800
     23 H12        -2.6130   -0.7850   -0.7670 h1        1 RYN      0.051700
     24 H12A       -2.6510    1.0100   -0.4740 h1        1 RYN      0.051700
     25 H13        -4.6790    0.7240    1.0120 hc        1 RYN      0.045367
     26 H13A       -4.6470   -1.0640    0.7150 hc        1 RYN      0.045367
     27 H13B       -4.9280    0.0800   -0.6640 hc        1 RYN      0.045367
     28 H22         0.2960    0.8590   -2.8310 h1        1 RYN      0.075033
     29 H22A        1.5810   -0.0030   -3.7830 h1        1 RYN      0.075033
     30 H22B        0.3870   -0.9410   -2.7850 h1        1 RYN      0.075033
     31 H16         3.9930    0.5730    2.6880 h1        1 RYN      0.087700
     32 H17         3.8250    1.6800    4.9430 hc        1 RYN      0.044033
@<TRIPOS>BOND
     1    1    2 ar  
     2    1    6 ar  
     3    2    3 ar  
     4    2   14 1   
     5    3    4 ar  
     6    4    5 ar  
     7    4    7 1   
     8    5    6 ar  
     9    6   11 1   
    10    7    8 1   
    11    7   16 1   
    12    8    9 1   
    13    8   10 1   
    14    8   31 1   
    15    9   17 1   
    16    9   18 1   
    17    9   32 1   
    18   10   19 1   
    19   10   20 1   
    20   10   21 1   
    21   11   12 1   
    22   11   22 1   
    23   12   13 1   
    24   12   23 1   
    25   12   24 1   
    26   13   25 1   
    27   13   26 1   
    28   13   27 1   
    29   14   15 1   
    30   15   28 1   
    31   15   29 1   
    32   15   30 1   
@<TRIPOS>SUBSTRUCTURE
     1 RYN         1 TEMP              0 ****  ****    0 ROOT
