@<TRIPOS>MOLECULE
RYN
   32    32     1     0     0
SMALL
bcc


@<TRIPOS>ATOM
      1 N1         -1.4430    0.4100    0.0240 nb        1 RYN     -0.835000
      2 C2         -0.3240    1.1830    0.1250 ca        1 RYN      0.796300
      3 N3          0.9650    0.7430    0.1940 nb        1 RYN     -0.798000
      4 C4          1.1100   -0.6430    0.1800 ca        1 RYN      0.923900
      5 N5          0.0560   -1.5390    0.0530 nb        1 RYN     -0.852000
      6 C6         -1.2020   -0.9610   -0.0300 ca        1 RYN      0.930900
      7 N7          2.3770   -1.2010    0.3810 nh        1 RYN     -0.825900
      8 C8          3.5870   -0.4250    0.1680 c3        1 RYN      0.212500
      9 C9          4.8010   -1.1540    0.7530 c3        1 RYN     -0.114100
     10 C10         3.8710   -0.1010   -1.3000 c3        1 RYN     -0.114100
     11 N11        -2.2750   -1.8270   -0.2400 nh        1 RYN     -0.844900
     12 C12        -3.6350   -1.3800   -0.0590 c3        1 RYN      0.213800
     13 C13        -4.6480   -2.5070   -0.1790 c3        1 RYN     -0.112100
     14 S21        -0.5010    2.9000    0.1730 ss        1 RYN     -0.194400
     15 C22        -2.2190    3.1990    0.0380 c3        1 RYN     -0.068000
     16 HN7         2.4570   -2.1710    0.1590 hn        1 RYN      0.427800
     17 H9          4.9940   -2.1120    0.2130 hc        1 RYN      0.044033
     18 H9A         5.6960   -0.4970    0.6420 hc        1 RYN      0.044033
     19 H10         3.0270    0.4740   -1.7500 hc        1 RYN      0.044033
     20 H10A        4.7950    0.5220   -1.3630 hc        1 RYN      0.044033
     21 H10B        4.0300   -1.0330   -1.8930 hc        1 RYN      0.044033
     22 HN11       -2.0990   -2.7980   -0.0970 hn        1 RYN      0.438800
     23 H12        -3.7570   -0.8860    0.9500 h1        1 RYN      0.051700
     24 H12A       -3.8540   -0.5990   -0.8440 h1        1 RYN      0.051700
     25 H13        -4.4870   -3.2840    0.6070 hc        1 RYN      0.045367
     26 H13A       -5.6700   -2.0780   -0.0500 hc        1 RYN      0.045367
     27 H13B       -4.5920   -2.9980   -1.1810 hc        1 RYN      0.045367
     28 H22        -2.6500    2.8130   -0.9120 h1        1 RYN      0.075033
     29 H22A       -2.7990    2.7660    0.8840 h1        1 RYN      0.075033
     30 H22B       -2.3140    4.3110    0.0590 h1        1 RYN      0.075033
     31 H16         3.4690    0.5520    0.7280 h1        1 RYN      0.087700
     32 H17         4.6520   -1.3760    1.8360 hc        1 RYN      0.044033
@<TRIPOS>BOND
     1    1    2 ar  
     2    1    6 ar  
     3    2    3 ar  
     4    2   14 1   
     5    3    4 ar  
     6    4    5 ar  
     7    4    7 1   
     8    5    6 ar  
     9    6   11 1   
    10    7    8 1   
    11    7   16 1   
    12    8    9 1   
    13    8   10 1   
    14    8   31 1   
    15    9   17 1   
    16    9   18 1   
    17    9   32 1   
    18   10   19 1   
    19   10   20 1   
    20   10   21 1   
    21   11   12 1   
    22   11   22 1   
    23   12   13 1   
    24   12   23 1   
    25   12   24 1   
    26   13   25 1   
    27   13   26 1   
    28   13   27 1   
    29   14   15 1   
    30   15   28 1   
    31   15   29 1   
    32   15   30 1   
@<TRIPOS>SUBSTRUCTURE
     1 RYN         1 TEMP              0 ****  ****    0 ROOT
