@<TRIPOS>MOLECULE
RYN
   34    34     1     0     0
SMALL
bcc


@<TRIPOS>ATOM
      1 N1          0.1640   -0.2280   -0.4080 nb        1 RYN     -0.732000
      2 C2          1.4650    0.2680   -0.4190 ca        1 RYN      0.705300
      3 N3          2.1470    0.6320    0.7470 nb        1 RYN     -0.684000
      4 C4          1.4590    0.4700    1.9020 ca        1 RYN      0.818900
      5 N5          0.1650   -0.0150    2.0320 nb        1 RYN     -0.767000
      6 C6         -0.4070   -0.3410    0.8210 ca        1 RYN      0.822900
      7 N7          2.1470    0.8610    3.1670 n4        1 RYN     -0.763700
      8 C8          3.2970   -0.0800    3.5300 c3        1 RYN      0.148500
      9 C9          4.1350    0.5600    4.6280 c3        1 RYN     -0.141600
     10 C10         2.7770   -1.4360    3.9720 c3        1 RYN     -0.141600
     11 N11        -1.8060   -0.8670    0.8740 n4        1 RYN     -0.757700
     12 C12        -2.8090    0.2480    0.7090 c3        1 RYN      0.121800
     13 C13        -4.2280   -0.2720    0.7620 c3        1 RYN     -0.147100
     14 S21         2.3050    0.4650   -1.8350 ss        1 RYN      0.205600
     15 C22         1.2750   -0.0470   -3.1230 c3        1 RYN     -0.172000
     16 HN7         1.4670    0.8670    3.9420 hn        1 RYN      0.483800
     17 H9          5.0040   -0.1190    4.8340 hc        1 RYN      0.088367
     18 H9A         4.5470    1.5520    4.3170 hc        1 RYN      0.088367
     19 H10         2.1860   -1.3650    4.9180 hc        1 RYN      0.088367
     20 H10A        2.1530   -1.9180    3.1820 hc        1 RYN      0.088367
     21 H10B        3.6620   -2.0980    4.1680 hc        1 RYN      0.088367
     22 HN11       -1.9640   -1.3380    1.7780 hn        1 RYN      0.485800
     23 H12        -2.6060    0.7440   -0.2840 hx        1 RYN      0.116200
     24 H12A       -2.6280    0.9910    1.5400 hx        1 RYN      0.116200
     25 H13        -4.4650   -0.7500    1.7440 hc        1 RYN      0.095367
     26 H13A       -4.9150    0.6070    0.6330 hc        1 RYN      0.095367
     27 H13B       -4.4420   -0.9960   -0.0620 hc        1 RYN      0.095367
     28 H22         1.8970    0.1060   -4.0490 h1        1 RYN      0.124700
     29 H22A        0.3440    0.5570   -3.2340 h1        1 RYN      0.124700
     30 H22B        0.9860   -1.1240   -3.0800 h1        1 RYN      0.124700
     31 H16         3.9260   -0.1890    2.5940 hx        1 RYN      0.125700
     32 H17         3.5590    0.6780    5.5790 hc        1 RYN      0.088367
     33 H72         2.5290    1.8130    3.0500 hn        1 RYN      0.483800
     34 H112       -1.9380   -1.5580    0.1170 hn        1 RYN      0.485800
@<TRIPOS>BOND
     1    1    2 ar  
     2    1    6 ar  
     3    2    3 ar  
     4    2   14 1   
     5    3    4 ar  
     6    4    5 ar  
     7    4    7 1   
     8    5    6 ar  
     9    6   11 1   
    10    7    8 1   
    11    7   16 1   
    12    7   33 1   
    13    8    9 1   
    14    8   10 1   
    15    8   31 1   
    16    9   17 1   
    17    9   18 1   
    18    9   32 1   
    19   10   19 1   
    20   10   20 1   
    21   10   21 1   
    22   11   12 1   
    23   11   22 1   
    24   11   34 1   
    25   12   13 1   
    26   12   23 1   
    27   12   24 1   
    28   13   25 1   
    29   13   26 1   
    30   13   27 1   
    31   14   15 1   
    32   15   28 1   
    33   15   29 1   
    34   15   30 1   
@<TRIPOS>SUBSTRUCTURE
     1 RYN         1 TEMP              0 ****  ****    0 ROOT
