@<TRIPOS>MOLECULE
RYU
   54    58     1     0     0
SMALL
bcc


@<TRIPOS>ATOM
      1 C1          3.1320    0.7380   -4.0190 ca        1 RYU     -0.069000
      2 C2          3.6530    0.4300   -5.2840 ca        1 RYU     -0.161000
      3 C3          2.8860   -0.2530   -6.2240 ca        1 RYU     -0.087000
      4 C4          1.5750   -0.6590   -5.9460 ca        1 RYU     -0.161000
      5 C5          1.0570   -0.3550   -4.6880 ca        1 RYU      0.158600
      6 C6          1.8420    0.3510   -3.7220 ca        1 RYU     -0.187300
      7 C7          1.0030    0.5440   -2.4700 c3        1 RYU      0.241300
      8 C71         0.7370    2.0170   -2.2090 c3        1 RYU     -0.120100
      9 O71         1.5650   -0.0960   -1.3370 oh        1 RYU     -0.576800
     10 C8         -0.3110   -0.2060   -2.8400 c2        1 RYU      0.246800
     11 N9         -0.2110   -0.6440   -4.1580 nh        1 RYU     -0.629400
     12 C10        -1.4120   -0.3880   -2.0630 cc        1 RYU     -0.226400
     13 C11        -2.6770   -1.0030   -2.5830 c         1 RYU      0.718700
     14 O11        -2.9160   -1.4740   -3.7050 o         1 RYU     -0.637500
     15 N12        -3.6380   -0.9590   -1.5420 n         1 RYU     -0.470100
     16 C13        -3.0610   -0.4050   -0.3980 ca        1 RYU      0.113600
     17 C14        -1.6810   -0.0530   -0.6670 ca        1 RYU     -0.085800
     18 C15        -0.9050    0.4520    0.3540 ca        1 RYU      0.016000
     19 C16        -1.4640    0.6680    1.6280 ca        1 RYU     -0.422500
     20 C17        -2.8100    0.3590    1.8530 ca        1 RYU      0.020000
     21 C18        -3.6230   -0.1840    0.8600 ca        1 RYU     -0.202000
     22 S19        -0.5150    1.3250    2.8490 sy        1 RYU      1.517200
     23 O19         0.5040    2.1020    2.2480 o         1 RYU     -0.658800
     24 O1         -1.3580    1.9930    3.7680 o         1 RYU     -0.658800
     25 N20         0.1430    0.0170    3.5670 n3        1 RYU     -0.815500
     26 C21         1.3170   -0.6370    3.0470 c3        1 RYU      0.227800
     27 C22         2.4210   -0.8470    4.0840 c3        1 RYU     -0.108900
     28 C23         1.8580   -1.5380    5.3220 c3        1 RYU      0.144100
     29 O23         2.9150   -1.5900    6.2720 oh        1 RYU     -0.597800
     30 C24         0.6590   -0.7710    5.8690 c3        1 RYU     -0.108900
     31 C25        -0.3880   -0.5590    4.7750 c3        1 RYU      0.227800
     32 H1          3.7420    1.2810   -3.2820 ha        1 RYU      0.137000
     33 H2          4.6810    0.7340   -5.5320 ha        1 RYU      0.139000
     34 H3          3.3140   -0.4840   -7.2120 ha        1 RYU      0.138000
     35 H4          0.9830   -1.1990   -6.6970 ha        1 RYU      0.147000
     36 H711        1.6850    2.5200   -1.9020 hc        1 RYU      0.061367
     37 H712        0.3500    2.5070   -3.1350 hc        1 RYU      0.061367
     38 H713       -0.0160    2.1390   -1.3930 hc        1 RYU      0.061367
     39 H71         2.4580    0.2610   -1.2390 ho        1 RYU      0.417000
     40 H9         -0.9160   -1.1710   -4.6200 hn        1 RYU      0.490800
     41 H12        -4.5610   -1.2990   -1.6060 hn        1 RYU      0.344500
     42 H15         0.1620    0.6910    0.1840 ha        1 RYU      0.170000
     43 H17        -3.2450    0.5630    2.8480 ha        1 RYU      0.151000
     44 H18        -4.6740   -0.4280    1.0670 ha        1 RYU      0.146000
     45 H211        1.0230   -1.6450    2.6310 h1        1 RYU      0.052950
     46 H212        1.7320   -0.0150    2.2010 h1        1 RYU      0.052950
     47 H221        3.2280   -1.4780    3.6340 hc        1 RYU      0.061450
     48 H222        2.8770    0.1310    4.3830 hc        1 RYU      0.061450
     49 H23         1.5460   -2.5910    5.0630 h1        1 RYU      0.032700
     50 HA          2.5390   -1.9440    7.0870 ho        1 RYU      0.400000
     51 H241        0.1870   -1.3430    6.7080 hc        1 RYU      0.061450
     52 H242        1.0060    0.2140    6.2750 hc        1 RYU      0.061450
     53 H251       -1.1990    0.1160    5.1770 h1        1 RYU      0.052950
     54 H252       -0.8510   -1.5600    4.5310 h1        1 RYU      0.052950
@<TRIPOS>BOND
     1    1    2 ar  
     2    1    6 ar  
     3    1   32 1   
     4    2    3 ar  
     5    2   33 1   
     6    3    4 ar  
     7    3   34 1   
     8    4    5 ar  
     9    4   35 1   
    10    5    6 ar  
    11    5   11 1   
    12    6    7 1   
    13    7    8 1   
    14    7    9 1   
    15    7   10 1   
    16    8   36 1   
    17    8   37 1   
    18    8   38 1   
    19    9   39 1   
    20   10   11 1   
    21   10   12 2   
    22   11   40 1   
    23   12   13 1   
    24   12   17 1   
    25   13   14 2   
    26   13   15 1   
    27   15   16 1   
    28   15   41 1   
    29   16   17 ar  
    30   16   21 ar  
    31   17   18 ar  
    32   18   19 ar  
    33   18   42 1   
    34   19   20 ar  
    35   19   22 1   
    36   20   21 ar  
    37   20   43 1   
    38   21   44 1   
    39   22   23 2   
    40   22   24 2   
    41   22   25 1   
    42   25   26 1   
    43   25   31 1   
    44   26   27 1   
    45   26   45 1   
    46   26   46 1   
    47   27   28 1   
    48   27   47 1   
    49   27   48 1   
    50   28   29 1   
    51   28   30 1   
    52   28   49 1   
    53   29   50 1   
    54   30   31 1   
    55   30   51 1   
    56   30   52 1   
    57   31   53 1   
    58   31   54 1   
@<TRIPOS>SUBSTRUCTURE
     1 RYU         1 TEMP              0 ****  ****    0 ROOT
