@<TRIPOS>MOLECULE
RYU
   54    58     1     0     0
SMALL
bcc


@<TRIPOS>ATOM
      1 C1          0.0070    0.1890   -0.0730 ca        1 RYU     -0.055000
      2 C2          1.4080    0.2060    0.0070 ca        1 RYU     -0.165000
      3 C3          2.0530    0.1600    1.2400 ca        1 RYU     -0.086000
      4 C4          1.3350    0.0990    2.4410 ca        1 RYU     -0.163000
      5 C5         -0.0560    0.0870    2.3630 ca        1 RYU      0.149600
      6 C6         -0.7210    0.1280    1.0970 ca        1 RYU     -0.197300
      7 C7         -2.2210    0.0690    1.3320 c3        1 RYU      0.249300
      8 C71        -2.8340   -1.1970    0.7530 c3        1 RYU     -0.089100
      9 O71        -2.9050    1.1730    0.7770 oh        1 RYU     -0.576800
     10 C8         -2.2960    0.0680    2.8930 c2        1 RYU      0.190800
     11 N9         -1.0010    0.0570    3.4020 nu        1 RYU     -0.629400
     12 C10        -3.4130    0.0720    3.6670 cc        1 RYU     -0.226400
     13 C11        -3.3640   -0.0380    5.1620 c         1 RYU      0.717700
     14 O11        -2.3760   -0.1130    5.9090 o         1 RYU     -0.637500
     15 N12        -4.6970   -0.0540    5.6390 ns        1 RYU     -0.470100
     16 C13        -5.5790    0.0590    4.5610 ca        1 RYU      0.113600
     17 C14        -4.8310    0.1520    3.3240 ca        1 RYU     -0.092800
     18 C15        -5.5140    0.3130    2.1370 ca        1 RYU      0.015000
     19 C16        -6.9220    0.3520    2.1300 ca        1 RYU     -0.418500
     20 C17        -7.6220    0.2390    3.3340 ca        1 RYU      0.019000
     21 C18        -6.9730    0.0970    4.5610 ca        1 RYU     -0.201000
     22 S19        -7.7450    0.4870    0.6680 sy        1 RYU      1.516200
     23 O19        -7.0730   -0.2940   -0.2980 o         1 RYU     -0.656800
     24 O1         -9.1070    0.1730    0.8950 o         1 RYU     -0.656800
     25 N20        -7.6010    2.0660    0.2930 n3        1 RYU     -0.814500
     26 C21        -6.4720    2.5870   -0.4340 c3        1 RYU      0.226800
     27 C22        -6.8520    3.4460   -1.6400 c3        1 RYU     -0.108400
     28 C23        -7.8400    4.5310   -1.2270 c3        1 RYU      0.144100
     29 O23        -8.2230    5.2060   -2.4180 oh        1 RYU     -0.597800
     30 C24        -9.0470    3.9190   -0.5240 c3        1 RYU     -0.108400
     31 C25        -8.6000    3.0420    0.6460 c3        1 RYU      0.226800
     32 H1         -0.4990    0.2220   -1.0490 ha        1 RYU      0.147000
     33 H2          2.0000    0.2560   -0.9190 ha        1 RYU      0.140000
     34 H3          3.1540    0.1700    1.2800 ha        1 RYU      0.138000
     35 H4          1.8570    0.0640    3.4060 ha        1 RYU      0.147000
     36 H711       -2.1460   -2.0590    0.9240 hc        1 RYU      0.064367
     37 H712       -2.9940   -1.0620   -0.3440 hc        1 RYU      0.064367
     38 H713       -3.8170   -1.4130    1.2370 hc        1 RYU      0.064367
     39 H71        -2.4530    1.9730    1.0730 ho        1 RYU      0.417000
     40 H9         -0.7840   -0.0220    4.3680 hn        1 RYU      0.489800
     41 H12        -4.9630   -0.1330    6.5850 hn        1 RYU      0.345500
     42 H15        -4.9660    0.4110    1.1810 ha        1 RYU      0.169000
     43 H17        -8.7280    0.2520    3.3130 ha        1 RYU      0.158000
     44 H18        -7.5490    0.0150    5.4920 ha        1 RYU      0.146000
     45 H211       -5.8400    1.7220   -0.7930 h1        1 RYU      0.053450
     46 H212       -5.8430    3.2140    0.2650 h1        1 RYU      0.053450
     47 H221       -7.3090    2.8160   -2.4470 hc        1 RYU      0.061700
     48 H222       -5.9260    3.9170   -2.0580 hc        1 RYU      0.061700
     49 H23        -7.3350    5.2650   -0.5360 h1        1 RYU      0.030700
     50 HA         -8.9210    5.8250   -2.1760 ho        1 RYU      0.400000
     51 H241       -9.6370    3.3160   -1.2620 hc        1 RYU      0.061700
     52 H242       -9.7130    4.7270   -0.1290 hc        1 RYU      0.061700
     53 H251       -9.5040    2.5060    1.0600 h1        1 RYU      0.053450
     54 H252       -8.1880    3.7150    1.4540 h1        1 RYU      0.053450
@<TRIPOS>BOND
     1    1    2 ar  
     2    1    6 ar  
     3    1   32 1   
     4    2    3 ar  
     5    2   33 1   
     6    3    4 ar  
     7    3   34 1   
     8    4    5 ar  
     9    4   35 1   
    10    5    6 ar  
    11    5   11 1   
    12    6    7 1   
    13    7    8 1   
    14    7    9 1   
    15    7   10 1   
    16    8   36 1   
    17    8   37 1   
    18    8   38 1   
    19    9   39 1   
    20   10   11 1   
    21   10   12 2   
    22   11   40 1   
    23   12   13 1   
    24   12   17 1   
    25   13   14 2   
    26   13   15 1   
    27   15   16 1   
    28   15   41 1   
    29   16   17 ar  
    30   16   21 ar  
    31   17   18 ar  
    32   18   19 ar  
    33   18   42 1   
    34   19   20 ar  
    35   19   22 1   
    36   20   21 ar  
    37   20   43 1   
    38   21   44 1   
    39   22   23 2   
    40   22   24 2   
    41   22   25 1   
    42   25   26 1   
    43   25   31 1   
    44   26   27 1   
    45   26   45 1   
    46   26   46 1   
    47   27   28 1   
    48   27   47 1   
    49   27   48 1   
    50   28   29 1   
    51   28   30 1   
    52   28   49 1   
    53   29   50 1   
    54   30   31 1   
    55   30   51 1   
    56   30   52 1   
    57   31   53 1   
    58   31   54 1   
@<TRIPOS>SUBSTRUCTURE
     1 RYU         1 TEMP              0 ****  ****    0 ROOT
