@<TRIPOS>MOLECULE
RYU
   54    58     1     0     0
SMALL
bcc


@<TRIPOS>ATOM
      1 C1          0.0060    0.1860   -0.0770 ca        1 RYU     -0.055000
      2 C2          1.4070    0.2030    0.0020 ca        1 RYU     -0.165000
      3 C3          2.0530    0.1550    1.2340 ca        1 RYU     -0.086000
      4 C4          1.3360    0.0950    2.4360 ca        1 RYU     -0.163000
      5 C5         -0.0560    0.0840    2.3590 ca        1 RYU      0.149600
      6 C6         -0.7210    0.1250    1.0930 ca        1 RYU     -0.197300
      7 C7         -2.2210    0.0670    1.3290 c3        1 RYU      0.249300
      8 C71        -2.8350   -1.1980    0.7510 c3        1 RYU     -0.089100
      9 O71        -2.9050    1.1710    0.7750 oh        1 RYU     -0.576800
     10 C8         -2.2950    0.0660    2.8900 c2        1 RYU      0.190800
     11 N9         -1.0000    0.0530    3.3980 nh        1 RYU     -0.629400
     12 C10        -3.4120    0.0710    3.6660 cc        1 RYU     -0.226400
     13 C11        -3.3610   -0.0400    5.1600 c         1 RYU      0.717700
     14 O11        -2.3730   -0.1170    5.9070 o         1 RYU     -0.637500
     15 N12        -4.6940   -0.0560    5.6380 n         1 RYU     -0.470100
     16 C13        -5.5770    0.0580    4.5620 ca        1 RYU      0.113600
     17 C14        -4.8300    0.1520    3.3230 ca        1 RYU     -0.092800
     18 C15        -5.5140    0.3140    2.1380 ca        1 RYU      0.015000
     19 C16        -6.9210    0.3540    2.1310 ca        1 RYU     -0.418500
     20 C17        -7.6200    0.2400    3.3360 ca        1 RYU      0.019000
     21 C18        -6.9710    0.0970    4.5620 ca        1 RYU     -0.201000
     22 S19        -7.7460    0.4900    0.6700 sy        1 RYU      1.516200
     23 O19        -7.0750   -0.2920   -0.2970 o         1 RYU     -0.656800
     24 O1         -9.1080    0.1780    0.8980 o         1 RYU     -0.656800
     25 N20        -7.6000    2.0690    0.2950 n3        1 RYU     -0.814500
     26 C21        -6.4710    2.5880   -0.4340 c3        1 RYU      0.226800
     27 C22        -6.8530    3.4470   -1.6400 c3        1 RYU     -0.108400
     28 C23        -7.8380    4.5340   -1.2240 c3        1 RYU      0.144100
     29 O23        -8.2220    5.2100   -2.4150 oh        1 RYU     -0.597800
     30 C24        -9.0450    3.9240   -0.5190 c3        1 RYU     -0.108400
     31 C25        -8.5970    3.0460    0.6500 c3        1 RYU      0.226800
     32 H1         -0.5010    0.2200   -1.0530 ha        1 RYU      0.147000
     33 H2          1.9980    0.2520   -0.9240 ha        1 RYU      0.140000
     34 H3          3.1530    0.1650    1.2740 ha        1 RYU      0.138000
     35 H4          1.8590    0.0580    3.4010 ha        1 RYU      0.147000
     36 H711       -2.9950   -1.0630   -0.3460 hc        1 RYU      0.064367
     37 H712       -3.8180   -1.4130    1.2340 hc        1 RYU      0.064367
     38 H713       -2.1490   -2.0610    0.9220 hc        1 RYU      0.064367
     39 H71        -2.4520    1.9710    1.0710 ho        1 RYU      0.417000
     40 H9         -0.7820   -0.0260    4.3650 hn        1 RYU      0.489800
     41 H12        -4.9590   -0.1350    6.5850 hn        1 RYU      0.345500
     42 H15        -4.9660    0.4120    1.1810 ha        1 RYU      0.169000
     43 H17        -8.7260    0.2540    3.3160 ha        1 RYU      0.158000
     44 H18        -7.5460    0.0150    5.4940 ha        1 RYU      0.146000
     45 H211       -5.8410    1.7220   -0.7940 h1        1 RYU      0.053450
     46 H212       -5.8400    3.2140    0.2630 h1        1 RYU      0.053450
     47 H221       -7.3130    2.8190   -2.4450 hc        1 RYU      0.061700
     48 H222       -5.9270    3.9170   -2.0590 hc        1 RYU      0.061700
     49 H23        -7.3300    5.2670   -0.5340 h1        1 RYU      0.030700
     50 HA         -8.9190    5.8300   -2.1710 ho        1 RYU      0.400000
     51 H241       -9.6380    3.3220   -1.2560 hc        1 RYU      0.061700
     52 H242       -9.7090    4.7330   -0.1220 hc        1 RYU      0.061700
     53 H251       -9.5010    2.5120    1.0660 h1        1 RYU      0.053450
     54 H252       -8.1820    3.7180    1.4580 h1        1 RYU      0.053450
@<TRIPOS>BOND
     1    1    2 ar  
     2    1    6 ar  
     3    1   32 1   
     4    2    3 ar  
     5    2   33 1   
     6    3    4 ar  
     7    3   34 1   
     8    4    5 ar  
     9    4   35 1   
    10    5    6 ar  
    11    5   11 1   
    12    6    7 1   
    13    7    8 1   
    14    7    9 1   
    15    7   10 1   
    16    8   36 1   
    17    8   37 1   
    18    8   38 1   
    19    9   39 1   
    20   10   11 1   
    21   10   12 2   
    22   11   40 1   
    23   12   13 1   
    24   12   17 1   
    25   13   14 2   
    26   13   15 1   
    27   15   16 1   
    28   15   41 1   
    29   16   17 ar  
    30   16   21 ar  
    31   17   18 ar  
    32   18   19 ar  
    33   18   42 1   
    34   19   20 ar  
    35   19   22 1   
    36   20   21 ar  
    37   20   43 1   
    38   21   44 1   
    39   22   23 2   
    40   22   24 2   
    41   22   25 1   
    42   25   26 1   
    43   25   31 1   
    44   26   27 1   
    45   26   45 1   
    46   26   46 1   
    47   27   28 1   
    48   27   47 1   
    49   27   48 1   
    50   28   29 1   
    51   28   30 1   
    52   28   49 1   
    53   29   50 1   
    54   30   31 1   
    55   30   51 1   
    56   30   52 1   
    57   31   53 1   
    58   31   54 1   
@<TRIPOS>SUBSTRUCTURE
     1 RYU         1 TEMP              0 ****  ****    0 ROOT
