@<TRIPOS>MOLECULE
RYU
   54    58     1     0     0
SMALL
bcc


@<TRIPOS>ATOM
      1 C1          0.0040    0.1880   -0.0780 ca        1 RYU     -0.055000
      2 C2          1.4050    0.2050    0.0010 ca        1 RYU     -0.165000
      3 C3          2.0510    0.1580    1.2330 ca        1 RYU     -0.086000
      4 C4          1.3350    0.0970    2.4350 ca        1 RYU     -0.163000
      5 C5         -0.0570    0.0860    2.3580 ca        1 RYU      0.149600
      6 C6         -0.7230    0.1270    1.0930 ca        1 RYU     -0.197300
      7 C7         -2.2220    0.0680    1.3290 c3        1 RYU      0.249300
      8 C71        -2.8360   -1.1970    0.7510 c3        1 RYU     -0.089100
      9 O71        -2.9070    1.1720    0.7750 oh        1 RYU     -0.576800
     10 C8         -2.2960    0.0670    2.8900 c2        1 RYU      0.190800
     11 N9         -1.0000    0.0550    3.3980 nh        1 RYU     -0.629400
     12 C10        -3.4120    0.0720    3.6660 cc        1 RYU     -0.226400
     13 C11        -3.3610   -0.0390    5.1610 c         1 RYU      0.717700
     14 O11        -2.3720   -0.1150    5.9070 o         1 RYU     -0.637500
     15 N12        -4.6940   -0.0550    5.6390 n         1 RYU     -0.470100
     16 C13        -5.5770    0.0590    4.5630 ca        1 RYU      0.113600
     17 C14        -4.8300    0.1520    3.3240 ca        1 RYU     -0.092800
     18 C15        -5.5140    0.3140    2.1390 ca        1 RYU      0.015000
     19 C16        -6.9220    0.3530    2.1330 ca        1 RYU     -0.418500
     20 C17        -7.6210    0.2400    3.3380 ca        1 RYU      0.019000
     21 C18        -6.9710    0.0970    4.5640 ca        1 RYU     -0.201000
     22 S19        -7.7470    0.4880    0.6720 sy        1 RYU      1.516200
     23 O19        -7.0780   -0.2950   -0.2940 o         1 RYU     -0.656800
     24 O1         -9.1090    0.1780    0.9010 o         1 RYU     -0.656800
     25 N20        -7.6010    2.0670    0.2960 n3        1 RYU     -0.814500
     26 C21        -6.4710    2.5850   -0.4350 c3        1 RYU      0.226800
     27 C22        -6.8510    3.4440   -1.6400 c3        1 RYU     -0.108400
     28 C23        -7.8360    4.5320   -1.2250 c3        1 RYU      0.144100
     29 O23        -8.2190    5.2070   -2.4160 oh        1 RYU     -0.597800
     30 C24        -9.0430    3.9230   -0.5200 c3        1 RYU     -0.108400
     31 C25        -8.5960    3.0460    0.6500 c3        1 RYU      0.226800
     32 H1         -0.5030    0.2210   -1.0530 ha        1 RYU      0.147000
     33 H2          1.9960    0.2540   -0.9260 ha        1 RYU      0.140000
     34 H3          3.1520    0.1680    1.2720 ha        1 RYU      0.138000
     35 H4          1.8580    0.0610    3.4000 ha        1 RYU      0.147000
     36 H711       -2.1490   -2.0590    0.9220 hc        1 RYU      0.064367
     37 H712       -2.9980   -1.0620   -0.3460 hc        1 RYU      0.064367
     38 H713       -3.8190   -1.4130    1.2360 hc        1 RYU      0.064367
     39 H71        -2.4540    1.9720    1.0710 ho        1 RYU      0.417000
     40 H9         -0.7830   -0.0240    4.3640 hn        1 RYU      0.489800
     41 H12        -4.9580   -0.1340    6.5850 hn        1 RYU      0.345500
     42 H15        -4.9670    0.4120    1.1820 ha        1 RYU      0.169000
     43 H17        -8.7270    0.2530    3.3180 ha        1 RYU      0.158000
     44 H18        -7.5460    0.0150    5.4960 ha        1 RYU      0.146000
     45 H211       -5.8390    3.2100    0.2630 h1        1 RYU      0.053450
     46 H212       -5.8420    1.7180   -0.7940 h1        1 RYU      0.053450
     47 H221       -7.3120    2.8160   -2.4450 hc        1 RYU      0.061700
     48 H222       -5.9250    3.9130   -2.0600 hc        1 RYU      0.061700
     49 H23        -7.3270    5.2650   -0.5360 h1        1 RYU      0.030700
     50 HA         -8.9150    5.8280   -2.1720 ho        1 RYU      0.400000
     51 H241       -9.6360    3.3220   -1.2560 hc        1 RYU      0.061700
     52 H242       -9.7070    4.7340   -0.1240 hc        1 RYU      0.061700
     53 H251       -8.1800    3.7180    1.4570 h1        1 RYU      0.053450
     54 H252       -9.5000    2.5120    1.0660 h1        1 RYU      0.053450
@<TRIPOS>BOND
     1    1    2 ar  
     2    1    6 ar  
     3    1   32 1   
     4    2    3 ar  
     5    2   33 1   
     6    3    4 ar  
     7    3   34 1   
     8    4    5 ar  
     9    4   35 1   
    10    5    6 ar  
    11    5   11 1   
    12    6    7 1   
    13    7    8 1   
    14    7    9 1   
    15    7   10 1   
    16    8   36 1   
    17    8   37 1   
    18    8   38 1   
    19    9   39 1   
    20   10   11 1   
    21   10   12 2   
    22   11   40 1   
    23   12   13 1   
    24   12   17 1   
    25   13   14 2   
    26   13   15 1   
    27   15   16 1   
    28   15   41 1   
    29   16   17 ar  
    30   16   21 ar  
    31   17   18 ar  
    32   18   19 ar  
    33   18   42 1   
    34   19   20 ar  
    35   19   22 1   
    36   20   21 ar  
    37   20   43 1   
    38   21   44 1   
    39   22   23 2   
    40   22   24 2   
    41   22   25 1   
    42   25   26 1   
    43   25   31 1   
    44   26   27 1   
    45   26   45 1   
    46   26   46 1   
    47   27   28 1   
    48   27   47 1   
    49   27   48 1   
    50   28   29 1   
    51   28   30 1   
    52   28   49 1   
    53   29   50 1   
    54   30   31 1   
    55   30   51 1   
    56   30   52 1   
    57   31   53 1   
    58   31   54 1   
@<TRIPOS>SUBSTRUCTURE
     1 RYU         1 TEMP              0 ****  ****    0 ROOT
