@<TRIPOS>MOLECULE
RYV
   29    26     1     0     0
SMALL
bcc


@<TRIPOS>ATOM
      1 S        -836.6270  -24.9290   -5.7470 s6        1 RYV      2.799000
      2 N'        789.1790   23.1700    4.8950 n4        1 RYV     -0.158000
      3 O'        787.8760   21.5400    3.9070 o         1 RYV     -0.172000
      4 C1        786.7560   22.9810    5.4820 c2        1 RYV     -0.609000
      5 C2       -836.8630  -23.2010   -7.7380 c2        1 RYV      0.094000
      6 C3        785.4910   22.5400    5.4960 c1        1 RYV      0.523000
      7 C4       -837.4020  -23.8150   -6.6560 c2        1 RYV     -0.821000
      8 C5       -839.8880  -23.3230   -6.0530 c1        1 RYV     -0.031000
      9 C6       -838.7350  -23.5560   -6.2880 c1        1 RYV     -0.256000
     10 C1'       791.9950   22.0090    3.9810 c2        1 RYV     -0.244500
     11 O1S      -837.3360  -26.0510   -5.3930 o         1 RYV     -0.831000
     12 C2'       791.4800   22.1230    2.7600 c2        1 RYV     -0.244500
     13 O2S      -835.2730  -24.9780   -6.0040 o         1 RYV     -0.831000
     14 N3S      -836.6530  -23.9760   -4.1090 n4        1 RYV     -0.512000
     15 HN'       789.0910   24.1560    4.6350 hn        1 RYV      0.268333
     16 H2       -837.4420  -22.4920   -8.3570 ha        1 RYV      0.174000
     17 H3       -835.8190  -23.3830   -8.0560 ha        1 RYV      0.174000
     18 H5        786.9270   23.8470    6.1670 ha        1 RYV      0.229000
     19 H6       -840.9120  -23.1330   -5.8200 ha        1 RYV      0.261000
     20 H1'       789.9100   22.7230    4.2980 hn        1 RYV      0.268333
     21 H1'A      792.6060   22.7980    4.4440 ha        1 RYV      0.130500
     22 H2'       791.9180   21.0840    4.5720 ha        1 RYV      0.130500
     23 H2'A      790.9290   21.3070    2.2680 ha        1 RYV      0.130500
     24 H2'B      791.6200   23.0200    2.1380 ha        1 RYV      0.130500
     25 HN3S     -837.2130  -23.1270   -4.1640 hn        1 RYV      0.259667
     26 HN3A     -835.7090  -23.7120   -3.8260 hn        1 RYV      0.259667
     27 H'2       789.4690   23.1100    5.8750 hn        1 RYV      0.268333
     28 H3S3     -837.0470  -24.5560   -3.3670 hn        1 RYV      0.259667
     29 C7        787.8500   22.4660    4.7050 c2        1 RYV      0.349000
@<TRIPOS>BOND
     1    1    7 1   
     2    1   11 1   
     3    1   13 1   
     4    1   14 1   
     5    2   15 1   
     6    2   20 1   
     7    2   27 1   
     8    2   29 1   
     9    3   29 1   
    10    4    6 1   
    11    4   18 1   
    12    4   29 1   
    13    5    7 1   
    14    5   16 1   
    15    5   17 1   
    16    7    9 1   
    17    8    9 1   
    18    8   19 1   
    19   10   12 1   
    20   10   21 1   
    21   10   22 1   
    22   12   23 1   
    23   12   24 1   
    24   14   25 1   
    25   14   26 1   
    26   14   28 1   
@<TRIPOS>SUBSTRUCTURE
     1 RYV         1 TEMP              0 ****  ****    0 ROOT
