@<TRIPOS>MOLECULE
RYV
   27    22     1     0     0
SMALL
bcc


@<TRIPOS>ATOM
      1 S          -4.2030   -0.6420    0.3420 ss        1 RYV      2.864000
      2 N'          2.6300    0.4480    0.1980 n3        1 RYV     -0.372000
      3 O'          2.3970   -1.8190    0.3160 o         1 RYV     -0.352000
      4 C1          0.3410   -0.6480    0.2760 c1        1 RYV     -0.060000
      5 C2         -1.7200   -0.5500    1.5030 c1        1 RYV     -0.028000
      6 C3         -0.3340   -0.5730    1.4840 c2        1 RYV     -0.134000
      7 C4         -2.4300   -0.6030    0.3140 c1        1 RYV     -0.807000
      8 C5         -0.3690   -0.7010   -0.9130 c1        1 RYV     -0.109000
      9 C6         -1.7550   -0.6780   -0.8940 c1        1 RYV     -0.028000
     10 C7          1.8520   -0.7360    0.2590 c1        1 RYV      0.333000
     11 C1'         3.9750    0.3920   -0.2600 c3        1 RYV     -0.033000
     12 O1S        -4.7250   -1.4170   -0.7490 o         1 RYV     -0.933500
     13 C2'         4.2050    1.4810   -1.2850 c3        1 RYV     -0.239000
     14 O2S        -4.6900   -1.3850    1.4710 o         1 RYV     -0.933500
     15 N3S        -4.8050    0.8860    0.3300 n2        1 RYV     -0.954000
     16 HN'         2.2730    1.2430    0.4660 hn        1 RYV      0.221000
     17 H2         -2.1950   -0.4970    2.3540 ha        1 RYV      0.158000
     18 H3          0.1660   -0.5360    2.3210 ha        1 RYV      0.146000
     19 H5          0.1060   -0.7530   -1.7640 ha        1 RYV      0.163000
     20 H6         -2.2550   -0.7150   -1.7310 ha        1 RYV      0.158000
     21 H1'         4.1450   -0.4820   -0.6690 h1        1 RYV      0.103500
     22 H1'A        4.5840    0.5220    0.4960 h1        1 RYV      0.103500
     23 H2'         5.1060    1.3910   -1.6600 hc        1 RYV      0.081667
     24 H2'A        3.5430    1.3990   -2.0020 hc        1 RYV      0.081667
     25 H2'B        4.1160    2.3570   -0.8560 hc        1 RYV      0.081667
     26 HN3S       -4.9510    1.3130   -0.4650 hn        1 RYV      0.244000
     27 HN3A       -5.0080    1.3040    1.1170 hn        1 RYV      0.244000
@<TRIPOS>BOND
     1    1   12 1   
     2    1   14 1   
     3    2   10 1   
     4    2   11 1   
     5    2   16 1   
     6    3   10 1   
     7    4    6 1   
     8    4    8 1   
     9    5    6 1   
    10    5   17 1   
    11    6   18 1   
    12    7    9 1   
    13    8   19 1   
    14    9   20 1   
    15   11   13 1   
    16   11   21 1   
    17   11   22 1   
    18   13   23 1   
    19   13   24 1   
    20   13   25 1   
    21   15   26 1   
    22   15   27 1   
@<TRIPOS>SUBSTRUCTURE
     1 RYV         1 TEMP              0 ****  ****    0 ROOT
