@<TRIPOS>MOLECULE
RYV
   27    27     1     0     0
SMALL
bcc


@<TRIPOS>ATOM
      1 S          -3.2110    0.2400   -0.1960 sy        1 RYV      1.525200
      2 N'          3.5410    0.2240   -0.4080 n         1 RYV     -0.564900
      3 O'          3.1480   -1.4130    1.1560 o         1 RYV     -0.595100
      4 C1          1.2360   -0.3180    0.2230 ca        1 RYV     -0.077600
      5 C2         -0.9770   -1.2540   -0.0070 ca        1 RYV     -0.026000
      6 C3          0.3990   -1.4330    0.1200 ca        1 RYV     -0.122500
      7 C4         -1.5360    0.0280   -0.0220 ca        1 RYV     -0.363500
      8 C5          0.6920    0.9700    0.2040 ca        1 RYV     -0.122500
      9 C6         -0.6860    1.1340    0.0840 ca        1 RYV     -0.026000
     10 C1'         4.9740    0.1580   -0.3160 c3        1 RYV      0.085000
     11 O1S        -3.4350    1.5270   -0.7300 o         1 RYV     -0.655300
     12 C2'         5.6360    1.4560    0.1240 c3        1 RYV     -0.119100
     13 O2S        -3.7220   -0.8660   -0.9040 o         1 RYV     -0.655300
     14 N3S        -3.7400    0.1940    1.3120 n3        1 RYV     -1.026700
     15 HN'         3.1510    0.9450   -0.9660 hn        1 RYV      0.311500
     16 H2         -1.6350   -2.1340   -0.1140 ha        1 RYV      0.157000
     17 H3          0.8340   -2.4450    0.1490 ha        1 RYV      0.152000
     18 H5          1.3400    1.8550    0.2970 ha        1 RYV      0.152000
     19 H6         -1.1150    2.1520    0.0520 ha        1 RYV      0.157000
     20 H1'         5.2540   -0.6640    0.4050 h1        1 RYV      0.062700
     21 H1'A        5.3740   -0.1230   -1.3340 h1        1 RYV      0.062700
     22 H2'         5.3120    1.7460    1.1530 hc        1 RYV      0.042367
     23 H2'A        6.7430    1.3090    0.1290 hc        1 RYV      0.042367
     24 H2'B        5.3930    2.2930   -0.5730 hc        1 RYV      0.042367
     25 HN3S       -4.0290   -0.6360    1.7670 hn        1 RYV      0.449800
     26 HN3A       -3.8350    0.9950    1.8850 hn        1 RYV      0.449800
     27 C7          2.7070   -0.5420    0.3790 c         1 RYV      0.661700
@<TRIPOS>BOND
     1    1    7 1   
     2    1   11 2   
     3    1   13 2   
     4    1   14 1   
     5    2   10 1   
     6    2   15 1   
     7    2   27 1   
     8    3   27 2   
     9    4    6 ar  
    10    4    8 ar  
    11    4   27 1   
    12    5    6 ar  
    13    5    7 ar  
    14    5   16 1   
    15    6   17 1   
    16    7    9 ar  
    17    8    9 ar  
    18    8   18 1   
    19    9   19 1   
    20   10   12 1   
    21   10   20 1   
    22   10   21 1   
    23   12   22 1   
    24   12   23 1   
    25   12   24 1   
    26   14   25 1   
    27   14   26 1   
@<TRIPOS>SUBSTRUCTURE
     1 RYV         1 TEMP              0 ****  ****    0 ROOT
