@<TRIPOS>MOLECULE
RYV
   29    26     1     0     0
SMALL
bcc


@<TRIPOS>ATOM
      1 S        -208.7950   58.4350   17.1210 s6        1 RYV      2.799000
      2 N'        203.8870  -54.9600  -16.4590 n4        1 RYV     -0.158000
      3 O'        202.8730  -55.4810  -14.4500 o         1 RYV     -0.172000
      4 C1        205.0410  -54.4370  -14.3030 c2        1 RYV     -0.609000
      5 C2       -208.0130   60.7180   18.2090 c2        1 RYV      0.094000
      6 C3        205.2770  -54.3440  -12.9880 c1        1 RYV      0.523000
      7 C4       -208.3350   60.0020   17.1030 c2        1 RYV     -0.821000
      8 C5       -208.0620   61.1240   14.7680 c1        1 RYV     -0.031000
      9 C6       -208.2210   60.5830   15.8260 c1        1 RYV     -0.256000
     10 C1'       201.3290  -55.3900  -18.2980 c2        1 RYV     -0.244500
     11 O1S      -208.2350   57.6070   16.1790 o         1 RYV     -0.831000
     12 C2'       201.3330  -56.6090  -17.7660 c2        1 RYV     -0.244500
     13 O2S      -209.1060   57.9850   18.3870 o         1 RYV     -0.831000
     14 N3S      -210.5240   58.6750   16.3840 n4        1 RYV     -0.512000
     15 HN'       203.9660  -53.9940  -16.7890 hn        1 RYV      0.268333
     16 H2       -207.6550   61.7610   18.1460 ha        1 RYV      0.174000
     17 H3       -208.0890   60.2910   19.2260 ha        1 RYV      0.174000
     18 H5        205.8710  -54.0270  -14.9300 ha        1 RYV      0.229000
     19 H6       -207.9320   61.5810   13.8130 ha        1 RYV      0.261000
     20 H1'       203.0020  -55.3730  -16.8300 hn        1 RYV      0.268333
     21 H1'A      201.8260  -55.1570  -19.2520 ha        1 RYV      0.130500
     22 H2'       200.7550  -54.5570  -17.8660 ha        1 RYV      0.130500
     23 H2'A      200.7760  -56.8590  -16.8500 ha        1 RYV      0.130500
     24 H2'B      201.8450  -57.4620  -18.2370 ha        1 RYV      0.130500
     25 HN3S     -210.6790   59.6290   16.0630 hn        1 RYV      0.259667
     26 HN3A     -210.6580   58.0560   15.5830 hn        1 RYV      0.259667
     27 H'2       204.6820  -55.4980  -16.8120 hn        1 RYV      0.268333
     28 H3S3     -211.2470   58.4520   17.0690 hn        1 RYV      0.259667
     29 C7        203.8780  -54.9880  -14.9430 c2        1 RYV      0.349000
@<TRIPOS>BOND
     1    1    7 1   
     2    1   11 1   
     3    1   13 1   
     4    1   14 1   
     5    2   15 1   
     6    2   20 1   
     7    2   27 1   
     8    2   29 1   
     9    3   29 1   
    10    4    6 1   
    11    4   18 1   
    12    4   29 1   
    13    5    7 1   
    14    5   16 1   
    15    5   17 1   
    16    7    9 1   
    17    8    9 1   
    18    8   19 1   
    19   10   12 1   
    20   10   21 1   
    21   10   22 1   
    22   12   23 1   
    23   12   24 1   
    24   14   25 1   
    25   14   26 1   
    26   14   28 1   
@<TRIPOS>SUBSTRUCTURE
     1 RYV         1 TEMP              0 ****  ****    0 ROOT
