@<TRIPOS>MOLECULE
RYV
   29    26     1     0     0
SMALL
bcc


@<TRIPOS>ATOM
      1 S        -575.3650  -24.4360   -3.3680 s6        1 RYV      2.799000
      2 N'        546.3360   21.3460    1.6700 nz        1 RYV     -0.158000
      3 O'        545.8960   21.5380   -0.5890 o         1 RYV     -0.171000
      4 C1        546.3540   23.5970    0.5810 c2        1 RYV     -0.607000
      5 C2       -574.8100  -22.2490   -1.9820 c2        1 RYV      0.094000
      6 C3        546.2820   24.5400   -0.3660 c1        1 RYV      0.522000
      7 C4       -575.1970  -22.8260   -3.1470 c2        1 RYV     -0.821000
      8 C5       -575.5530  -21.3070   -5.2320 c1        1 RYV     -0.031000
      9 C6       -575.4200  -22.0330   -4.2880 c1        1 RYV     -0.256000
     10 C1'       543.7130   21.2450    3.6180 c2        1 RYV     -0.245500
     11 O1S      -574.8480  -24.9660   -4.5250 o         1 RYV     -0.831000
     12 C2'       544.6200   21.8880    4.3470 c2        1 RYV     -0.245500
     13 O2S      -575.3580  -25.1400   -2.1820 o         1 RYV     -0.831000
     14 N3S      -577.2130  -24.4390   -3.7830 nz        1 RYV     -0.512000
     15 HN'       547.2420   21.5390    2.1040 hn        1 RYV      0.268333
     16 H2       -574.6570  -21.1590   -1.8920 ha        1 RYV      0.174000
     17 H3       -574.6240  -22.8430   -1.0680 ha        1 RYV      0.174000
     18 H5        546.5840   24.0060    1.5950 ha        1 RYV      0.229000
     19 H6       -575.6810  -20.6830   -6.0890 ha        1 RYV      0.261000
     20 H1'       546.2840   20.3480    1.4270 hn        1 RYV      0.268333
     21 H1'A      542.9580   21.7680    3.0110 ha        1 RYV      0.130250
     22 H2'       543.6130   20.1490    3.6250 ha        1 RYV      0.130250
     23 H2'A      545.3240   21.3680    5.0130 ha        1 RYV      0.130250
     24 H2'B      544.6690   22.9860    4.4000 ha        1 RYV      0.130250
     25 HN3S     -577.5890  -23.4980   -3.8860 hn        1 RYV      0.259667
     26 HN3A     -577.7500  -24.9130   -3.0570 hn        1 RYV      0.259667
     27 H'2       545.5810   21.5640    2.3510 hn        1 RYV      0.268333
     28 H3S3     -577.3790  -24.9320   -4.6620 hn        1 RYV      0.259667
     29 C7        546.1690   22.1810    0.4160 c2        1 RYV      0.349000
@<TRIPOS>BOND
     1    1    7 1   
     2    1   11 1   
     3    1   13 1   
     4    1   14 1   
     5    2   15 1   
     6    2   20 1   
     7    2   27 1   
     8    2   29 1   
     9    3   29 1   
    10    4    6 1   
    11    4   18 1   
    12    4   29 1   
    13    5    7 1   
    14    5   16 1   
    15    5   17 1   
    16    7    9 1   
    17    8    9 1   
    18    8   19 1   
    19   10   12 1   
    20   10   21 1   
    21   10   22 1   
    22   12   23 1   
    23   12   24 1   
    24   14   25 1   
    25   14   26 1   
    26   14   28 1   
@<TRIPOS>SUBSTRUCTURE
     1 RYV         1 TEMP              0 ****  ****    0 ROOT
