@<TRIPOS>MOLECULE
RYX
   32    31     1     0     0
SMALL
bcc


@<TRIPOS>ATOM
      1 S          -0.8780    0.3620    0.1180 s6        1 RYX      2.823000
      2 N'          8.4630   -0.5000    1.9270 n3        1 RYX     -0.103000
      3 O'          5.8420   -0.3230    0.5090 o         1 RYX     -0.331000
      4 C1          3.5780   -0.0280   -0.2120 c2        1 RYX     -0.072000
      5 C2          1.5590   -0.2440    1.1280 c2        1 RYX      0.209000
      6 C3          2.9790   -0.3570    0.9660 c2        1 RYX     -0.146000
      7 C4          0.7660    0.1970    0.0860 c2        1 RYX     -0.970000
      8 C5          2.7780    0.4630   -1.3600 c3        1 RYX     -0.193000
      9 C6          1.3530    0.5600   -1.1460 c1        1 RYX     -0.117000
     10 F2'1        9.8920   -0.3060    4.4400 f         1 RYX     -0.077500
     11 F3'1       12.0440    1.4570    3.7650 f         1 RYX     -0.108667
     12 F2'2       11.5180   -1.4370    3.5540 f         1 RYX     -0.077500
     13 F3'2       10.3050    1.8190    2.4660 f         1 RYX     -0.108667
     14 F3'3       12.0410    0.7340    1.6850 f         1 RYX     -0.108667
     15 C1'         9.6570   -0.9600    2.1110 c2        1 RYX      0.077000
     16 O1S        -1.5280   -0.8510    0.0920 o         1 RYX     -0.838000
     17 C2'        10.5820   -0.4870    3.2720 c3        1 RYX      0.226000
     18 O2S        -1.2830    1.3880    0.9430 o         1 RYX     -0.838000
     19 C3'        11.2750    0.9130    2.7940 c3        1 RYX      0.412000
     20 N3S        -1.2370    1.0360   -1.5550 n4        1 RYX     -0.537000
     21 HN'         5.3780   -0.1010   -1.4790 h4        1 RYX      0.142000
     22 H2          3.5730   -0.7220    1.8250 ha        1 RYX      0.186000
     23 H3          1.1320   -0.5220    2.1140 ha        1 RYX      0.184000
     24 H5          3.1470    1.4890   -1.6890 hc        1 RYX      0.211000
     25 H6          2.9430   -0.2020   -2.2690 hc        1 RYX      0.211000
     26 H1'         7.8720   -0.7980    1.1570 hn        1 RYX      0.307000
     27 H1'A       10.1100   -1.7220    1.4250 h4        1 RYX      0.249000
     28 HN3S       -1.6700    1.9590   -1.5080 hn        1 RYX      0.278000
     29 HN3A       -1.8640    0.4260   -2.0820 hn        1 RYX      0.278000
     30 H'2         8.0530    0.1880    2.5460 hn        1 RYX      0.307000
     31 H3S3       -0.3470    1.1230   -2.0910 hn        1 RYX      0.278000
     32 C7          5.0420   -0.1600   -0.4180 c2        1 RYX      0.247000
@<TRIPOS>BOND
     1    1    7 1   
     2    1   16 1   
     3    1   18 1   
     4    1   20 1   
     5    2   15 1   
     6    2   26 1   
     7    2   30 1   
     8    3   32 1   
     9    4    6 1   
    10    4    8 1   
    11    4   32 1   
    12    5    6 1   
    13    5    7 1   
    14    5   23 1   
    15    6   22 1   
    16    7    9 1   
    17    8    9 1   
    18    8   24 1   
    19    8   25 1   
    20   10   17 1   
    21   11   19 1   
    22   12   17 1   
    23   13   19 1   
    24   14   19 1   
    25   15   17 1   
    26   15   27 1   
    27   17   19 1   
    28   20   28 1   
    29   20   29 1   
    30   20   31 1   
    31   21   32 1   
@<TRIPOS>SUBSTRUCTURE
     1 RYX         1 TEMP              0 ****  ****    0 ROOT
