@<TRIPOS>MOLECULE
RYX
   32    31     1     0     0
SMALL
bcc


@<TRIPOS>ATOM
      1 S          -0.8570    0.4030    0.0440 s6        1 RYX      2.823000
      2 N'          8.4490   -0.5460    1.9470 n3        1 RYX     -0.103000
      3 O'          5.8540   -0.3330    0.4980 o         1 RYX     -0.331000
      4 C1          3.5990   -0.0180   -0.2440 c2        1 RYX     -0.072000
      5 C2          1.5640   -0.2320    1.0730 c2        1 RYX      0.209000
      6 C3          2.9850   -0.3540    0.9240 c2        1 RYX     -0.146000
      7 C4          0.7850    0.2260    0.0270 c2        1 RYX     -0.970000
      8 C5          2.8140    0.4900   -1.3950 c3        1 RYX     -0.193000
      9 C6          1.3880    0.5960   -1.1950 c1        1 RYX     -0.117000
     10 F2'1        9.8170   -0.4680    4.5020 f         1 RYX     -0.077500
     11 F3'1       11.9350    1.3880    3.9800 f         1 RYX     -0.108667
     12 F2'2       11.4930   -1.5000    3.5880 f         1 RYX     -0.077500
     13 F3'2       10.2100    1.7820    2.6700 f         1 RYX     -0.108667
     14 F3'3       11.9910    0.7930    1.8590 f         1 RYX     -0.108667
     15 C1'         9.6500   -0.9880    2.1340 c2        1 RYX      0.077000
     16 O1S        -1.5160   -0.8050    0.0010 o         1 RYX     -0.838000
     17 C2'        10.5370   -0.5600    3.3410 c3        1 RYX      0.226000
     18 O2S        -1.2630    1.4250    0.8730 o         1 RYX     -0.838000
     19 C3'        11.1990    0.8840    2.9620 c3        1 RYX      0.412000
     20 N3S        -1.1940    1.0940   -1.6270 n4        1 RYX     -0.537000
     21 HN'         5.4110   -0.0960   -1.4930 h4        1 RYX      0.142000
     22 H2          3.5670   -0.7310    1.7860 ha        1 RYX      0.186000
     23 H3          1.1240   -0.5170    2.0510 ha        1 RYX      0.184000
     24 H5          3.1950    1.5160   -1.7100 hc        1 RYX      0.211500
     25 H6          2.9840   -0.1680   -2.3090 hc        1 RYX      0.211500
     26 H1'         7.8830   -0.8150    1.1480 hn        1 RYX      0.307000
     27 H1'A       10.1360   -1.7010    1.4180 h4        1 RYX      0.250000
     28 HN3S       -1.6210    2.0190   -1.5770 hn        1 RYX      0.278000
     29 HN3A       -1.8190    0.4930   -2.1660 hn        1 RYX      0.278000
     30 H'2         8.0090    0.0970    2.5930 hn        1 RYX      0.307000
     31 H3S3       -0.2970    1.1790   -2.1530 hn        1 RYX      0.278000
     32 C7          5.0640   -0.1590   -0.4350 c2        1 RYX      0.247000
@<TRIPOS>BOND
     1    1    7 1   
     2    1   16 1   
     3    1   18 1   
     4    1   20 1   
     5    2   15 1   
     6    2   26 1   
     7    2   30 1   
     8    3   32 1   
     9    4    6 1   
    10    4    8 1   
    11    4   32 1   
    12    5    6 1   
    13    5    7 1   
    14    5   23 1   
    15    6   22 1   
    16    7    9 1   
    17    8    9 1   
    18    8   24 1   
    19    8   25 1   
    20   10   17 1   
    21   11   19 1   
    22   12   17 1   
    23   13   19 1   
    24   14   19 1   
    25   15   17 1   
    26   15   27 1   
    27   17   19 1   
    28   20   28 1   
    29   20   29 1   
    30   20   31 1   
    31   21   32 1   
@<TRIPOS>SUBSTRUCTURE
     1 RYX         1 TEMP              0 ****  ****    0 ROOT
