@<TRIPOS>MOLECULE
RYX
   30    25     1     0     0
SMALL
bcc


@<TRIPOS>ATOM
      1 S          -4.8350    0.6040    0.5810 ss        1 RYX      2.863000
      2 N'          1.9920   -0.5170    0.2430 n3        1 RYX     -0.372000
      3 O'          1.8240    1.8010    0.3030 o         1 RYX     -0.332000
      4 C1         -0.2920    0.7000    0.3780 c1        1 RYX     -0.065000
      5 C2         -2.3270    0.7280    1.6710 c1        1 RYX     -0.027000
      6 C3         -0.9330    0.7380    1.6090 c2        1 RYX     -0.130000
      7 C4         -3.0720    0.6810    0.5020 c1        1 RYX     -0.799000
      8 C5         -1.0420    0.6530   -0.7950 c1        1 RYX     -0.105000
      9 C6         -2.4290    0.6430   -0.7330 c1        1 RYX     -0.026000
     10 C7          1.2370    0.7330    0.3080 c1        1 RYX      0.343000
     11 F2'1        3.7420   -2.7830    0.2640 f         1 RYX     -0.135500
     12 F3'1        5.4350   -3.1190   -1.7830 f         1 RYX     -0.145667
     13 F2'2        2.7700   -2.2960   -1.6560 f         1 RYX     -0.135500
     14 F3'2        5.9730   -1.3430   -0.6060 f         1 RYX     -0.145667
     15 F3'3        4.9880   -1.1020   -2.5620 f         1 RYX     -0.145667
     16 C1'         3.3520   -0.5160   -0.2350 c3        1 RYX     -0.057000
     17 O1S        -5.3680   -0.1950   -0.4840 o         1 RYX     -0.932000
     18 C2'         3.7050   -1.9060   -0.7640 c3        1 RYX      0.211000
     19 O2S        -5.2690   -0.1240    1.7150 o         1 RYX     -0.932000
     20 C3'         5.0660   -1.8660   -1.4440 c3        1 RYX      0.374000
     21 N3S        -5.4700    2.1130    0.5670 n2        1 RYX     -0.954000
     22 HN'         1.5980   -1.2980    0.4930 hn        1 RYX      0.239000
     23 H2         -2.7650    0.7510    2.5120 ha        1 RYX      0.160000
     24 H3         -0.4040    0.7730    2.4380 ha        1 RYX      0.147000
     25 H5         -0.5950    0.6270   -1.6550 ha        1 RYX      0.163000
     26 H6         -2.9390    0.6120   -1.5330 ha        1 RYX      0.160000
     27 H1'         3.4460    0.1470   -0.9590 h1        1 RYX      0.143000
     28 H1'A        3.9660   -0.2800    0.5130 h1        1 RYX      0.143000
     29 HN3S       -5.3600    2.6420   -0.1610 hn        1 RYX      0.246000
     30 HN3A       -5.9930    2.4000    1.2720 hn        1 RYX      0.246000
@<TRIPOS>BOND
     1    1   17 1   
     2    1   19 1   
     3    2   10 1   
     4    2   16 1   
     5    2   22 1   
     6    3   10 1   
     7    4    6 1   
     8    4    8 1   
     9    5    6 1   
    10    5   23 1   
    11    6   24 1   
    12    7    9 1   
    13    8   25 1   
    14    9   26 1   
    15   11   18 1   
    16   12   20 1   
    17   13   18 1   
    18   14   20 1   
    19   15   20 1   
    20   16   18 1   
    21   16   27 1   
    22   16   28 1   
    23   18   20 1   
    24   21   29 1   
    25   21   30 1   
@<TRIPOS>SUBSTRUCTURE
     1 RYX         1 TEMP              0 ****  ****    0 ROOT
