@<TRIPOS>MOLECULE
RYX
   32    31     1     0     0
SMALL
bcc


@<TRIPOS>ATOM
      1 S          -0.8710    0.3810    0.1270 s6        1 RYX      2.823000
      2 N'          8.4660   -0.5120    1.9120 n8        1 RYX     -0.103000
      3 O'          5.8470   -0.3340    0.4990 o         1 RYX     -0.331000
      4 C1          3.5810   -0.0370   -0.2160 c2        1 RYX     -0.072000
      5 C2          1.5660   -0.2290    1.1330 c2        1 RYX      0.209000
      6 C3          2.9850   -0.3510    0.9670 c2        1 RYX     -0.146000
      7 C4          0.7710    0.2060    0.0900 c2        1 RYX     -0.970000
      8 C5          2.7790    0.4470   -1.3660 c3        1 RYX     -0.193000
      9 C6          1.3560    0.5530   -1.1480 c1        1 RYX     -0.117000
     10 F2'1        9.8830   -0.3460    4.4350 f         1 RYX     -0.077500
     11 F3'1       12.0100    1.4640    3.8010 f         1 RYX     -0.108667
     12 F2'2       11.5300   -1.4330    3.5330 f         1 RYX     -0.077500
     13 F3'2       10.2670    1.8240    2.5060 f         1 RYX     -0.108667
     14 F3'3       12.0220    0.7830    1.7060 f         1 RYX     -0.108667
     15 C1'         9.6670   -0.9580    2.0930 c2        1 RYX      0.077000
     16 O1S        -1.5280   -0.8300    0.1170 o         1 RYX     -0.838000
     17 C2'        10.5800   -0.4920    3.2660 c3        1 RYX      0.226000
     18 O2S        -1.2680    1.4170    0.9420 o         1 RYX     -0.838000
     19 C3'        11.2520    0.9280    2.8170 c3        1 RYX      0.412000
     20 N3S        -1.2340    1.0380   -1.5520 nz        1 RYX     -0.537000
     21 HN'         5.3750   -0.1350   -1.4900 h4        1 RYX      0.142000
     22 H2          3.5800   -0.7100    1.8270 ha        1 RYX      0.186000
     23 H3          1.1410   -0.4950    2.1240 ha        1 RYX      0.184000
     24 H5          3.1530    1.4660   -1.7070 hc        1 RYX      0.211000
     25 H6          2.9370   -0.2290   -2.2690 hc        1 RYX      0.211000
     26 H1'         7.8820   -0.8050    1.1340 hn        1 RYX      0.307000
     27 H1'A       10.1320   -1.7020    1.3960 h4        1 RYX      0.250000
     28 HN3S       -1.6620    1.9640   -1.5140 hn        1 RYX      0.278000
     29 HN3A       -1.8660    0.4260   -2.0700 hn        1 RYX      0.278000
     30 H'2         8.0450    0.1610    2.5410 hn        1 RYX      0.307000
     31 H3S3       -0.3450    1.1150   -2.0920 hn        1 RYX      0.278000
     32 C7          5.0430   -0.1790   -0.4260 c2        1 RYX      0.247000
@<TRIPOS>BOND
     1    1    7 1   
     2    1   16 1   
     3    1   18 1   
     4    1   20 1   
     5    2   15 1   
     6    2   26 1   
     7    2   30 1   
     8    3   32 1   
     9    4    6 1   
    10    4    8 1   
    11    4   32 1   
    12    5    6 1   
    13    5    7 1   
    14    5   23 1   
    15    6   22 1   
    16    7    9 1   
    17    8    9 1   
    18    8   24 1   
    19    8   25 1   
    20   10   17 1   
    21   11   19 1   
    22   12   17 1   
    23   13   19 1   
    24   14   19 1   
    25   15   17 1   
    26   15   27 1   
    27   17   19 1   
    28   20   28 1   
    29   20   29 1   
    30   20   31 1   
    31   21   32 1   
@<TRIPOS>SUBSTRUCTURE
     1 RYX         1 TEMP              0 ****  ****    0 ROOT
