@<TRIPOS>MOLECULE
RYX
   30    30     1     0     0
SMALL
bcc


@<TRIPOS>ATOM
      1 S          -5.3520   -0.4030   -0.1150 sy        1 RYX      1.524200
      2 N'          1.3400    0.4460   -0.5280 n         1 RYX     -0.565900
      3 O'          0.8030    2.0360    1.0350 o         1 RYX     -0.573100
      4 C1         -0.9970    0.7070    0.1730 ca        1 RYX     -0.084600
      5 C2         -2.7240   -0.9740    0.0780 ca        1 RYX     -0.026000
      6 C3         -1.3730   -0.6390    0.1570 ca        1 RYX     -0.118500
      7 C4         -3.7080    0.0170    0.0110 ca        1 RYX     -0.354500
      8 C5         -1.9700    1.7100    0.1090 ca        1 RYX     -0.118500
      9 C6         -3.3150    1.3590    0.0240 ca        1 RYX     -0.026000
     10 F2'1        3.2210   -0.8050    1.4450 f         1 RYX     -0.207800
     11 F3'1        5.9370   -1.0790    0.6000 f         1 RYX     -0.216633
     12 F2'2        3.3320   -1.7020   -0.5070 f         1 RYX     -0.207800
     13 F3'2        5.4140    1.0370    0.7000 f         1 RYX     -0.216633
     14 F3'3        5.5420    0.0350   -1.2330 f         1 RYX     -0.216633
     15 C1'         2.7410    0.6820   -0.4620 c3        1 RYX      0.061000
     16 O1S        -6.0190    0.6490   -0.7730 o         1 RYX     -0.653300
     17 C2'         3.5550   -0.5150    0.1480 c3        1 RYX      0.353600
     18 O2S        -5.4260   -1.6920   -0.6810 o         1 RYX     -0.653300
     19 C3'         5.1190   -0.1320    0.0560 c3        1 RYX      0.587900
     20 N3S        -5.8270   -0.4640    1.4100 n3        1 RYX     -1.027700
     21 HN'         1.0280   -0.3150   -1.0840 hn        1 RYX      0.327500
     22 H2         -3.0230   -2.0370    0.0470 ha        1 RYX      0.160500
     23 H3         -0.6180   -1.4370    0.2230 ha        1 RYX      0.154500
     24 H5         -1.6650    2.7690    0.1360 ha        1 RYX      0.154500
     25 H6         -4.0830    2.1510   -0.0520 ha        1 RYX      0.160500
     26 H1'         3.1510    0.8390   -1.5010 h1        1 RYX      0.103700
     27 H1'A        2.9550    1.5880    0.1760 h1        1 RYX      0.103700
     28 HN3S       -6.2010    0.3100    1.8990 hn        1 RYX      0.450800
     29 HN3A       -5.8010   -1.2860    1.9600 hn        1 RYX      0.450800
     30 C7          0.4340    1.1140    0.2860 c         1 RYX      0.671700
@<TRIPOS>BOND
     1    1    7 1   
     2    1   16 2   
     3    1   18 2   
     4    1   20 1   
     5    2   15 1   
     6    2   21 1   
     7    2   30 1   
     8    3   30 2   
     9    4    6 ar  
    10    4    8 ar  
    11    4   30 1   
    12    5    6 ar  
    13    5    7 ar  
    14    5   22 1   
    15    6   23 1   
    16    7    9 ar  
    17    8    9 ar  
    18    8   24 1   
    19    9   25 1   
    20   10   17 1   
    21   11   19 1   
    22   12   17 1   
    23   13   19 1   
    24   14   19 1   
    25   15   17 1   
    26   15   26 1   
    27   15   27 1   
    28   17   19 1   
    29   20   28 1   
    30   20   29 1   
@<TRIPOS>SUBSTRUCTURE
     1 RYX         1 TEMP              0 ****  ****    0 ROOT
