@<TRIPOS>MOLECULE
RYY
   32    32     1     0     0
SMALL
bcc


@<TRIPOS>ATOM
      1 N          -0.5700    0.9040   -0.2930 ny        1 RYY     -0.674800
      2 S           4.2840   -0.6430   -4.7720 sy        1 RYY      1.461200
      3 C1          1.6570    0.9180   -1.5320 ca        1 RYY     -0.082600
      4 C2          1.1780    0.8550   -2.8450 ca        1 RYY     -0.097000
      5 C3          2.0210    0.4090   -3.8620 ca        1 RYY      0.013000
      6 C4          3.3450    0.0150   -3.5910 ca        1 RYY     -0.456500
      7 C5          3.8030    0.0870   -2.2640 ca        1 RYY      0.013000
      8 C6          2.9730    0.5410   -1.2380 ca        1 RYY     -0.097000
      9 C7          0.8270    1.4500   -0.4240 c         1 RYY      0.541700
     10 O7          1.1720    2.2820    0.3990 o         1 RYY     -0.354100
     11 C1'        -0.7250    0.0830    0.9590 c3        1 RYY      0.105800
     12 C16        -2.2310   -1.1970    2.4400 c3        1 RYY     -0.105100
     13 O1S         5.3400   -1.3660   -4.2710 o         1 RYY     -0.532300
     14 C2'        -2.1590   -0.3880    1.1670 c3        1 RYY     -0.105400
     15 O2S         3.5660   -0.9740   -5.8960 o         1 RYY     -0.532300
     16 N3S         5.1710    0.9110   -5.3620 nz        1 RYY     -0.801500
     17 HN         -0.8110    0.3300   -1.1080 hn        1 RYY      0.467300
     18 H2          0.1540    1.1730   -3.1040 ha        1 RYY      0.186500
     19 H3          1.6270    0.3450   -4.8980 ha        1 RYY      0.197000
     20 H5          4.8340   -0.2380   -2.0130 ha        1 RYY      0.197000
     21 H6          3.3620    0.6060   -0.2040 ha        1 RYY      0.186500
     22 H1'        -0.3990    0.7280    1.8280 hx        1 RYY      0.115700
     23 H1'A       -0.0330   -0.8030    0.8770 hx        1 RYY      0.115700
     24 H16        -1.9300   -0.5840    3.3240 hc        1 RYY      0.070700
     25 H16A       -1.5710   -2.0960    2.3840 hc        1 RYY      0.070700
     26 H16B       -3.2840   -1.5440    2.5980 hc        1 RYY      0.070700
     27 H2'        -2.4950   -1.0190    0.3010 hc        1 RYY      0.072200
     28 H2'A       -2.8540    0.4910    1.2440 hc        1 RYY      0.072200
     29 HN3S        4.9070    1.7580   -4.8640 hn        1 RYY      0.472467
     30 HN3A        6.1850    0.8040   -5.2610 hn        1 RYY      0.472467
     31 HN3        -1.2340    1.6910   -0.2400 hn        1 RYY      0.467300
     32 H3S3        4.9870    1.0730   -6.3570 hn        1 RYY      0.472467
@<TRIPOS>BOND
     1    1    9 1   
     2    1   11 1   
     3    1   17 1   
     4    1   31 1   
     5    2    6 1   
     6    2   13 2   
     7    2   15 2   
     8    2   16 1   
     9    3    4 ar  
    10    3    8 ar  
    11    3    9 1   
    12    4    5 ar  
    13    4   18 1   
    14    5    6 ar  
    15    5   19 1   
    16    6    7 ar  
    17    7    8 ar  
    18    7   20 1   
    19    8   21 1   
    20    9   10 2   
    21   11   14 1   
    22   11   22 1   
    23   11   23 1   
    24   12   14 1   
    25   12   24 1   
    26   12   25 1   
    27   12   26 1   
    28   14   27 1   
    29   14   28 1   
    30   16   29 1   
    31   16   30 1   
    32   16   32 1   
@<TRIPOS>SUBSTRUCTURE
     1 RYY         1 TEMP              0 ****  ****    0 ROOT
