@<TRIPOS>MOLECULE
RYY
   32    32     1     0     0
SMALL
bcc


@<TRIPOS>ATOM
      1 N           0.2140   -0.7910    0.2990 n4        1 RYY     -0.674800
      2 S           3.9130    0.1300   -5.3000 sy        1 RYY      1.460200
      3 C1          2.1270   -0.0880   -1.2260 ca        1 RYY     -0.084600
      4 C2          1.3790    0.4380   -2.2860 ca        1 RYY     -0.096000
      5 C3          1.9610    0.5480   -3.5480 ca        1 RYY      0.012500
      6 C4          3.2870    0.1330   -3.7790 ca        1 RYY     -0.456500
      7 C5          4.0180   -0.3900   -2.6980 ca        1 RYY      0.012500
      8 C6          3.4520   -0.4960   -1.4270 ca        1 RYY     -0.096000
      9 C7          1.5810   -0.1750    0.1490 c         1 RYY      0.541700
     10 O7          2.1430    0.1800    1.1720 o         1 RYY     -0.354100
     11 C1'        -0.7610    0.1600    0.9360 c3        1 RYY      0.103800
     12 C16        -3.0280    0.5250    1.8470 c3        1 RYY     -0.105100
     13 O1S         4.9980   -0.7030   -5.4280 o         1 RYY     -0.532300
     14 C2'        -2.1110   -0.4920    1.2100 c3        1 RYY     -0.105400
     15 O2S         2.9550    0.3310   -6.2660 o         1 RYY     -0.532300
     16 N3S         4.7620    1.8120   -5.2880 n4        1 RYY     -0.801500
     17 HN          0.2920   -1.6220    0.9050 hn        1 RYY      0.468800
     18 H2          0.3430    0.7880   -2.1410 ha        1 RYY      0.187000
     19 H3          1.3550    0.9500   -4.3860 ha        1 RYY      0.197000
     20 H5          5.0570   -0.7490   -2.8520 ha        1 RYY      0.197000
     21 H6          4.0530   -0.8960   -0.5890 ha        1 RYY      0.187000
     22 H1'        -0.8850    1.0380    0.2400 hx        1 RYY      0.115200
     23 H1'A       -0.3010    0.5210    1.9030 hx        1 RYY      0.115200
     24 H16        -3.1920    1.3990    1.1710 hc        1 RYY      0.070367
     25 H16A       -2.6100    0.8930    2.8160 hc        1 RYY      0.070367
     26 H16B       -4.0200    0.0490    2.0530 hc        1 RYY      0.070367
     27 H2'        -1.9890   -1.3680    1.9020 hc        1 RYY      0.072200
     28 H2'A       -2.5680   -0.8660    0.2560 hc        1 RYY      0.072200
     29 HN3S        4.6650    2.3230   -4.4130 hn        1 RYY      0.472133
     30 HN3A        5.7650    1.7080   -5.4690 hn        1 RYY      0.472133
     31 HN3        -0.1460   -1.0930   -0.6130 hn        1 RYY      0.468800
     32 H3S3        4.3870    2.4090   -6.0310 hn        1 RYY      0.472133
@<TRIPOS>BOND
     1    1    9 1   
     2    1   11 1   
     3    1   17 1   
     4    1   31 1   
     5    2    6 1   
     6    2   13 2   
     7    2   15 2   
     8    2   16 1   
     9    3    4 ar  
    10    3    8 ar  
    11    3    9 1   
    12    4    5 ar  
    13    4   18 1   
    14    5    6 ar  
    15    5   19 1   
    16    6    7 ar  
    17    7    8 ar  
    18    7   20 1   
    19    8   21 1   
    20    9   10 2   
    21   11   14 1   
    22   11   22 1   
    23   11   23 1   
    24   12   14 1   
    25   12   24 1   
    26   12   25 1   
    27   12   26 1   
    28   14   27 1   
    29   14   28 1   
    30   16   29 1   
    31   16   30 1   
    32   16   32 1   
@<TRIPOS>SUBSTRUCTURE
     1 RYY         1 TEMP              0 ****  ****    0 ROOT
