@<TRIPOS>MOLECULE
RYY
   32    32     1     0     0
SMALL
bcc


@<TRIPOS>ATOM
      1 N          -0.5520    0.9160   -0.2740 n4        1 RYY     -0.674800
      2 S           4.2570   -0.6360   -4.7980 sy        1 RYY      1.461200
      3 C1          1.6710    0.9120   -1.5190 ca        1 RYY     -0.082600
      4 C2          1.1870    0.8830   -2.8320 ca        1 RYY     -0.097000
      5 C3          2.0180    0.4420   -3.8600 ca        1 RYY      0.013000
      6 C4          3.3350    0.0170   -3.6020 ca        1 RYY     -0.456500
      7 C5          3.7980    0.0540   -2.2750 ca        1 RYY      0.013000
      8 C6          2.9810    0.5030   -1.2380 ca        1 RYY     -0.097000
      9 C7          0.8550    1.4370   -0.3980 c         1 RYY      0.541700
     10 O7          1.2180    2.2470    0.4400 o         1 RYY     -0.354100
     11 C1'        -0.7200    0.0750    0.9640 c3        1 RYY      0.105800
     12 C16        -2.2470   -1.2040    2.4240 c3        1 RYY     -0.105100
     13 O1S         5.3000   -1.3890   -4.3160 o         1 RYY     -0.532300
     14 C2'        -2.1620   -0.3720    1.1660 c3        1 RYY     -0.105400
     15 O2S         3.5290   -0.9300   -5.9260 o         1 RYY     -0.532300
     16 N3S         5.1720    0.9120   -5.3610 n4        1 RYY     -0.801500
     17 HN         -1.2010    1.7150   -0.2040 hn        1 RYY      0.467300
     18 H2          0.1680    1.2260   -3.0810 ha        1 RYY      0.186500
     19 H3          1.6200    0.4060   -4.8950 ha        1 RYY      0.197000
     20 H5          4.8240   -0.2970   -2.0340 ha        1 RYY      0.197000
     21 H6          3.3740    0.5410   -0.2040 ha        1 RYY      0.186500
     22 H1'        -0.3790    0.6970    1.8430 hx        1 RYY      0.115700
     23 H1'A       -0.0450   -0.8220    0.8630 hx        1 RYY      0.115700
     24 H16        -1.9310   -0.6130    3.3190 hc        1 RYY      0.070700
     25 H16A       -1.6040   -2.1140    2.3490 hc        1 RYY      0.070700
     26 H16B       -3.3050   -1.5330    2.5790 hc        1 RYY      0.070700
     27 H2'        -2.5120   -0.9810    0.2900 hc        1 RYY      0.072200
     28 H2'A       -2.8400    0.5190    1.2620 hc        1 RYY      0.072200
     29 HN3S        4.9890    1.0970   -6.3510 hn        1 RYY      0.472467
     30 HN3A        6.1840    0.7830   -5.2660 hn        1 RYY      0.472467
     31 HN3        -0.8070    0.3620   -1.0980 hn        1 RYY      0.467300
     32 H3S3        4.9260    1.7540   -4.8460 hn        1 RYY      0.472467
@<TRIPOS>BOND
     1    1    9 1   
     2    1   11 1   
     3    1   17 1   
     4    1   31 1   
     5    2    6 1   
     6    2   13 2   
     7    2   15 2   
     8    2   16 1   
     9    3    4 ar  
    10    3    8 ar  
    11    3    9 1   
    12    4    5 ar  
    13    4   18 1   
    14    5    6 ar  
    15    5   19 1   
    16    6    7 ar  
    17    7    8 ar  
    18    7   20 1   
    19    8   21 1   
    20    9   10 2   
    21   11   14 1   
    22   11   22 1   
    23   11   23 1   
    24   12   14 1   
    25   12   24 1   
    26   12   25 1   
    27   12   26 1   
    28   14   27 1   
    29   14   28 1   
    30   16   29 1   
    31   16   30 1   
    32   16   32 1   
@<TRIPOS>SUBSTRUCTURE
     1 RYY         1 TEMP              0 ****  ****    0 ROOT
