@<TRIPOS>MOLECULE
RYY
   30    30     1     0     0
SMALL
bcc


@<TRIPOS>ATOM
      1 N          -3.1260   -0.0080   -0.4570 n         1 RYY     -0.563900
      2 S           3.6160    0.2950   -0.1790 sy        1 RYY      1.525200
      3 C1         -0.8080   -0.4270    0.2200 ca        1 RYY     -0.077600
      4 C2         -0.3170    0.8800    0.1550 ca        1 RYY     -0.122500
      5 C3          1.0540    1.0960    0.0420 ca        1 RYY     -0.026000
      6 C4          1.9500    0.0220   -0.0130 ca        1 RYY     -0.363500
      7 C5          1.4430   -1.2800    0.0480 ca        1 RYY     -0.026000
      8 C6          0.0750   -1.5110    0.1690 ca        1 RYY     -0.122500
      9 C7         -2.2710   -0.7050    0.3700 c         1 RYY      0.661700
     10 O7         -2.6840   -1.5620    1.1770 o         1 RYY     -0.594100
     11 C1'        -4.5560   -0.1240   -0.3720 c3        1 RYY      0.085000
     12 C16        -6.7570    0.9390    0.0930 c3        1 RYY     -0.093100
     13 O1S         4.1800   -0.8160   -0.8380 o         1 RYY     -0.655300
     14 C2'        -5.2660    1.1510    0.0890 c3        1 RYY     -0.104400
     15 O2S         3.7940    1.5680   -0.7610 o         1 RYY     -0.655300
     16 N3S         4.1310    0.3300    1.3350 n3        1 RYY     -1.026700
     17 HN         -2.7590    0.7100   -1.0340 hn        1 RYY      0.311500
     18 H2         -1.0010    1.7400    0.2070 ha        1 RYY      0.152000
     19 H3          1.4430    2.1280   -0.0260 ha        1 RYY      0.157000
     20 H5          2.1380   -2.1360   -0.0180 ha        1 RYY      0.157000
     21 H6         -0.3200   -2.5380    0.2340 ha        1 RYY      0.152000
     22 H1'        -4.9430   -0.4000   -1.3960 h1        1 RYY      0.064200
     23 H1'A       -4.8120   -0.9640    0.3360 h1        1 RYY      0.064200
     24 H16        -7.1250    0.6830   -0.9300 hc        1 RYY      0.038033
     25 H16A       -7.0360    0.1070    0.7850 hc        1 RYY      0.038033
     26 H16B       -7.2760    1.8680    0.4320 hc        1 RYY      0.038033
     27 H2'        -4.9200    1.4290    1.1190 hc        1 RYY      0.043200
     28 H2'A       -5.0080    2.0040   -0.5920 hc        1 RYY      0.043200
     29 HN3S        4.1870    1.1550    1.8770 hn        1 RYY      0.449800
     30 HN3A        4.4480   -0.4690    1.8250 hn        1 RYY      0.449800
@<TRIPOS>BOND
     1    1    9 1   
     2    1   11 1   
     3    1   17 1   
     4    2    6 1   
     5    2   13 2   
     6    2   15 2   
     7    2   16 1   
     8    3    4 ar  
     9    3    8 ar  
    10    3    9 1   
    11    4    5 ar  
    12    4   18 1   
    13    5    6 ar  
    14    5   19 1   
    15    6    7 ar  
    16    7    8 ar  
    17    7   20 1   
    18    8   21 1   
    19    9   10 2   
    20   11   14 1   
    21   11   22 1   
    22   11   23 1   
    23   12   14 1   
    24   12   24 1   
    25   12   25 1   
    26   12   26 1   
    27   14   27 1   
    28   14   28 1   
    29   16   29 1   
    30   16   30 1   
@<TRIPOS>SUBSTRUCTURE
     1 RYY         1 TEMP              0 ****  ****    0 ROOT
