@<TRIPOS>MOLECULE
RYZ
   35    34     1     0     0
SMALL
bcc


@<TRIPOS>ATOM
      1 S           0.0330    0.1230    0.6680 s6        1 RYZ      2.804000
      2 N'          6.6350    0.4270    1.2460 n8        1 RYZ     -0.384000
      3 O'          6.7610   -0.1260   -1.4800 o         1 RYZ      0.145000
      4 C1          4.3640   -0.1270   -0.5590 c2        1 RYZ     -0.081000
      5 C2          2.5000   -1.0220    0.7410 c2        1 RYZ      0.172000
      6 C3          3.9010   -1.0280    0.3520 c2        1 RYZ     -0.026000
      7 C4          1.6440   -0.0840    0.2300 c2        1 RYZ     -0.900000
      8 C5          3.4600    0.8840   -1.1930 c3        1 RYZ     -0.185000
      9 C6          2.0890    0.8350   -0.7580 c1        1 RYZ     -0.065000
     10 F2'1        8.6540    1.7420    2.9270 f         1 RYZ     -0.127500
     11 F3'1       10.1580   -1.5500    2.5860 f         1 RYZ     -0.115500
     12 F4'1       12.1950   -0.2870    4.1670 f         1 RYZ     -0.117000
     13 F2'2        7.9500   -0.0900    3.8170 f         1 RYZ     -0.127500
     14 F3'2       10.8650    0.2750    1.6760 f         1 RYZ     -0.115500
     15 F4'2       10.2770   -0.2960    5.2270 f         1 RYZ     -0.117000
     16 F4'3       11.0080    1.5510    4.3000 f         1 RYZ     -0.117000
     17 C1'         8.0000   -0.0250    1.3880 c3        1 RYZ     -0.166000
     18 O1S        -0.6540   -1.0580    0.5270 o         1 RYZ     -0.809000
     19 C2'         8.6730    0.3810    2.7480 c3        1 RYZ      0.203000
     20 O2S        -0.0760    0.9550    1.7540 o         1 RYZ     -0.809000
     21 C3'        10.1710   -0.1920    2.7590 c3        1 RYZ      0.194000
     22 N3S        -0.6300    1.1530   -0.6980 nz        1 RYZ     -0.535000
     23 C4'        10.9250    0.2020    4.1360 c3        1 RYZ      0.415000
     24 HN'         6.6030    1.4310    1.3220 hn        1 RYZ      0.179000
     25 H2          4.5540   -1.7870    0.8320 ha        1 RYZ      0.211000
     26 H3          2.1790   -1.8060    1.4620 ha        1 RYZ      0.215000
     27 H5          3.8330    1.9470   -1.0070 hc        1 RYZ      0.230500
     28 H6          3.4630    0.7760   -2.3290 hc        1 RYZ      0.230500
     29 H1'         8.0390   -1.1490    1.3270 h1        1 RYZ      0.147500
     30 H1'A        8.6290    0.4130    0.5620 h1        1 RYZ      0.147500
     31 HN3S       -1.1360    1.9670   -0.3330 hn        1 RYZ      0.284000
     32 HN3A       -1.2840    0.6320   -1.2900 hn        1 RYZ      0.284000
     33 H'2         6.0690    0.0410    1.9840 hn        1 RYZ      0.179000
     34 H3S3        0.1260    1.5160   -1.3040 hn        1 RYZ      0.284000
     35 C7          5.7220   -0.1170   -0.9700 c1        1 RYZ      0.471000
@<TRIPOS>BOND
     1    1    7 1   
     2    1   18 1   
     3    1   20 1   
     4    1   22 1   
     5    2   17 1   
     6    2   24 1   
     7    2   33 1   
     8    3   35 1   
     9    4    6 1   
    10    4    8 1   
    11    4   35 1   
    12    5    6 1   
    13    5    7 1   
    14    5   26 1   
    15    6   25 1   
    16    7    9 1   
    17    8    9 1   
    18    8   27 1   
    19    8   28 1   
    20   10   19 1   
    21   11   21 1   
    22   12   23 1   
    23   13   19 1   
    24   14   21 1   
    25   15   23 1   
    26   16   23 1   
    27   17   19 1   
    28   17   29 1   
    29   17   30 1   
    30   19   21 1   
    31   21   23 1   
    32   22   31 1   
    33   22   32 1   
    34   22   34 1   
@<TRIPOS>SUBSTRUCTURE
     1 RYZ         1 TEMP              0 ****  ****    0 ROOT
