@<TRIPOS>MOLECULE
RYZ
   35    34     1     0     0
SMALL
bcc


@<TRIPOS>ATOM
      1 S           0.0310    0.1250    0.6640 s6        1 RYZ      2.804000
      2 N'          6.6320    0.4160    1.2520 n3        1 RYZ     -0.384000
      3 O'          6.7610   -0.1350   -1.4750 o         1 RYZ      0.145000
      4 C1          4.3630   -0.1320   -0.5560 c2        1 RYZ     -0.081000
      5 C2          2.4950   -1.0260    0.7380 c2        1 RYZ      0.172000
      6 C3          3.8960   -1.0350    0.3520 c2        1 RYZ     -0.026000
      7 C4          1.6420   -0.0840    0.2280 c2        1 RYZ     -0.900000
      8 C5          3.4630    0.8820   -1.1900 c3        1 RYZ     -0.185000
      9 C6          2.0910    0.8360   -0.7570 c1        1 RYZ     -0.065000
     10 F2'1        8.6470    1.7400    2.9300 f         1 RYZ     -0.127500
     11 F3'1       10.1670   -1.5440    2.5830 f         1 RYZ     -0.115500
     12 F4'1       12.2010   -0.2730    4.1610 f         1 RYZ     -0.117000
     13 F2'2        7.9540   -0.0980    3.8190 f         1 RYZ     -0.127500
     14 F3'2       10.8630    0.2850    1.6730 f         1 RYZ     -0.115500
     15 F4'2       10.2840   -0.2890    5.2240 f         1 RYZ     -0.117000
     16 F4'3       11.0080    1.5600    4.2960 f         1 RYZ     -0.117000
     17 C1'         8.0000   -0.0290    1.3900 c3        1 RYZ     -0.166000
     18 O1S        -0.6590   -1.0540    0.5170 o         1 RYZ     -0.809000
     19 C2'         8.6730    0.3790    2.7500 c3        1 RYZ      0.203000
     20 O2S        -0.0780    0.9540    1.7530 o         1 RYZ     -0.809000
     21 C3'        10.1740   -0.1860    2.7570 c3        1 RYZ      0.194000
     22 N3S        -0.6270    1.1620   -0.6990 n4        1 RYZ     -0.535000
     23 C4'        10.9290    0.2100    4.1330 c3        1 RYZ      0.415000
     24 HN'         6.5940    1.4200    1.3310 hn        1 RYZ      0.179000
     25 H2          4.5460   -1.7960    0.8300 ha        1 RYZ      0.211000
     26 H3          2.1700   -1.8110    1.4570 ha        1 RYZ      0.215000
     27 H5          3.8380    1.9440   -1.0000 hc        1 RYZ      0.230500
     28 H6          3.4670    0.7770   -2.3250 hc        1 RYZ      0.230500
     29 H1'         8.0450   -1.1530    1.3270 h1        1 RYZ      0.148000
     30 H1'A        8.6250    0.4140    0.5630 h1        1 RYZ      0.148000
     31 HN3S       -1.1310    1.9760   -0.3320 hn        1 RYZ      0.284000
     32 HN3A       -1.2820    0.6460   -1.2940 hn        1 RYZ      0.284000
     33 H'2         6.0690    0.0240    1.9880 hn        1 RYZ      0.179000
     34 H3S3        0.1300    1.5250   -1.3030 hn        1 RYZ      0.284000
     35 C7          5.7220   -0.1250   -0.9660 c1        1 RYZ      0.471000
@<TRIPOS>BOND
     1    1    7 1   
     2    1   18 1   
     3    1   20 1   
     4    1   22 1   
     5    2   17 1   
     6    2   24 1   
     7    2   33 1   
     8    3   35 1   
     9    4    6 1   
    10    4    8 1   
    11    4   35 1   
    12    5    6 1   
    13    5    7 1   
    14    5   26 1   
    15    6   25 1   
    16    7    9 1   
    17    8    9 1   
    18    8   27 1   
    19    8   28 1   
    20   10   19 1   
    21   11   21 1   
    22   12   23 1   
    23   13   19 1   
    24   14   21 1   
    25   15   23 1   
    26   16   23 1   
    27   17   19 1   
    28   17   29 1   
    29   17   30 1   
    30   19   21 1   
    31   21   23 1   
    32   22   31 1   
    33   22   32 1   
    34   22   34 1   
@<TRIPOS>SUBSTRUCTURE
     1 RYZ         1 TEMP              0 ****  ****    0 ROOT
