@<TRIPOS>MOLECULE
RYZ
   35    34     1     0     0
SMALL
bcc


@<TRIPOS>ATOM
      1 S       -1231.1830   36.0200 -638.6990 s6        1 RYZ      2.832000
      2 N'       1653.8960  -49.7010  857.2540 n3        1 RYZ     -0.187000
      3 O'      -1228.1710   39.1260 -643.7120 o         1 RYZ     -0.204000
      4 C1      -1228.7040   37.4510 -642.1230 c2        1 RYZ     -0.010000
      5 C2      -1228.8480   36.1900 -640.0590 c2        1 RYZ      0.217000
      6 C3      -1228.1040   36.6790 -641.1670 c2        1 RYZ     -0.199000
      7 C4      -1230.1990   36.4910 -639.9220 c2        1 RYZ     -1.000000
      8 C5      -1230.1420   37.7850 -642.0430 c3        1 RYZ     -0.196000
      9 C6      -1230.8480   37.2690 -640.8980 c1        1 RYZ     -0.145000
     10 F2'1     1653.4830  -47.3680  857.1450 f         1 RYZ     -0.076000
     11 F3'1     1651.0730  -50.0380  856.5580 f         1 RYZ     -0.097000
     12 F4'1     1650.9180  -46.4420  857.1320 f         1 RYZ     -0.102667
     13 F2'2     1653.2010  -48.4850  855.3130 f         1 RYZ     -0.076000
     14 F3'2     1651.3760  -48.9920  858.4270 f         1 RYZ     -0.097000
     15 F4'2     1649.2560  -47.8400  856.7940 f         1 RYZ     -0.102667
     16 F4'3     1650.7070  -47.4490  855.1910 f         1 RYZ     -0.102667
     17 C1'      1654.7160  -50.4380  856.5740 c2        1 RYZ      0.145000
     18 O1S     -1231.4760   34.6720 -638.7200 o         1 RYZ     -0.855500
     19 C2'      1653.0470  -48.5760  856.6710 c3        1 RYZ      0.301000
     20 O2S     -1230.9240   36.6620 -637.5060 o         1 RYZ     -0.855500
     21 C3'      1651.4830  -48.8460  857.0750 c3        1 RYZ      0.204000
     22 N3S     -1232.7760   36.7780 -639.2170 n4        1 RYZ     -0.552000
     23 C4'      1650.5690  -47.6130  856.5350 c3        1 RYZ      0.432000
     24 HN'     -1227.1330   37.3440 -643.6740 h4        1 RYZ      0.149000
     25 H2      -1227.0300   36.4270 -641.2270 ha        1 RYZ      0.185000
     26 H3      -1228.3180   35.5640 -639.3130 ha        1 RYZ      0.174000
     27 H5      -1230.2590   38.9200 -642.0750 hc        1 RYZ      0.222500
     28 H6      -1230.6810   37.4400 -642.9850 hc        1 RYZ      0.222500
     29 H1'      1654.8590  -50.2840  855.4770 h4        1 RYZ      0.224500
     30 H1'A     1655.2940  -51.2530  857.0730 h4        1 RYZ      0.224500
     31 HN3S    -1233.1220   37.4540 -638.5420 hn        1 RYZ      0.275000
     32 HN3A    -1233.5040   36.0840 -639.3720 hn        1 RYZ      0.275000
     33 H'2      1653.7610  -49.8130  858.2530 hn        1 RYZ      0.310000
     34 H3S3    -1232.5880   37.2790 -640.1320 hn        1 RYZ      0.275000
     35 C7      -1227.9280   38.0080 -643.2680 c2        1 RYZ      0.188000
@<TRIPOS>BOND
     1    1    7 1   
     2    1   18 1   
     3    1   20 1   
     4    1   22 1   
     5    2   17 1   
     6    2   19 1   
     7    2   33 1   
     8    3   35 1   
     9    4    6 1   
    10    4    8 1   
    11    4   35 1   
    12    5    6 1   
    13    5    7 1   
    14    5   26 1   
    15    6   25 1   
    16    7    9 1   
    17    8    9 1   
    18    8   27 1   
    19    8   28 1   
    20   10   19 1   
    21   11   21 1   
    22   12   23 1   
    23   13   19 1   
    24   14   21 1   
    25   15   23 1   
    26   16   23 1   
    27   17   29 1   
    28   17   30 1   
    29   19   21 1   
    30   21   23 1   
    31   22   31 1   
    32   22   32 1   
    33   22   34 1   
    34   24   35 1   
@<TRIPOS>SUBSTRUCTURE
     1 RYZ         1 TEMP              0 ****  ****    0 ROOT
