@<TRIPOS>MOLECULE
RYZ
   33    33     1     0     0
SMALL
bcc


@<TRIPOS>ATOM
      1 S          -6.1680   -0.5250   -0.1520 sy        1 RYZ      1.524200
      2 N'          0.4410    0.8300   -0.5580 n         1 RYZ     -0.565900
      3 O'         -0.1460    2.1030    1.2580 o         1 RYZ     -0.573100
      4 C1         -1.8850    0.8140    0.2260 ca        1 RYZ     -0.084600
      5 C2         -3.5040   -0.9410   -0.1110 ca        1 RYZ     -0.026000
      6 C3         -2.1760   -0.5340   -0.0050 ca        1 RYZ     -0.118500
      7 C4         -4.5500   -0.0210    0.0080 ca        1 RYZ     -0.354500
      8 C5         -2.9200    1.7460    0.3500 ca        1 RYZ     -0.118500
      9 C6         -4.2430    1.3240    0.2350 ca        1 RYZ     -0.026000
     10 F2'1        2.4410   -0.5970    1.1500 f         1 RYZ     -0.207300
     11 F3'1        4.5990    0.7960   -1.4160 f         1 RYZ     -0.192300
     12 F4'1        6.5670   -0.4290    0.1970 f         1 RYZ     -0.206300
     13 F2'2        2.5450   -1.1610   -0.9240 f         1 RYZ     -0.207300
     14 F3'2        4.4580    1.5220    0.6110 f         1 RYZ     -0.192300
     15 F4'2        5.0870   -1.9340   -0.3590 f         1 RYZ     -0.206300
     16 F4'3        5.0860   -1.0890    1.6580 f         1 RYZ     -0.206300
     17 C1'         1.8260    1.1430   -0.4800 c3        1 RYZ      0.065000
     18 O1S        -6.9210    0.5740   -0.6100 o         1 RYZ     -0.653300
     19 C2'         2.7300   -0.0850   -0.0880 c3        1 RYZ      0.351600
     20 O2S        -6.1780   -1.7050   -0.9240 o         1 RYZ     -0.653300
     21 C3'         4.2610    0.4000   -0.1490 c3        1 RYZ      0.335600
     22 N3S        -6.5880   -0.8700    1.3510 n3        1 RYZ     -1.027700
     23 C4'         5.2540   -0.7750    0.3420 c3        1 RYZ      0.603900
     24 HN'         0.1610    0.1480   -1.2230 hn        1 RYZ      0.327500
     25 H2         -3.7360   -2.0030   -0.3120 ha        1 RYZ      0.160500
     26 H3         -1.3700   -1.2790   -0.0890 ha        1 RYZ      0.154500
     27 H5         -2.6830    2.8040    0.5460 ha        1 RYZ      0.154500
     28 H6         -5.0610    2.0630    0.3080 ha        1 RYZ      0.160500
     29 H1'         2.1960    1.4910   -1.4870 h1        1 RYZ      0.103200
     30 H1'A        2.0020    1.9460    0.2940 h1        1 RYZ      0.103200
     31 HN3S       -6.9950   -0.2150    1.9710 hn        1 RYZ      0.450800
     32 HN3A       -6.4930   -1.7680    1.7550 hn        1 RYZ      0.450800
     33 C7         -0.4790    1.2930    0.3740 c         1 RYZ      0.671700
@<TRIPOS>BOND
     1    1    7 1   
     2    1   18 2   
     3    1   20 2   
     4    1   22 1   
     5    2   17 1   
     6    2   24 1   
     7    2   33 1   
     8    3   33 2   
     9    4    6 ar  
    10    4    8 ar  
    11    4   33 1   
    12    5    6 ar  
    13    5    7 ar  
    14    5   25 1   
    15    6   26 1   
    16    7    9 ar  
    17    8    9 ar  
    18    8   27 1   
    19    9   28 1   
    20   10   19 1   
    21   11   21 1   
    22   12   23 1   
    23   13   19 1   
    24   14   21 1   
    25   15   23 1   
    26   16   23 1   
    27   17   19 1   
    28   17   29 1   
    29   17   30 1   
    30   19   21 1   
    31   21   23 1   
    32   22   31 1   
    33   22   32 1   
@<TRIPOS>SUBSTRUCTURE
     1 RYZ         1 TEMP              0 ****  ****    0 ROOT
