@<TRIPOS>MOLECULE
RZ0
   35    34     1     0     0
SMALL
bcc


@<TRIPOS>ATOM
      1 S        -503.8170   57.3460 -216.4700 s6        1 RZ0      2.833000
      2 N'        683.6260  -75.7180  291.4290 n3        1 RZ0     -0.391000
      3 O'       -497.7660   54.9660 -218.1570 o         1 RZ0     -0.190000
      4 C1       -500.0310   55.6890 -218.1570 c2        1 RZ0     -0.024000
      5 C2       -501.4710   56.0210 -216.2340 c2        1 RZ0      0.218000
      6 C3       -500.2880   55.5050 -216.8260 c2        1 RZ0     -0.180000
      7 C4       -502.4010   56.7180 -217.0000 c2        1 RZ0     -1.002000
      8 C5       -500.9710   56.4390 -219.0170 c3        1 RZ0     -0.194000
      9 C6       -502.1570   56.9430 -218.3660 c1        1 RZ0     -0.145000
     10 C1'       682.9840  -75.1760  292.5830 c3        1 RZ0     -0.125000
     11 O1S      -504.8090   56.4030 -216.2940 o         1 RZ0     -0.854000
     12 C2'       681.5190  -75.0800  292.4350 c2        1 RZ0      0.282000
     13 O2S      -503.6570   58.3710 -215.5620 o         1 RZ0     -0.854000
     14 C3'       680.7030  -74.3430  293.3720 c3        1 RZ0     -0.263000
     15 N3S      -504.3980   58.2380 -217.9740 n4        1 RZ0     -0.548000
     16 C4'       679.2810  -74.8450  293.4870 c3        1 RZ0     -0.229000
     17 HN'      -498.9040   54.8830 -219.8700 h4        1 RZ0      0.136000
     18 H2       -499.5670   54.9580 -216.1880 ha        1 RZ0      0.202000
     19 H3       -501.6250   55.8550 -215.1480 ha        1 RZ0      0.176000
     20 H5       -500.4330   57.3180 -219.5020 hc        1 RZ0      0.209500
     21 H6       -501.2990   55.7920 -219.8940 hc        1 RZ0      0.209500
     22 H1'       684.3020  -75.1080  291.0210 hn        1 RZ0      0.212000
     23 H1'A      683.1370  -75.8160  293.5220 h1        1 RZ0      0.176500
     24 H2'       683.3860  -74.1480  292.8650 h1        1 RZ0      0.176500
     25 H2'A      681.0230  -75.5940  291.5780 ha        1 RZ0      0.203000
     26 HN3S     -504.4450   59.2450 -217.8330 hn        1 RZ0      0.274000
     27 HN3A     -505.3140   57.9180 -218.2800 hn        1 RZ0      0.274000
     28 H4'       678.7860  -74.9000  292.4870 hc        1 RZ0      0.119000
     29 H4'A      678.6920  -74.1470  294.1340 hc        1 RZ0      0.119000
     30 H14       679.2580  -75.8580  293.9590 hc        1 RZ0      0.119000
     31 H3'       681.1820  -74.2530  294.3910 hc        1 RZ0      0.195500
     32 H16       680.6770  -73.2720  292.9620 hc        1 RZ0      0.195500
     33 H'2       683.9770  -76.6430  291.5550 hn        1 RZ0      0.212000
     34 H3S3     -503.7010   58.0370 -218.7390 hn        1 RZ0      0.274000
     35 C7       -498.8020   55.1310 -218.7910 c2        1 RZ0      0.183000
@<TRIPOS>BOND
     1    1    7 1   
     2    1   11 1   
     3    1   13 1   
     4    1   15 1   
     5    2   10 1   
     6    2   22 1   
     7    2   33 1   
     8    3   35 1   
     9    4    6 1   
    10    4    8 1   
    11    4   35 1   
    12    5    6 1   
    13    5    7 1   
    14    5   19 1   
    15    6   18 1   
    16    7    9 1   
    17    8    9 1   
    18    8   20 1   
    19    8   21 1   
    20   10   12 1   
    21   10   23 1   
    22   10   24 1   
    23   12   14 1   
    24   12   25 1   
    25   14   16 1   
    26   14   31 1   
    27   14   32 1   
    28   15   26 1   
    29   15   27 1   
    30   15   34 1   
    31   16   28 1   
    32   16   29 1   
    33   16   30 1   
    34   17   35 1   
@<TRIPOS>SUBSTRUCTURE
     1 RZ0         1 TEMP              0 ****  ****    0 ROOT
