@<TRIPOS>MOLECULE
RZ0
   33    33     1     0     0
SMALL
bcc


@<TRIPOS>ATOM
      1 S          -4.0100   -0.3920   -0.1650 sy        1 RZ0      1.525200
      2 N'          2.6950    0.3470   -0.5030 n         1 RZ0     -0.563900
      3 O'          2.1870    1.7560    1.2390 o         1 RZ0     -0.594100
      4 C1          0.3680    0.5750    0.2290 ca        1 RZ0     -0.077600
      5 C2         -1.4010   -1.0450   -0.0310 ca        1 RZ0     -0.026000
      6 C3         -0.0440   -0.7530    0.0810 ca        1 RZ0     -0.122500
      7 C4         -2.3610   -0.0280   -0.0000 ca        1 RZ0     -0.363500
      8 C5         -0.5800    1.6030    0.2630 ca        1 RZ0     -0.122500
      9 C6         -1.9340    1.2970    0.1430 ca        1 RZ0     -0.026000
     10 C1'         4.1170    0.5440   -0.4280 c3        1 RZ0      0.085000
     11 O1S        -4.6520    0.7250   -0.7390 o         1 RZ0     -0.655300
     12 C2'         4.9090   -0.7170   -0.0760 c3        1 RZ0     -0.104400
     13 O2S        -4.1200   -1.6310   -0.8310 o         1 RZ0     -0.655300
     14 C3'         6.3910   -0.4110   -0.0720 c3        1 RZ0     -0.078400
     15 N3S        -4.4970   -0.5600    1.3500 n3        1 RZ0     -1.026700
     16 C4'         7.2030   -1.6330    0.2720 c3        1 RZ0     -0.093100
     17 HN'         2.3640   -0.3520   -1.1240 hn        1 RZ0      0.311500
     18 H2         -1.7270   -2.0920   -0.1650 ha        1 RZ0      0.157000
     19 H3          0.6920   -1.5710    0.0650 ha        1 RZ0      0.152000
     20 H5         -0.2480    2.6450    0.3940 ha        1 RZ0      0.152000
     21 H6         -2.6800    2.1110    0.1450 ha        1 RZ0      0.157000
     22 H1'         4.4690    0.9220   -1.4320 h1        1 RZ0      0.064200
     23 H1'A        4.3330    1.3420    0.3400 h1        1 RZ0      0.064200
     24 H2'         4.6000   -1.0950    0.9340 hc        1 RZ0      0.044700
     25 H2'A        4.6950   -1.5300   -0.8180 hc        1 RZ0      0.044700
     26 HN3S       -4.8540    0.1820    1.8970 hn        1 RZ0      0.449800
     27 HN3A       -4.4930   -1.4230    1.8340 hn        1 RZ0      0.449800
     28 H4'         8.2920   -1.3870    0.2700 hc        1 RZ0      0.035033
     29 H4'A        6.9290   -2.0170    1.2840 hc        1 RZ0      0.035033
     30 H14         7.0240   -2.4480   -0.4710 hc        1 RZ0      0.035033
     31 H3'         6.6980   -0.0270   -1.0810 hc        1 RZ0      0.043200
     32 H16         6.6030    0.4030    0.6710 hc        1 RZ0      0.043200
     33 C7          1.8130    0.9320    0.3800 c         1 RZ0      0.661700
@<TRIPOS>BOND
     1    1    7 1   
     2    1   11 2   
     3    1   13 2   
     4    1   15 1   
     5    2   10 1   
     6    2   17 1   
     7    2   33 1   
     8    3   33 2   
     9    4    6 ar  
    10    4    8 ar  
    11    4   33 1   
    12    5    6 ar  
    13    5    7 ar  
    14    5   18 1   
    15    6   19 1   
    16    7    9 ar  
    17    8    9 ar  
    18    8   20 1   
    19    9   21 1   
    20   10   12 1   
    21   10   22 1   
    22   10   23 1   
    23   12   14 1   
    24   12   24 1   
    25   12   25 1   
    26   14   16 1   
    27   14   31 1   
    28   14   32 1   
    29   15   26 1   
    30   15   27 1   
    31   16   28 1   
    32   16   29 1   
    33   16   30 1   
@<TRIPOS>SUBSTRUCTURE
     1 RZ0         1 TEMP              0 ****  ****    0 ROOT
