@<TRIPOS>MOLECULE
RZ0
   35    34     1     0     0
SMALL
bcc


@<TRIPOS>ATOM
      1 S        -336.4070    8.9860 -122.6990 s6        1 RZ0      2.833000
      2 N'        456.5900  -12.7200  166.1340 n8        1 RZ0     -0.388000
      3 O'       -330.4310   11.4890 -124.4710 o         1 RZ0     -0.190000
      4 C1       -332.7500   10.9920 -124.2940 c2        1 RZ0     -0.024000
      5 C2       -333.7380    9.4200 -122.7310 c2        1 RZ0      0.218000
      6 C3       -332.6080   10.0890 -123.2770 c2        1 RZ0     -0.180000
      7 C4       -335.0140    9.6720 -123.2220 c2        1 RZ0     -1.002000
      8 C5       -334.0810   11.3000 -124.8580 c3        1 RZ0     -0.194000
      9 C6       -335.1950   10.5940 -124.2690 c1        1 RZ0     -0.145000
     10 C1'       457.8080  -12.4170  166.8190 c3        1 RZ0     -0.040000
     11 O1S      -336.5280    7.6560 -123.0440 o         1 RZ0     -0.854500
     12 C2'       458.3460  -13.6720  167.5460 c3        1 RZ0     -0.293000
     13 O2S      -336.8030    9.4270 -121.4540 o         1 RZ0     -0.854500
     14 C3'       459.7010  -13.5600  168.0040 c2        1 RZ0      0.290000
     15 N3S      -337.6390    9.7900 -123.8080 nz        1 RZ0     -0.548000
     16 C4'       460.2820  -14.4480  168.9790 c3        1 RZ0     -0.333000
     17 HN'      -331.8070   12.4210 -125.6850 h4        1 RZ0      0.136000
     18 H2       -331.6030    9.8670 -122.8640 ha        1 RZ0      0.202000
     19 H3       -333.5660    8.6970 -121.9080 ha        1 RZ0      0.176000
     20 H5       -334.2880   12.4160 -124.7760 hc        1 RZ0      0.209500
     21 H6       -334.0850   11.0940 -125.9780 hc        1 RZ0      0.209500
     22 H1'       455.7740  -12.4280  166.6270 hn        1 RZ0      0.194500
     23 H1'A      458.5960  -12.0680  166.0930 h1        1 RZ0      0.092500
     24 H2'       457.6780  -11.6160  167.6030 h1        1 RZ0      0.092500
     25 H2'A      458.3180  -14.5610  166.8170 hc        1 RZ0      0.220000
     26 HN3S     -338.3280   10.3310 -123.2900 hn        1 RZ0      0.274000
     27 HN3A     -338.1340    9.1170 -124.3870 hn        1 RZ0      0.274000
     28 H4'       457.6380  -13.9980  168.3680 hc        1 RZ0      0.220000
     29 H4'A      459.6110  -15.2890  169.2940 hc        1 RZ0      0.189667
     30 H14       461.2630  -14.8710  168.6040 hc        1 RZ0      0.189667
     31 H3'       460.5650  -13.8520  169.9040 hc        1 RZ0      0.189667
     32 H16       460.3440  -12.7530  167.5830 ha        1 RZ0      0.181000
     33 H'2       456.5810  -12.4080  165.1870 hn        1 RZ0      0.194500
     34 H3S3     -337.1010   10.4450 -124.4380 hn        1 RZ0      0.274000
     35 C7       -331.5700   11.6990 -124.8730 c2        1 RZ0      0.183000
@<TRIPOS>BOND
     1    1    7 1   
     2    1   11 1   
     3    1   13 1   
     4    1   15 1   
     5    2   10 1   
     6    2   22 1   
     7    2   33 1   
     8    3   35 1   
     9    4    6 1   
    10    4    8 1   
    11    4   35 1   
    12    5    6 1   
    13    5    7 1   
    14    5   19 1   
    15    6   18 1   
    16    7    9 1   
    17    8    9 1   
    18    8   20 1   
    19    8   21 1   
    20   10   12 1   
    21   10   23 1   
    22   10   24 1   
    23   12   14 1   
    24   12   25 1   
    25   12   28 1   
    26   14   16 1   
    27   14   32 1   
    28   15   26 1   
    29   15   27 1   
    30   15   34 1   
    31   16   29 1   
    32   16   30 1   
    33   16   31 1   
    34   17   35 1   
@<TRIPOS>SUBSTRUCTURE
     1 RZ0         1 TEMP              0 ****  ****    0 ROOT
