@<TRIPOS>MOLECULE
RZ0
   35    34     1     0     0
SMALL
bcc


@<TRIPOS>ATOM
      1 S       -1112.3480   42.2400 -293.0280 s6        1 RZ0      2.832000
      2 N'       1492.8740  -56.0320  394.4310 n3        1 RZ0     -0.388000
      3 O'      -1110.1110   45.4810 -298.3500 o         1 RZ0     -0.204000
      4 C1      -1110.1760   43.9870 -296.5130 c2        1 RZ0     -0.010000
      5 C2      -1110.0940   43.0890 -294.2640 c2        1 RZ0      0.217000
      6 C3      -1109.4550   43.6560 -295.4000 c2        1 RZ0     -0.199000
      7 C4      -1111.4660   42.8650 -294.2590 c2        1 RZ0     -1.000000
      8 C5      -1111.6340   43.7500 -296.5760 c3        1 RZ0     -0.196000
      9 C6      -1112.2330   43.1790 -295.3970 c1        1 RZ0     -0.145000
     10 C1'      1494.1700  -56.4590  394.8550 c3        1 RZ0     -0.040000
     11 O1S     -1112.1180   40.8960 -292.8160 o         1 RZ0     -0.855500
     12 C2'      1494.0580  -57.4010  396.0770 c3        1 RZ0     -0.293000
     13 O2S     -1112.4910   43.1020 -291.9610 o         1 RZ0     -0.855500
     14 C3'      1495.2950  -57.6390  396.7620 c2        1 RZ0      0.290000
     15 N3S     -1114.0330   42.2400 -293.7640 n4        1 RZ0     -0.552000
     16 C4'      1495.4890  -58.7240  397.6900 c3        1 RZ0     -0.333000
     17 HN'     -1108.5020   44.2630 -297.9280 h4        1 RZ0      0.149000
     18 H2      -1108.3640   43.8310 -295.3530 ha        1 RZ0      0.185000
     19 H3      -1109.4650   42.8340 -293.3870 ha        1 RZ0      0.174000
     20 H5      -1112.1580   44.7350 -296.8230 hc        1 RZ0      0.222500
     21 H6      -1111.8900   43.0880 -297.4670 hc        1 RZ0      0.222500
     22 H1'      1492.8060  -55.0470  394.2970 hn        1 RZ0      0.194500
     23 H1'A     1494.7250  -57.0290  394.0530 h1        1 RZ0      0.092500
     24 H2'      1494.8030  -55.5740  395.1520 h1        1 RZ0      0.092500
     25 H2'A     1493.5260  -58.3620  395.7980 hc        1 RZ0      0.220000
     26 HN3S    -1114.6830   42.8250 -293.2440 hn        1 RZ0      0.275000
     27 HN3A    -1114.4290   41.3060 -293.8280 hn        1 RZ0      0.275000
     28 H4'      1493.3430  -56.9270  396.8430 hc        1 RZ0      0.220000
     29 H4'A     1494.5650  -59.3240  397.8990 hc        1 RZ0      0.189667
     30 H14      1496.2840  -59.4260  397.2830 hc        1 RZ0      0.189667
     31 H3'      1495.9180  -58.3470  398.6670 hc        1 RZ0      0.189667
     32 H16      1496.1510  -56.9490  396.5790 ha        1 RZ0      0.181000
     33 H'2      1492.5280  -56.5360  393.6440 hn        1 RZ0      0.194500
     34 H3S3    -1113.9340   42.6330 -294.7430 hn        1 RZ0      0.275000
     35 C7      -1109.5280   44.6220 -297.6970 c2        1 RZ0      0.188000
@<TRIPOS>BOND
     1    1    7 1   
     2    1   11 1   
     3    1   13 1   
     4    1   15 1   
     5    2   10 1   
     6    2   22 1   
     7    2   33 1   
     8    3   35 1   
     9    4    6 1   
    10    4    8 1   
    11    4   35 1   
    12    5    6 1   
    13    5    7 1   
    14    5   19 1   
    15    6   18 1   
    16    7    9 1   
    17    8    9 1   
    18    8   20 1   
    19    8   21 1   
    20   10   12 1   
    21   10   23 1   
    22   10   24 1   
    23   12   14 1   
    24   12   25 1   
    25   12   28 1   
    26   14   16 1   
    27   14   32 1   
    28   15   26 1   
    29   15   27 1   
    30   15   34 1   
    31   16   29 1   
    32   16   30 1   
    33   16   31 1   
    34   17   35 1   
@<TRIPOS>SUBSTRUCTURE
     1 RZ0         1 TEMP              0 ****  ****    0 ROOT
