@<TRIPOS>MOLECULE
RZ1
   38    37     1     0     0
SMALL
bcc


@<TRIPOS>ATOM
      1 S          -0.8870    1.0910   -0.9500 s6        1 RZ1      2.818000
      2 N'          7.8190   -0.4070    2.9150 n8        1 RZ1     -0.107000
      3 O'          5.2470   -0.5680    1.3000 o         1 RZ1     -0.340000
      4 C1          3.2390   -0.3680    0.0130 c2        1 RZ1     -0.088000
      5 C2          1.0620    0.5190    0.8590 c2        1 RZ1      0.189000
      6 C3          2.4160    0.0380    1.1750 c3        1 RZ1     -0.193000
      7 C4          0.6030    0.5720   -0.4300 c2        1 RZ1     -0.950000
      8 C5          2.7500   -0.3110   -1.2570 c2        1 RZ1     -0.107000
      9 C6          1.4280    0.1470   -1.5060 c1        1 RZ1     -0.112000
     10 F2'1        9.5310    0.7920    4.9020 f         1 RZ1     -0.079500
     11 F3'1       11.4400   -1.1390    2.4860 f         1 RZ1     -0.112500
     12 F4'1       11.9280    1.9680    4.3030 f         1 RZ1     -0.090000
     13 F5'1       14.0570   -0.2540    2.3620 f         1 RZ1     -0.111333
     14 F2'2       10.4350   -1.1510    5.2350 f         1 RZ1     -0.079500
     15 F3'2       10.4860    0.7710    2.1550 f         1 RZ1     -0.112500
     16 F4'2       12.7740    0.0620    4.8880 f         1 RZ1     -0.090000
     17 F5'2       14.4920    1.7460    3.1600 f         1 RZ1     -0.111333
     18 F5'3       13.0210    1.4990    1.5500 f         1 RZ1     -0.111333
     19 C1'         8.7740   -1.0480    3.5070 c2        1 RZ1      0.078000
     20 O1S        -1.8960    0.2520   -0.5320 o         1 RZ1     -0.838000
     21 C2'         9.9480   -0.3390    4.2530 c3        1 RZ1      0.237000
     22 O2S        -1.0040    2.4620   -0.8910 o         1 RZ1     -0.838000
     23 C3'        11.0710    0.0070    3.1320 c3        1 RZ1      0.189000
     24 N3S        -0.7990    0.7660   -2.7480 nz        1 RZ1     -0.549000
     25 C4'        12.3250    0.7600    3.8060 c3        1 RZ1      0.218000
     26 C5'        13.5000    0.9410    2.6990 c3        1 RZ1      0.419000
     27 HN'         5.0650   -1.4690   -0.5390 h4        1 RZ1      0.148000
     28 H2          2.3250   -0.8330    1.9000 hc        1 RZ1      0.200000
     29 H3          0.4380    0.8260    1.7250 ha        1 RZ1      0.182000
     30 H5          2.9670    0.8450    1.7560 hc        1 RZ1      0.200000
     31 H6          3.3570   -0.6140   -2.1310 ha        1 RZ1      0.188000
     32 H1'         8.8280   -2.1670    3.5010 h4        1 RZ1      0.247000
     33 H1'A        7.7740    0.6040    2.9220 hn        1 RZ1      0.306000
     34 HN3S       -0.9350    1.6130   -3.3010 hn        1 RZ1      0.281667
     35 HN3A       -1.4880    0.0800   -3.0540 hn        1 RZ1      0.281667
     36 H'2         7.0720   -0.8770    2.4130 hn        1 RZ1      0.306000
     37 H3S3        0.1620    0.3870   -2.9610 hn        1 RZ1      0.281667
     38 C7          4.6210   -0.8440    0.2710 c2        1 RZ1      0.249000
@<TRIPOS>BOND
     1    1    7 1   
     2    1   20 1   
     3    1   22 1   
     4    1   24 1   
     5    2   19 1   
     6    2   33 1   
     7    2   36 1   
     8    3   38 1   
     9    4    6 1   
    10    4    8 1   
    11    4   38 1   
    12    5    6 1   
    13    5    7 1   
    14    5   29 1   
    15    6   28 1   
    16    6   30 1   
    17    7    9 1   
    18    8    9 1   
    19    8   31 1   
    20   10   21 1   
    21   11   23 1   
    22   12   25 1   
    23   13   26 1   
    24   14   21 1   
    25   15   23 1   
    26   16   25 1   
    27   17   26 1   
    28   18   26 1   
    29   19   21 1   
    30   19   32 1   
    31   21   23 1   
    32   23   25 1   
    33   24   34 1   
    34   24   35 1   
    35   24   37 1   
    36   25   26 1   
    37   27   38 1   
@<TRIPOS>SUBSTRUCTURE
     1 RZ1         1 TEMP              0 ****  ****    0 ROOT
