@<TRIPOS>MOLECULE
RZ1
   36    36     1     0     0
SMALL
bcc


@<TRIPOS>ATOM
      1 S          -7.0110   -0.5440   -0.1920 sy        1 RZ1      1.524200
      2 N'         -0.4110    0.8770   -0.5160 n         1 RZ1     -0.565900
      3 O'         -1.0100    2.0530    1.3610 o         1 RZ1     -0.572100
      4 C1         -2.7380    0.8050    0.2620 ca        1 RZ1     -0.084600
      5 C2         -4.3440   -0.9420   -0.1670 ca        1 RZ1     -0.026000
      6 C3         -3.0190   -0.5310   -0.0380 ca        1 RZ1     -0.118500
      7 C4         -5.3980   -0.0370   -0.0030 ca        1 RZ1     -0.354500
      8 C5         -3.7810    1.7220    0.4300 ca        1 RZ1     -0.118500
      9 C6         -5.1000    1.2970    0.2920 ca        1 RZ1     -0.026000
     10 F2'1        1.6070   -0.6040    1.1330 f         1 RZ1     -0.207300
     11 F3'1        3.7430    0.8600   -1.4070 f         1 RZ1     -0.192300
     12 F4'1        4.2630   -0.9360    1.6970 f         1 RZ1     -0.179300
     13 F5'1        6.2080   -0.3660   -1.3140 f         1 RZ1     -0.204633
     14 F2'2        1.6990   -1.0830   -0.9630 f         1 RZ1     -0.207300
     15 F3'2        3.5930    1.5810    0.6200 f         1 RZ1     -0.192300
     16 F4'2        4.0990   -1.9090   -0.2240 f         1 RZ1     -0.179300
     17 F5'2        6.8250   -1.1520    0.6280 f         1 RZ1     -0.204633
     18 F5'3        6.2580    0.9480    0.4340 f         1 RZ1     -0.204633
     19 C1'         0.9710    1.1970   -0.4210 c3        1 RZ1      0.065000
     20 O1S        -7.7710    0.5720   -0.5970 o         1 RZ1     -0.653300
     21 C2'         1.8830   -0.0410   -0.0860 c3        1 RZ1      0.354600
     22 O2S        -7.0110   -1.6830   -1.0220 o         1 RZ1     -0.653300
     23 C3'         3.4150    0.4550   -0.1400 c3        1 RZ1      0.335600
     24 N3S        -7.4320   -0.9650    1.2910 n3        1 RZ1     -1.027700
     25 C4'         4.4050   -0.7090    0.3560 c3        1 RZ1      0.347600
     26 C5'         5.9360   -0.3120    0.0220 c3        1 RZ1      0.603900
     27 HN'        -0.6860    0.2280   -1.2150 hn        1 RZ1      0.327500
     28 H2         -4.5680   -1.9940   -0.4210 ha        1 RZ1      0.160500
     29 H3         -2.2080   -1.2660   -0.1570 ha        1 RZ1      0.154500
     30 H5         -3.5510    2.7710    0.6790 ha        1 RZ1      0.154500
     31 H6         -5.9240    2.0260    0.4000 ha        1 RZ1      0.160500
     32 H1'         1.3400    1.5950   -1.4090 h1        1 RZ1      0.103700
     33 H1'A        1.1390    1.9640    0.3900 h1        1 RZ1      0.103700
     34 HN3S       -7.3310   -1.8810    1.6510 hn        1 RZ1      0.450800
     35 HN3A       -7.8450   -0.3440    1.9420 hn        1 RZ1      0.450800
     36 C7         -1.3360    1.2860    0.4370 c         1 RZ1      0.671700
@<TRIPOS>BOND
     1    1    7 1   
     2    1   20 2   
     3    1   22 2   
     4    1   24 1   
     5    2   19 1   
     6    2   27 1   
     7    2   36 1   
     8    3   36 2   
     9    4    6 ar  
    10    4    8 ar  
    11    4   36 1   
    12    5    6 ar  
    13    5    7 ar  
    14    5   28 1   
    15    6   29 1   
    16    7    9 ar  
    17    8    9 ar  
    18    8   30 1   
    19    9   31 1   
    20   10   21 1   
    21   11   23 1   
    22   12   25 1   
    23   13   26 1   
    24   14   21 1   
    25   15   23 1   
    26   16   25 1   
    27   17   26 1   
    28   18   26 1   
    29   19   21 1   
    30   19   32 1   
    31   19   33 1   
    32   21   23 1   
    33   23   25 1   
    34   24   34 1   
    35   24   35 1   
    36   25   26 1   
@<TRIPOS>SUBSTRUCTURE
     1 RZ1         1 TEMP              0 ****  ****    0 ROOT
