@<TRIPOS>MOLECULE
RZ1
   38    37     1     0     0
SMALL
bcc


@<TRIPOS>ATOM
      1 S          -0.8710    1.1640   -0.6360 s6        1 RZ1      2.823000
      2 N'          7.8680   -0.7160    2.8090 n3        1 RZ1     -0.105000
      3 O'          5.3880   -0.7240    1.1050 o         1 RZ1     -0.328000
      4 C1          3.3040   -0.3510   -0.0140 c2        1 RZ1     -0.072000
      5 C2          1.3020    0.6840    0.9030 c2        1 RZ1      0.209000
      6 C3          2.6370    0.1800    1.0480 c2        1 RZ1     -0.146000
      7 C4          0.6630    0.6380   -0.3210 c2        1 RZ1     -0.970000
      8 C5          2.6710   -0.4170   -1.3530 c3        1 RZ1     -0.193000
      9 C6          1.3280    0.1050   -1.4470 c1        1 RZ1     -0.118000
     10 F2'1        9.3870    0.4580    4.9600 f         1 RZ1     -0.080000
     11 F3'1       11.5520   -1.1460    2.5200 f         1 RZ1     -0.112500
     12 F4'1       11.7120    1.8470    4.5730 f         1 RZ1     -0.090000
     13 F5'1       14.0950   -0.0630    2.5950 f         1 RZ1     -0.111333
     14 F2'2       10.4210   -1.4330    5.2040 f         1 RZ1     -0.080000
     15 F3'2       10.4700    0.7080    2.2730 f         1 RZ1     -0.112500
     16 F4'2       12.6740   -0.0300    5.0670 f         1 RZ1     -0.090000
     17 F5'2       14.3370    1.8970    3.5550 f         1 RZ1     -0.111333
     18 F5'3       12.9670    1.6660    1.8570 f         1 RZ1     -0.111333
     19 C1'         8.8410   -1.3260    3.4020 c2        1 RZ1      0.078000
     20 O1S        -1.8310    0.3320   -0.1070 o         1 RZ1     -0.838000
     21 C2'         9.9200   -0.5890    4.2560 c3        1 RZ1      0.237000
     22 O2S        -0.9770    2.5350   -0.5670 o         1 RZ1     -0.838000
     23 C3'        11.0650   -0.0810    3.2230 c3        1 RZ1      0.189000
     24 N3S        -1.0300    0.8470   -2.4420 n4        1 RZ1     -0.538000
     25 C4'        12.2240    0.7110    4.0140 c3        1 RZ1      0.218000
     26 C5'        13.4320    1.0600    2.9860 c3        1 RZ1      0.419000
     27 HN'         5.0290   -1.4980   -0.7620 h4        1 RZ1      0.142000
     28 H2          3.1070    0.2320    2.0480 ha        1 RZ1      0.186000
     29 H3          0.8140    1.1090    1.8050 ha        1 RZ1      0.184000
     30 H5          2.6470   -1.4930   -1.7260 hc        1 RZ1      0.211000
     31 H6          3.3090    0.1330   -2.1180 hc        1 RZ1      0.211000
     32 H1'         7.1840   -1.2010    2.2360 hn        1 RZ1      0.306000
     33 H1'A        8.9830   -2.4340    3.3190 h4        1 RZ1      0.248000
     34 HN3S       -1.1920    1.7070   -2.9660 hn        1 RZ1      0.278000
     35 HN3A       -1.8000    0.2090   -2.6470 hn        1 RZ1      0.278000
     36 H'2         7.7410    0.2850    2.8840 hn        1 RZ1      0.306000
     37 H3S3       -0.1490    0.4130   -2.7950 hn        1 RZ1      0.278000
     38 C7          4.6760   -0.9030    0.1120 c2        1 RZ1      0.246000
@<TRIPOS>BOND
     1    1    7 1   
     2    1   20 1   
     3    1   22 1   
     4    1   24 1   
     5    2   19 1   
     6    2   32 1   
     7    2   36 1   
     8    3   38 1   
     9    4    6 1   
    10    4    8 1   
    11    4   38 1   
    12    5    6 1   
    13    5    7 1   
    14    5   29 1   
    15    6   28 1   
    16    7    9 1   
    17    8    9 1   
    18    8   30 1   
    19    8   31 1   
    20   10   21 1   
    21   11   23 1   
    22   12   25 1   
    23   13   26 1   
    24   14   21 1   
    25   15   23 1   
    26   16   25 1   
    27   17   26 1   
    28   18   26 1   
    29   19   21 1   
    30   19   33 1   
    31   21   23 1   
    32   23   25 1   
    33   24   34 1   
    34   24   35 1   
    35   24   37 1   
    36   25   26 1   
    37   27   38 1   
@<TRIPOS>SUBSTRUCTURE
     1 RZ1         1 TEMP              0 ****  ****    0 ROOT
