@<TRIPOS>MOLECULE
RZ1
   38    37     1     0     0
SMALL
bcc


@<TRIPOS>ATOM
      1 S        -348.7980 -109.8460  -91.6310 sy        1 RZ1      1.512800
      2 N'        397.2480  119.2550  104.2950 nh        1 RZ1     -0.255100
      3 O'       -348.6300 -103.3930  -89.5480 o         1 RZ1     -0.456300
      4 C1       -349.4130 -105.4380  -90.4460 ce        1 RZ1      0.002800
      5 C2       -347.9520 -107.2570  -91.2920 c2        1 RZ1      0.152800
      6 C3       -348.0760 -105.8580  -90.8910 c3        1 RZ1     -0.142000
      7 C4       -349.0200 -108.1270  -91.2480 cf        1 RZ1     -0.384100
      8 C5       -350.4600 -106.3230  -90.4080 ce        1 RZ1     -0.185000
      9 C6       -350.2680 -107.6690  -90.7930 cf        1 RZ1      0.201000
     10 F2'1      399.6090  117.9410  105.2850 f         1 RZ1     -0.152300
     11 F3'1      400.4550  120.1450  102.5200 f         1 RZ1     -0.180300
     12 F4'1      401.9810  119.2280  105.6860 f         1 RZ1     -0.162800
     13 F5'1      404.1300  120.6720  104.5860 f         1 RZ1     -0.183967
     14 F2'2      400.0800  117.3550  103.2510 f         1 RZ1     -0.152300
     15 F3'2      399.8820  120.7520  104.5150 f         1 RZ1     -0.180300
     16 F4'2      402.4980  118.3400  103.7800 f         1 RZ1     -0.162800
     17 F5'2      402.3360  121.9230  104.4160 f         1 RZ1     -0.183967
     18 F5'3      403.1150  120.8820  102.6510 f         1 RZ1     -0.183967
     19 C1'       398.1490  118.7530  103.5160 c2        1 RZ1      0.341200
     20 O1S      -347.4350 -110.0500  -91.4000 o         1 RZ1     -0.618800
     21 C2'       399.5900  118.3920  103.9920 c3        1 RZ1      0.303300
     22 O2S      -349.7840 -110.4750  -90.8660 o         1 RZ1     -0.618800
     23 C3'       400.4860  119.7350  103.8230 c3        1 RZ1      0.333600
     24 N3S      -349.1360 -109.9070  -93.1690 n3        1 RZ1     -1.035700
     25 C4'       401.9870  119.4730  104.3430 c3        1 RZ1      0.358600
     26 C5'       402.9110  120.7630  103.9920 c3        1 RZ1      0.630900
     27 HN'      -350.6010 -103.5980  -90.1290 h4        1 RZ1      0.067200
     28 H2       -347.7120 -105.1810  -91.7340 hc        1 RZ1      0.198200
     29 H3       -346.9480 -107.6120  -91.6150 ha        1 RZ1      0.206000
     30 H5       -347.3290 -105.6300  -90.0500 hc        1 RZ1      0.198200
     31 H6       -351.4620 -106.0050  -90.0610 ha        1 RZ1      0.197000
     32 H1'       397.9520  118.5660  102.4290 h4        1 RZ1      0.120800
     33 H1'A      397.4220  119.4250  105.2790 hn        1 RZ1      0.355700
     34 HN3S     -350.0350 -110.1250  -93.5340 hn        1 RZ1      0.473800
     35 HN3A     -348.4570 -109.8450  -93.8920 hn        1 RZ1      0.473800
     36 H'2       396.3260  119.5050  103.9600 hn        1 RZ1      0.355700
     37 H3S3     -351.1160 -108.3860  -90.7130 ha        1 RZ1      0.209000
     38 C7       -349.5790 -104.0170  -90.0080 c2        1 RZ1      0.545100
@<TRIPOS>BOND
     1    1    7 1   
     2    1   20 2   
     3    1   22 2   
     4    1   24 1   
     5    2   19 2   
     6    2   33 1   
     7    2   36 1   
     8    3   38 1   
     9    4    6 1   
    10    4    8 1   
    11    4   38 2   
    12    5    6 1   
    13    5    7 2   
    14    5   29 1   
    15    6   28 1   
    16    6   30 1   
    17    7    9 1   
    18    8    9 2   
    19    8   31 1   
    20    9   37 1   
    21   10   21 1   
    22   11   23 1   
    23   12   25 1   
    24   13   26 1   
    25   14   21 1   
    26   15   23 1   
    27   16   25 1   
    28   17   26 1   
    29   18   26 1   
    30   19   21 1   
    31   19   32 1   
    32   21   23 1   
    33   23   25 1   
    34   24   34 1   
    35   24   35 1   
    36   25   26 1   
    37   27   38 1   
@<TRIPOS>SUBSTRUCTURE
     1 RZ1         1 TEMP              0 ****  ****    0 ROOT
