@<TRIPOS>MOLECULE
RZ4
   25    24     1     0     0
SMALL
bcc


@<TRIPOS>ATOM
      1 C          -2.4790    0.3470   -0.0680 c         1 RZ4      0.887600
      2 N          -1.5060   -1.8600    0.7430 n3        1 RZ4     -0.882800
      3 O          -3.5770   -0.2670   -0.1950 o         1 RZ4     -0.841800
      4 C1          3.4560   -0.5720    0.6480 c3        1 RZ4     -0.105433
      5 C2          2.3570    1.6370    0.2680 c3        1 RZ4     -0.105433
      6 C3          2.4940   -0.0290   -1.5910 c3        1 RZ4     -0.105433
      7 CA         -1.2640   -0.4400    0.5350 c3        1 RZ4      0.018500
      8 CB         -0.0470   -0.1400   -0.3470 c3        1 RZ4      0.135400
      9 CE          2.3300    0.1550   -0.0880 c3        1 RZ4      0.151800
     10 OG          1.1310   -0.4560    0.3980 os        1 RZ4     -0.419600
     11 OXT        -2.2980    1.5570   -0.3770 o         1 RZ4     -0.841800
     12 HN         -2.4720   -1.9590    1.0150 hn        1 RZ4      0.329800
     13 HNA        -1.4080   -2.3380   -0.1350 hn        1 RZ4      0.329800
     14 H1          3.3090   -0.4770    1.7490 hc        1 RZ4      0.035367
     15 H1A         3.4470   -1.6540    0.3800 hc        1 RZ4      0.035367
     16 H1B         4.4380   -0.1280    0.3650 hc        1 RZ4      0.035367
     17 H2          3.3550    2.0700    0.0220 hc        1 RZ4      0.035367
     18 H2A         1.5730    2.1940   -0.2980 hc        1 RZ4      0.035367
     19 H2B         2.1590    1.7650    1.3590 hc        1 RZ4      0.035367
     20 H3          3.5130    0.2970   -1.9040 hc        1 RZ4      0.035367
     21 H3A         2.3550   -1.1030   -1.8600 hc        1 RZ4      0.035367
     22 H3B         1.7370    0.5780   -2.1430 hc        1 RZ4      0.035367
     23 HA         -1.0680    0.0010    1.5560 h1        1 RZ4      0.057700
     24 HB         -0.0490   -0.7600   -1.2830 h1        1 RZ4      0.036200
     25 HBA        -0.0700    0.9490   -0.6200 h1        1 RZ4      0.036200
@<TRIPOS>BOND
     1    1    3 1   
     2    1    7 1   
     3    1   11 1   
     4    2    7 1   
     5    2   12 1   
     6    2   13 1   
     7    4    9 1   
     8    4   14 1   
     9    4   15 1   
    10    4   16 1   
    11    5    9 1   
    12    5   17 1   
    13    5   18 1   
    14    5   19 1   
    15    6    9 1   
    16    6   20 1   
    17    6   21 1   
    18    6   22 1   
    19    7    8 1   
    20    7   23 1   
    21    8   10 1   
    22    8   24 1   
    23    8   25 1   
    24    9   10 1   
@<TRIPOS>SUBSTRUCTURE
     1 RZ4         1 TEMP              0 ****  ****    0 ROOT
