@<TRIPOS>MOLECULE
RZ4
   25    23     1     0     0
SMALL
bcc


@<TRIPOS>ATOM
      1 C          -2.1060    0.3130   -2.1260 c1        1 RZ4      0.307000
      2 N          -0.5160    2.0620   -2.5200 n3        1 RZ4     -0.315000
      3 O          -2.3790   -0.8580   -2.5000 o         1 RZ4     -0.574000
      4 C1         -0.0130    0.2360    2.1440 c3        1 RZ4     -0.223333
      5 C2          1.9880   -0.4720    0.8800 c3        1 RZ4     -0.223333
      6 C3          0.3450   -2.1550    1.6360 c3        1 RZ4     -0.223333
      7 CA         -0.6640    0.7470   -1.9970 c3        1 RZ4     -0.129000
      8 CB         -0.2630    0.7370   -0.5400 c3        1 RZ4     -0.015000
      9 CE          0.5190   -0.7430    1.1210 c3        1 RZ4      0.080000
     10 OG         -0.1890   -0.5940   -0.0830 os        1 RZ4     -0.276000
     11 OXT        -3.0330    1.1220   -1.8620 os        1 RZ4     -0.579000
     12 HN          0.3500    2.1880   -2.7900 hn        1 RZ4      0.125000
     13 HNA        -1.0780    2.1710   -3.2350 hn        1 RZ4      0.125000
     14 H1         -0.9930    0.2280    2.1250 hc        1 RZ4      0.074667
     15 H1A         0.3100    1.1370    1.9330 hc        1 RZ4      0.074667
     16 H1B         0.2990   -0.0220    3.0370 hc        1 RZ4      0.074667
     17 H2          2.2750   -0.9310    0.0630 hc        1 RZ4      0.074667
     18 H2A         2.1290    0.4930    0.7790 hc        1 RZ4      0.074667
     19 H2B         2.5100   -0.8010    1.6410 hc        1 RZ4      0.074667
     20 H3          0.8280   -2.2550    2.4840 hc        1 RZ4      0.074667
     21 H3A        -0.6070   -2.3360    1.7800 hc        1 RZ4      0.074667
     22 H3B         0.7030   -2.7890    0.9800 hc        1 RZ4      0.074667
     23 HA         -0.0920    0.1320   -2.4970 h1        1 RZ4      0.097000
     24 HB         -0.9300    1.2250   -0.0140 h1        1 RZ4      0.075500
     25 HBA         0.6110    1.1660   -0.4380 h1        1 RZ4      0.075500
@<TRIPOS>BOND
     1    1    3 1   
     2    1    7 1   
     3    2    7 1   
     4    2   12 1   
     5    2   13 1   
     6    4    9 1   
     7    4   14 1   
     8    4   15 1   
     9    4   16 1   
    10    5    9 1   
    11    5   17 1   
    12    5   18 1   
    13    5   19 1   
    14    6    9 1   
    15    6   20 1   
    16    6   21 1   
    17    6   22 1   
    18    7    8 1   
    19    7   23 1   
    20    8   10 1   
    21    8   24 1   
    22    8   25 1   
    23    9   10 1   
@<TRIPOS>SUBSTRUCTURE
     1 RZ4         1 TEMP              0 ****  ****    0 ROOT
