@<TRIPOS>MOLECULE
RZ5
   38    37     1     0     0
SMALL
bcc


@<TRIPOS>ATOM
      1 S        -142.7680   15.0790  -74.8300 s6        1 RZ5      2.833000
      2 N'        168.3830  -15.9590   90.7820 n8        1 RZ5     -0.365000
      3 O'       -136.9760   13.9820  -78.0490 o         1 RZ5     -0.190000
      4 C1       -139.2650   14.2870  -77.4840 c2        1 RZ5     -0.023000
      5 C2       -140.1590   14.4950  -75.2380 c2        1 RZ5      0.218000
      6 C3       -139.0800   14.2460  -76.1290 c2        1 RZ5     -0.180000
      7 C4       -141.4290   14.7830  -75.7260 c2        1 RZ5     -1.002000
      8 C5       -140.5900   14.5970  -78.0620 c3        1 RZ5     -0.194000
      9 C6       -141.6510   14.8430  -77.1130 c1        1 RZ5     -0.145000
     10 C1'       168.4240  -15.6820   89.4280 c3        1 RZ5      0.053000
     11 O1S      -143.2930   13.9520  -74.2340 o         1 RZ5     -0.854000
     12 C2'       169.8110  -16.1660   88.6880 c3        1 RZ5     -0.362000
     13 O2S      -142.7160   16.2750  -74.1450 o         1 RZ5     -0.854000
     14 C3'       169.7520  -15.7920   87.3180 c2        1 RZ5      0.240000
     15 N3S      -144.0060   15.4350  -76.1460 nz        1 RZ5     -0.548000
     16 C4'       169.3250  -16.6950   86.2640 c3        1 RZ5     -0.241000
     17 C5'       169.0500  -16.0210   84.9420 c3        1 RZ5     -0.234000
     18 HN'      -138.4450   13.8570  -79.4850 h4        1 RZ5      0.136000
     19 H2       -138.0800   14.0210  -75.7100 ha        1 RZ5      0.201000
     20 H3       -139.9530   14.4540  -74.1480 ha        1 RZ5      0.176000
     21 H5       -140.5120   15.5030  -78.7470 hc        1 RZ5      0.209500
     22 H6       -140.9210   13.7520  -78.7490 hc        1 RZ5      0.209500
     23 H1'       168.2560  -16.9010   91.0710 hn        1 RZ5      0.226500
     24 H1'A      168.3690  -14.5740   89.2420 h1        1 RZ5      0.122500
     25 H2'       167.6140  -16.2370   88.8790 h1        1 RZ5      0.122500
     26 H2'A      169.8780  -17.2730   88.8540 hc        1 RZ5      0.165000
     27 H3'       170.6340  -15.6380   89.2420 hc        1 RZ5      0.165000
     28 H3'A      170.0080  -14.7460   87.0350 ha        1 RZ5      0.177000
     29 HN3S     -144.3710   16.3830  -76.0870 hn        1 RZ5      0.274333
     30 HN3A     -144.7930   14.7910  -76.1180 hn        1 RZ5      0.274333
     31 H4'       170.1450  -17.4750   86.1310 hc        1 RZ5      0.183000
     32 H4'A      168.4230  -17.2900   86.6030 hc        1 RZ5      0.183000
     33 H5'       168.7670  -16.7900   84.1810 hc        1 RZ5      0.112333
     34 H5'A      168.2060  -15.2940   85.0320 hc        1 RZ5      0.112333
     35 H5'B      169.9530  -15.4780   84.5710 hc        1 RZ5      0.112333
     36 H'2       168.9090  -15.3860   91.4010 hn        1 RZ5      0.226500
     37 H3S3     -143.5110   15.3210  -77.0710 hn        1 RZ5      0.274333
     38 C7       -138.1420   14.0180  -78.4270 c2        1 RZ5      0.183000
@<TRIPOS>BOND
     1    1    7 1   
     2    1   11 1   
     3    1   13 1   
     4    1   15 1   
     5    2   10 1   
     6    2   23 1   
     7    2   36 1   
     8    3   38 1   
     9    4    6 1   
    10    4    8 1   
    11    4   38 1   
    12    5    6 1   
    13    5    7 1   
    14    5   20 1   
    15    6   19 1   
    16    7    9 1   
    17    8    9 1   
    18    8   21 1   
    19    8   22 1   
    20   10   12 1   
    21   10   24 1   
    22   10   25 1   
    23   12   14 1   
    24   12   26 1   
    25   12   27 1   
    26   14   16 1   
    27   14   28 1   
    28   15   29 1   
    29   15   30 1   
    30   15   37 1   
    31   16   17 1   
    32   16   31 1   
    33   16   32 1   
    34   17   33 1   
    35   17   34 1   
    36   17   35 1   
    37   18   38 1   
@<TRIPOS>SUBSTRUCTURE
     1 RZ5         1 TEMP              0 ****  ****    0 ROOT
