@<TRIPOS>MOLECULE
RZ5
   38    37     1     0     0
SMALL
bcc


@<TRIPOS>ATOM
      1 S         -89.7950   18.0510  -37.4190 s6        1 RZ5      2.833000
      2 N'        108.7750  -22.9840   47.7110 n3        1 RZ5     -0.393000
      3 O'        -83.6830   19.7160  -39.6530 o         1 RZ5     -0.190000
      4 C1        -86.0280   19.5410  -39.2970 c2        1 RZ5     -0.024000
      5 C2        -87.1040   18.3060  -37.5080 c2        1 RZ5      0.218000
      6 C3        -85.9380   18.8100  -38.1460 c2        1 RZ5     -0.180000
      7 C4        -88.3650   18.5520  -38.0410 c2        1 RZ5     -1.001000
      8 C5        -87.3400   19.8280  -39.9160 c3        1 RZ5     -0.194000
      9 C6        -88.4920   19.2940  -39.2290 c1        1 RZ5     -0.145000
     10 C1'       109.8380  -22.4610   46.9180 c3        1 RZ5     -0.027000
     11 O1S       -89.9850   16.6880  -37.5080 o         1 RZ5     -0.854500
     12 C2'       109.4440  -21.0850   46.3130 c3        1 RZ5     -0.296000
     13 O2S       -90.1750   18.7400  -36.2860 o         1 RZ5     -0.854500
     14 C3'       110.2980  -20.6460   45.2470 c2        1 RZ5      0.281000
     15 N3S       -90.9760   18.6930  -38.6780 n4        1 RZ5     -0.548000
     16 C4'       110.5350  -19.2490   44.9500 c3        1 RZ5     -0.256000
     17 C5'       111.0560  -18.9850   43.5570 c3        1 RZ5     -0.234000
     18 HN'       -85.0070   20.8280  -40.7690 h4        1 RZ5      0.136000
     19 H2        -84.9480   18.5960  -37.6970 ha        1 RZ5      0.202000
     20 H3        -86.9740   17.7150  -36.5790 ha        1 RZ5      0.176000
     21 H5        -87.4820   20.9520  -40.0220 hc        1 RZ5      0.209500
     22 H6        -87.3560   19.4410  -40.9870 hc        1 RZ5      0.209500
     23 H1'       108.5130  -23.9140   47.4700 hn        1 RZ5      0.197500
     24 H1'A      110.0880  -23.1560   46.0670 h1        1 RZ5      0.093000
     25 H2'       110.7790  -22.2860   47.5180 h1        1 RZ5      0.093000
     26 H2'A      108.4000  -21.1990   45.8440 hc        1 RZ5      0.209000
     27 H3'       109.3050  -20.3150   47.1250 hc        1 RZ5      0.209000
     28 H3'A      110.8020  -21.4110   44.6120 ha        1 RZ5      0.182000
     29 HN3S      -91.6470   19.3460  -38.2790 hn        1 RZ5      0.274333
     30 HN3A      -91.4930   17.9480  -39.1390 hn        1 RZ5      0.274333
     31 H4'       109.6210  -18.6160   45.1640 hc        1 RZ5      0.196000
     32 H4'A      111.3090  -18.8920   45.7140 hc        1 RZ5      0.196000
     33 H5'       111.2940  -17.8970   43.4470 hc        1 RZ5      0.116667
     34 H5'A      111.9870  -19.5690   43.3540 hc        1 RZ5      0.116667
     35 H5'B      110.2890  -19.2510   42.7900 hc        1 RZ5      0.116667
     36 H'2       108.9100  -22.8730   48.6920 hn        1 RZ5      0.197500
     37 H3S3      -90.4030   19.2040  -39.4030 hn        1 RZ5      0.274333
     38 C7        -84.8110   20.0810  -39.9690 c2        1 RZ5      0.183000
@<TRIPOS>BOND
     1    1    7 1   
     2    1   11 1   
     3    1   13 1   
     4    1   15 1   
     5    2   10 1   
     6    2   23 1   
     7    2   36 1   
     8    3   38 1   
     9    4    6 1   
    10    4    8 1   
    11    4   38 1   
    12    5    6 1   
    13    5    7 1   
    14    5   20 1   
    15    6   19 1   
    16    7    9 1   
    17    8    9 1   
    18    8   21 1   
    19    8   22 1   
    20   10   12 1   
    21   10   24 1   
    22   10   25 1   
    23   12   14 1   
    24   12   26 1   
    25   12   27 1   
    26   14   16 1   
    27   14   28 1   
    28   15   29 1   
    29   15   30 1   
    30   15   37 1   
    31   16   17 1   
    32   16   31 1   
    33   16   32 1   
    34   17   33 1   
    35   17   34 1   
    36   17   35 1   
    37   18   38 1   
@<TRIPOS>SUBSTRUCTURE
     1 RZ5         1 TEMP              0 ****  ****    0 ROOT
