@<TRIPOS>MOLECULE
RZ5
   36    31     1     0     0
SMALL
bcc


@<TRIPOS>ATOM
      1 S          -2.8500   -4.2540    2.8750 ss        1 RZ5      2.864000
      2 N'         -0.6640    1.5780   -0.3870 n3        1 RZ5     -0.373000
      3 O'         -1.7130    0.3170   -1.9860 o         1 RZ5     -0.354000
      4 C1         -1.7730   -0.7040    0.1980 c1        1 RZ5     -0.057000
      5 C2         -3.4450   -2.0320    1.3720 c1        1 RZ5     -0.027000
      6 C3         -3.1160   -0.9510    0.5310 c2        1 RZ5     -0.107000
      7 C4         -2.4380   -2.8540    1.8720 c1        1 RZ5     -0.807000
      8 C5         -0.7620   -1.5330    0.7030 c1        1 RZ5     -0.137000
      9 C6         -1.0900   -2.6060    1.5370 c1        1 RZ5     -0.027000
     10 C7         -1.4180    0.4360   -0.8220 c1        1 RZ5      0.334000
     11 C1'        -0.0090    2.4130   -1.3480 c3        1 RZ5     -0.030000
     12 O1S        -1.9720   -5.4110    2.5670 o         1 RZ5     -0.933500
     13 C2'         1.4810    2.6750   -0.8850 c3        1 RZ5     -0.179000
     14 O2S        -4.1270   -4.7750    2.5340 o         1 RZ5     -0.933500
     15 C3'         2.4030    2.6770   -2.0980 c3        1 RZ5     -0.160000
     16 N3S        -2.7720   -3.8500    4.4890 n2        1 RZ5     -0.954000
     17 C4'         3.8670    2.3830   -1.6390 c3        1 RZ5     -0.159000
     18 C5'         4.7400    2.1050   -2.8590 c3        1 RZ5     -0.211000
     19 HN'        -0.5750    1.7430    0.4710 hn        1 RZ5      0.223000
     20 H2         -4.4160   -2.2120    1.6120 ha        1 RZ5      0.158000
     21 H3         -3.8290   -0.3680    0.1760 ha        1 RZ5      0.164000
     22 H5          0.1910   -1.3610    0.4670 ha        1 RZ5      0.142000
     23 H6         -0.3640   -3.2010    1.9000 ha        1 RZ5      0.158000
     24 H1'        -0.0080    1.9610   -2.2370 h1        1 RZ5      0.102000
     25 H1'A       -0.4920    3.2780   -1.4180 h1        1 RZ5      0.102000
     26 H2'         1.5370    3.5600   -0.4260 hc        1 RZ5      0.086000
     27 H2'A        1.7620    1.9600   -0.2550 hc        1 RZ5      0.086000
     28 H3'         2.1130    1.9870   -2.7310 hc        1 RZ5      0.084000
     29 H3'A        2.3700    3.5470   -2.5290 hc        1 RZ5      0.084000
     30 HN3S       -2.1160   -4.2000    5.0140 hn        1 RZ5      0.244000
     31 HN3A       -3.3830   -3.2020    4.8530 hn        1 RZ5      0.244000
     32 H4'         3.8710    1.5770   -1.0310 hc        1 RZ5      0.077500
     33 H4'A        4.2180    3.1530   -1.1600 hc        1 RZ5      0.077500
     34 H5'         5.6140    1.8090   -2.5700 hc        1 RZ5      0.074000
     35 H5'A        4.8340    2.9340   -3.3950 hc        1 RZ5      0.074000
     36 H5'B        4.3320    1.4220   -3.3940 hc        1 RZ5      0.074000
@<TRIPOS>BOND
     1    1   12 1   
     2    1   14 1   
     3    2   10 1   
     4    2   11 1   
     5    2   19 1   
     6    3   10 1   
     7    4    6 1   
     8    4    8 1   
     9    5    6 1   
    10    5   20 1   
    11    6   21 1   
    12    7    9 1   
    13    8   22 1   
    14    9   23 1   
    15   11   13 1   
    16   11   24 1   
    17   11   25 1   
    18   13   15 1   
    19   13   26 1   
    20   13   27 1   
    21   15   17 1   
    22   15   28 1   
    23   15   29 1   
    24   16   30 1   
    25   16   31 1   
    26   17   18 1   
    27   17   32 1   
    28   17   33 1   
    29   18   34 1   
    30   18   35 1   
    31   18   36 1   
@<TRIPOS>SUBSTRUCTURE
     1 RZ5         1 TEMP              0 ****  ****    0 ROOT
