@<TRIPOS>MOLECULE
RZ5
   36    36     1     0     0
SMALL
bcc


@<TRIPOS>ATOM
      1 S          -4.4510   -0.4760   -0.1430 sy        1 RZ5      1.525200
      2 N'          2.2220    0.4980   -0.5290 n         1 RZ5     -0.563900
      3 O'          1.6790    1.8770    1.2270 o         1 RZ5     -0.594100
      4 C1         -0.1060    0.6400    0.2230 ca        1 RZ5     -0.077600
      5 C2         -1.8190   -1.0390   -0.0340 ca        1 RZ5     -0.026000
      6 C3         -0.4720   -0.7010    0.0690 ca        1 RZ5     -0.122500
      7 C4         -2.8140   -0.0560    0.0110 ca        1 RZ5     -0.363500
      8 C5         -1.0890    1.6340    0.2720 ca        1 RZ5     -0.122500
      9 C6         -2.4320    1.2810    0.1610 ca        1 RZ5     -0.026000
     10 C1'         3.6360    0.7440   -0.4630 c3        1 RZ5      0.085000
     11 O1S        -5.1360    0.6210   -0.7040 o         1 RZ5     -0.655300
     12 C2'         4.4740   -0.4900   -0.1220 c3        1 RZ5     -0.103400
     13 O2S        -4.5220   -1.7140   -0.8160 o         1 RZ5     -0.655300
     14 C3'         5.9450   -0.1320   -0.1300 c3        1 RZ5     -0.078400
     15 N3S        -4.9190   -0.6720    1.3750 n3        1 RZ5     -1.026700
     16 C4'         6.8020   -1.3340    0.2050 c3        1 RZ5     -0.079400
     17 C5'         8.2680   -0.9840    0.1990 c3        1 RZ5     -0.093100
     18 HN'         1.9100   -0.2080   -1.1520 hn        1 RZ5      0.311500
     19 H2         -2.1100   -2.0960   -0.1730 ha        1 RZ5      0.157000
     20 H3          0.2920   -1.4920    0.0420 ha        1 RZ5      0.152000
     21 H5         -0.7920    2.6860    0.4070 ha        1 RZ5      0.152000
     22 H6         -3.2070    2.0680    0.1740 ha        1 RZ5      0.157000
     23 H1'         3.9670    1.1380   -1.4680 h1        1 RZ5      0.064200
     24 H1'A        3.8310    1.5460    0.3070 h1        1 RZ5      0.064200
     25 H2'         4.1870   -0.8820    0.8880 hc        1 RZ5      0.044200
     26 H2'A        4.2820   -1.3070   -0.8660 hc        1 RZ5      0.044200
     27 H3'         6.2320    0.2650   -1.1390 hc        1 RZ5      0.044200
     28 H3'A        6.1370    0.6860    0.6150 hc        1 RZ5      0.044200
     29 HN3S       -5.2970    0.0540    1.9290 hn        1 RZ5      0.449800
     30 HN3A       -4.8810   -1.5370    1.8530 hn        1 RZ5      0.449800
     31 H4'         6.5130   -1.7290    1.2140 hc        1 RZ5      0.039200
     32 H4'A        6.6070   -2.1510   -0.5380 hc        1 RZ5      0.039200
     33 H5'         8.4860   -0.1880    0.9510 hc        1 RZ5      0.034367
     34 H5'A        8.8820   -1.8830    0.4480 hc        1 RZ5      0.034367
     35 H5'B        8.5810   -0.6110   -0.8060 hc        1 RZ5      0.034367
     36 C7          1.3270    1.0460    0.3660 c         1 RZ5      0.661700
@<TRIPOS>BOND
     1    1    7 1   
     2    1   11 2   
     3    1   13 2   
     4    1   15 1   
     5    2   10 1   
     6    2   18 1   
     7    2   36 1   
     8    3   36 2   
     9    4    6 ar  
    10    4    8 ar  
    11    4   36 1   
    12    5    6 ar  
    13    5    7 ar  
    14    5   19 1   
    15    6   20 1   
    16    7    9 ar  
    17    8    9 ar  
    18    8   21 1   
    19    9   22 1   
    20   10   12 1   
    21   10   23 1   
    22   10   24 1   
    23   12   14 1   
    24   12   25 1   
    25   12   26 1   
    26   14   16 1   
    27   14   27 1   
    28   14   28 1   
    29   15   29 1   
    30   15   30 1   
    31   16   17 1   
    32   16   31 1   
    33   16   32 1   
    34   17   33 1   
    35   17   34 1   
    36   17   35 1   
@<TRIPOS>SUBSTRUCTURE
     1 RZ5         1 TEMP              0 ****  ****    0 ROOT
