@<TRIPOS>MOLECULE
RZ5
   38    37     1     0     0
SMALL
bcc


@<TRIPOS>ATOM
      1 S       -1581.8750  548.1390 -541.9650 s6        1 RZ5      2.832000
      2 N'       1769.7870 -609.6640  604.2170 n3        1 RZ5     -0.393000
      3 O'      -1586.2080  549.9170 -546.6450 o         1 RZ5     -0.204000
      4 C1      -1585.2710  549.5300 -544.5040 c2        1 RZ5     -0.010000
      5 C2      -1584.5170  548.4330 -542.4790 c2        1 RZ5      0.217000
      6 C3      -1585.5590  548.8900 -543.3300 c2        1 RZ5     -0.199000
      7 C4      -1583.1830  548.6220 -542.8260 c2        1 RZ5     -1.000000
      8 C5      -1583.8730  549.7810 -544.9130 c3        1 RZ5     -0.196000
      9 C6      -1582.8550  549.2920 -544.0180 c1        1 RZ5     -0.145000
     10 C1'      1770.8520 -610.2600  604.9550 c3        1 RZ5     -0.027000
     11 O1S     -1581.6850  548.8630 -540.8050 o         1 RZ5     -0.855500
     12 C2'      1771.0980 -609.4890  606.2800 c3        1 RZ5     -0.296000
     13 O2S     -1581.6810  546.7740 -541.9780 o         1 RZ5     -0.855500
     14 C3'      1772.3480 -609.7980  606.9160 c2        1 RZ5      0.281000
     15 N3S     -1580.5060  548.7430 -543.0340 n4        1 RZ5     -0.552000
     16 C4'      1772.5460 -609.7190  608.3480 c3        1 RZ5     -0.256000
     17 C5'      1773.9910 -609.6190  608.7750 c3        1 RZ5     -0.234000
     18 HN'     -1587.2730  550.3580 -544.9360 h4        1 RZ5      0.149000
     19 H2      -1586.6040  548.7050 -543.0220 ha        1 RZ5      0.185000
     20 H3      -1584.8010  547.9240 -541.5360 ha        1 RZ5      0.174000
     21 H5      -1583.7070  549.3320 -545.9510 hc        1 RZ5      0.222500
     22 H6      -1583.7030  550.8940 -545.0800 hc        1 RZ5      0.222500
     23 H1'      1770.0200 -609.4530  603.2720 hn        1 RZ5      0.197500
     24 H1'A     1771.8100 -610.2470  604.3620 h1        1 RZ5      0.093000
     25 H2'      1770.6310 -611.3290  605.2450 h1        1 RZ5      0.093000
     26 H2'A     1770.2090 -609.5800  606.9690 hc        1 RZ5      0.209000
     27 H3'      1771.1510 -608.3690  606.0260 hc        1 RZ5      0.209000
     28 H3'A     1773.2100 -610.1080  606.2820 ha        1 RZ5      0.182000
     29 HN3S    -1579.9160  547.9870 -543.3720 hn        1 RZ5      0.275000
     30 HN3A    -1579.9140  549.4210 -542.5620 hn        1 RZ5      0.275000
     31 H4'      1771.9310 -608.8880  608.8090 hc        1 RZ5      0.196000
     32 H4'A     1772.0920 -610.6770  608.7810 hc        1 RZ5      0.196000
     33 H5'      1774.0530 -609.6530  609.8920 hc        1 RZ5      0.116667
     34 H5'A     1774.5960 -610.4640  608.3650 hc        1 RZ5      0.116667
     35 H5'B     1774.4400 -608.6540  608.4320 hc        1 RZ5      0.116667
     36 H'2      1768.9210 -610.1520  604.2920 hn        1 RZ5      0.197500
     37 H3S3    -1580.9610  549.2140 -543.8670 hn        1 RZ5      0.275000
     38 C7      -1586.3520  549.9770 -545.4280 c2        1 RZ5      0.188000
@<TRIPOS>BOND
     1    1    7 1   
     2    1   11 1   
     3    1   13 1   
     4    1   15 1   
     5    2   10 1   
     6    2   23 1   
     7    2   36 1   
     8    3   38 1   
     9    4    6 1   
    10    4    8 1   
    11    4   38 1   
    12    5    6 1   
    13    5    7 1   
    14    5   20 1   
    15    6   19 1   
    16    7    9 1   
    17    8    9 1   
    18    8   21 1   
    19    8   22 1   
    20   10   12 1   
    21   10   24 1   
    22   10   25 1   
    23   12   14 1   
    24   12   26 1   
    25   12   27 1   
    26   14   16 1   
    27   14   28 1   
    28   15   29 1   
    29   15   30 1   
    30   15   37 1   
    31   16   17 1   
    32   16   31 1   
    33   16   32 1   
    34   17   33 1   
    35   17   34 1   
    36   17   35 1   
    37   18   38 1   
@<TRIPOS>SUBSTRUCTURE
     1 RZ5         1 TEMP              0 ****  ****    0 ROOT
