@<TRIPOS>MOLECULE
RZ7
   41    40     1     0     0
SMALL
bcc


@<TRIPOS>ATOM
      1 S          -0.0340    0.6920   -0.3400 sy        1 RZ7      1.473200
      2 N'          8.9350   -2.3840    1.3130 nu        1 RZ7     -0.273100
      3 O'          6.4360   -0.7700    0.4260 o         1 RZ7     -0.577100
      4 C1          4.3850    0.3460   -0.0920 ca        1 RZ7     -0.092600
      5 C2          2.1880   -0.3100    0.6750 ca        1 RZ7      0.001500
      6 C3          3.5710   -0.4540    0.7190 ca        1 RZ7     -0.097000
      7 C4          1.5800    0.6310   -0.1810 ca        1 RZ7     -0.494500
      8 C5          3.8010    1.2970   -0.9400 ca        1 RZ7     -0.097000
      9 C6          2.4170    1.4310   -0.9840 ca        1 RZ7      0.001500
     10 F2'1        8.2530   -1.7770    3.4960 f         1 RZ7     -0.148800
     11 F3'1       11.2400   -0.6420    1.7490 f         1 RZ7     -0.174300
     12 F4'1        9.3710    0.3730    4.6920 f         1 RZ7     -0.164300
     13 F5'1       12.6730    1.0340    3.3360 f         1 RZ7     -0.170300
     14 F6'1       11.9840    1.2310    6.2690 f         1 RZ7     -0.184633
     15 F2'2       10.1370   -2.8320    3.3340 f         1 RZ7     -0.148800
     16 F3'2        9.3480    0.4020    1.8510 f         1 RZ7     -0.174300
     17 F4'2       11.1290   -0.8880    4.7400 f         1 RZ7     -0.164300
     18 F5'2       10.9320    2.2520    2.9360 f         1 RZ7     -0.170300
     19 F6'2       10.4670    2.7050    5.6900 f         1 RZ7     -0.184633
     20 F6'3       12.5830    3.0810    5.2510 f         1 RZ7     -0.184633
     21 C1'         9.4080   -3.4390    0.7280 c2        1 RZ7      0.452100
     22 O1S        -0.4610    1.3280   -1.4830 o         1 RZ7     -0.546300
     23 C2'         9.3560   -1.9070    2.6960 c3        1 RZ7      0.424300
     24 O2S        -0.6920   -0.3750    0.2290 o         1 RZ7     -0.546300
     25 C3'        10.1420   -0.4720    2.5390 c3        1 RZ7      0.357600
     26 N3S        -0.4030    2.0400    0.9490 nz        1 RZ7     -0.794500
     27 C4'        10.5180    0.0880    4.0080 c3        1 RZ7      0.361600
     28 C5'        11.4610    1.3870    3.8520 c3        1 RZ7      0.346600
     29 C6'        11.6290    2.1130    5.2950 c3        1 RZ7      0.632900
     30 HN'         6.4260    1.0260   -0.5680 h4        1 RZ7      0.046200
     31 H2          4.0310   -1.2060    1.3850 ha        1 RZ7      0.181000
     32 H3          1.5540   -0.9670    1.3040 ha        1 RZ7      0.182500
     33 H5          1.9670    2.1630   -1.6850 ha        1 RZ7      0.182500
     34 H6          4.4310    1.9350   -1.5850 ha        1 RZ7      0.181000
     35 H1'        10.1710   -4.0870    1.2250 h4        1 RZ7      0.093800
     36 H1'A        9.0670   -3.7180   -0.2970 h4        1 RZ7      0.093800
     37 HN3S        0.4280    2.3970    1.4130 hn        1 RZ7      0.464800
     38 HN3A       -1.0290    1.6790    1.6710 hn        1 RZ7      0.464800
     39 H'2         8.2270   -1.7870    0.8890 hn        1 RZ7      0.372700
     40 H3S3       -0.8740    2.8330    0.5090 hn        1 RZ7      0.464800
     41 C7          5.8610    0.1990   -0.0800 c         1 RZ7      0.609500
@<TRIPOS>BOND
     1    1    7 1   
     2    1   22 2   
     3    1   24 2   
     4    1   26 1   
     5    2   21 2   
     6    2   23 1   
     7    2   39 1   
     8    3   41 2   
     9    4    6 ar  
    10    4    8 ar  
    11    4   41 1   
    12    5    6 ar  
    13    5    7 ar  
    14    5   32 1   
    15    6   31 1   
    16    7    9 ar  
    17    8    9 ar  
    18    8   34 1   
    19    9   33 1   
    20   10   23 1   
    21   11   25 1   
    22   12   27 1   
    23   13   28 1   
    24   14   29 1   
    25   15   23 1   
    26   16   25 1   
    27   17   27 1   
    28   18   28 1   
    29   19   29 1   
    30   20   29 1   
    31   21   35 1   
    32   21   36 1   
    33   23   25 1   
    34   25   27 1   
    35   26   37 1   
    36   26   38 1   
    37   26   40 1   
    38   27   28 1   
    39   28   29 1   
    40   30   41 1   
@<TRIPOS>SUBSTRUCTURE
     1 RZ7         1 TEMP              0 ****  ****    0 ROOT
