@<TRIPOS>MOLECULE
RZ7
   41    40     1     0     0
SMALL
bcc


@<TRIPOS>ATOM
      1 S           0.1810   -0.9310   -2.0400 sy        1 RZ7      1.473200
      2 N'          7.4990    1.0870    3.4480 nh        1 RZ7     -0.257100
      3 O'          5.2550    1.4350    1.6050 o         1 RZ7     -0.585100
      4 C1          3.4780    1.2190    0.0160 ca        1 RZ7     -0.093600
      5 C2          1.7490   -0.4720    0.0350 ca        1 RZ7      0.002000
      6 C3          2.8140    0.1680    0.6610 ca        1 RZ7     -0.097500
      7 C4          1.3220   -0.0850   -1.2520 ca        1 RZ7     -0.492500
      8 C5          3.0580    1.6280   -1.2570 ca        1 RZ7     -0.097500
      9 C6          1.9980    0.9790   -1.8820 ca        1 RZ7      0.002000
     10 F2'1        9.9250    0.9210    6.0900 f         1 RZ7     -0.151300
     11 F3'1       10.0080   -0.3690    2.7000 f         1 RZ7     -0.185300
     12 F4'1       12.4180    0.0360    5.3900 f         1 RZ7     -0.162300
     13 F5'1       12.1940   -1.9120    2.3360 f         1 RZ7     -0.174300
     14 F6'1       13.8680   -2.7210    4.6940 f         1 RZ7     -0.184300
     15 F2'2        8.8360   -0.7590    5.2540 f         1 RZ7     -0.151300
     16 F3'2       11.0080    1.4330    3.3440 f         1 RZ7     -0.185300
     17 F4'2       11.2960   -1.7770    5.0140 f         1 RZ7     -0.162300
     18 F5'2       13.1020    0.0460    2.4510 f         1 RZ7     -0.174300
     19 F6'2       14.8970   -0.7930    4.4970 f         1 RZ7     -0.184300
     20 F6'3       14.9360   -2.2330    2.8420 f         1 RZ7     -0.184300
     21 C1'         8.3900    1.4340    4.3180 c2        1 RZ7      0.336200
     22 O1S         0.1690   -0.7220   -3.4000 o         1 RZ7     -0.546300
     23 C2'         9.4250    0.4310    4.9190 c3        1 RZ7      0.305300
     24 O2S        -0.1260   -2.1360   -1.4510 o         1 RZ7     -0.546300
     25 C3'        10.5790    0.2180    3.7990 c3        1 RZ7      0.329600
     26 N3S        -1.3410    0.0890   -1.5330 n4        1 RZ7     -0.795500
     27 C4'        11.7920   -0.6630    4.3990 c3        1 RZ7      0.370600
     28 C5'        12.8030   -1.0520    3.2070 c3        1 RZ7      0.342600
     29 C6'        14.1510   -1.7120    3.8240 c3        1 RZ7      0.632900
     30 HN'         4.8920    2.8960    0.2100 h4        1 RZ7      0.046200
     31 H2          3.1460   -0.1580    1.6630 ha        1 RZ7      0.180500
     32 H3          1.2490   -1.3190    0.5450 ha        1 RZ7      0.182500
     33 H5          1.7000    1.2890   -2.9030 ha        1 RZ7      0.182500
     34 H6          3.5720    2.4560   -1.7770 ha        1 RZ7      0.180500
     35 H1'         6.8380    1.7450    3.0440 hn        1 RZ7      0.356700
     36 H1'A        8.4850    2.4890    4.6800 h4        1 RZ7      0.118800
     37 HN3S       -1.1210    0.8770   -0.9300 hn        1 RZ7      0.465133
     38 HN3A       -2.0140   -0.4990   -1.0380 hn        1 RZ7      0.465133
     39 H'2         7.4150    0.1340    3.1170 hn        1 RZ7      0.356700
     40 H3S3       -1.8130    0.4580   -2.3610 hn        1 RZ7      0.465133
     41 C7          4.6240    1.9090    0.6530 c         1 RZ7      0.613500
@<TRIPOS>BOND
     1    1    7 1   
     2    1   22 2   
     3    1   24 2   
     4    1   26 1   
     5    2   21 2   
     6    2   35 1   
     7    2   39 1   
     8    3   41 2   
     9    4    6 ar  
    10    4    8 ar  
    11    4   41 1   
    12    5    6 ar  
    13    5    7 ar  
    14    5   32 1   
    15    6   31 1   
    16    7    9 ar  
    17    8    9 ar  
    18    8   34 1   
    19    9   33 1   
    20   10   23 1   
    21   11   25 1   
    22   12   27 1   
    23   13   28 1   
    24   14   29 1   
    25   15   23 1   
    26   16   25 1   
    27   17   27 1   
    28   18   28 1   
    29   19   29 1   
    30   20   29 1   
    31   21   23 1   
    32   21   36 1   
    33   23   25 1   
    34   25   27 1   
    35   26   37 1   
    36   26   38 1   
    37   26   40 1   
    38   27   28 1   
    39   28   29 1   
    40   30   41 1   
@<TRIPOS>SUBSTRUCTURE
     1 RZ7         1 TEMP              0 ****  ****    0 ROOT
