@<TRIPOS>MOLECULE
RZ7
   39    39     1     0     0
SMALL
bcc


@<TRIPOS>ATOM
      1 S          -7.7480   -0.7300   -0.0540 sy        1 RZ7      1.524200
      2 N'         -1.2310    0.9610   -0.6380 n         1 RZ7     -0.565900
      3 O'         -1.8420    2.2320    1.1710 o         1 RZ7     -0.572100
      4 C1         -3.5340    0.8370    0.2010 ca        1 RZ7     -0.084600
      5 C2         -5.0660   -1.0060   -0.0690 ca        1 RZ7     -0.026000
      6 C3         -3.7590   -0.5280   -0.0020 ca        1 RZ7     -0.118500
      7 C4         -6.1570   -0.1390    0.0600 ca        1 RZ7     -0.354500
      8 C5         -4.6140    1.7160    0.3340 ca        1 RZ7     -0.118500
      9 C6         -5.9150    1.2240    0.2580 ca        1 RZ7     -0.026000
     10 F2'1        0.8550   -0.3430    1.0390 f         1 RZ7     -0.206800
     11 F3'1        2.8790    1.2840   -1.5020 f         1 RZ7     -0.192300
     12 F4'1        3.3360   -1.0700    1.2200 f         1 RZ7     -0.179800
     13 F5'1        5.4260    1.0980   -0.7970 f         1 RZ7     -0.178800
     14 F6'1        6.4160   -1.5520   -0.9470 f         1 RZ7     -0.202967
     15 F2'2        0.9890   -0.9120   -1.0320 f         1 RZ7     -0.206800
     16 F3'2        2.7640    1.8140    0.5860 f         1 RZ7     -0.192300
     17 F4'2        3.6670   -1.3710   -0.8940 f         1 RZ7     -0.179800
     18 F5'2        5.2390    0.9990    1.3530 f         1 RZ7     -0.178800
     19 F6'2        5.9520   -1.9280    1.1580 f         1 RZ7     -0.202967
     20 F6'3        7.4880   -0.4720    0.6210 f         1 RZ7     -0.202967
     21 C1'         0.1370    1.3480   -0.6000 c3        1 RZ7      0.065000
     22 O1S        -8.5690    0.3210   -0.5110 o         1 RZ7     -0.653300
     23 C2'         1.1120    0.1770   -0.2030 c3        1 RZ7      0.354600
     24 O2S        -7.7140   -1.9210   -0.8060 o         1 RZ7     -0.653300
     25 C3'         2.6150    0.7530   -0.2670 c3        1 RZ7      0.338600
     26 N3S        -8.1160   -1.0690    1.4640 n3        1 RZ7     -1.027700
     27 C4'         3.6800   -0.4050    0.0760 c3        1 RZ7      0.348600
     28 C5'         5.1500    0.2320    0.2250 c3        1 RZ7      0.345600
     29 C6'         6.2590   -0.9450    0.2640 c3        1 RZ7      0.606900
     30 HN'        -1.4910    0.2550   -1.2870 hn        1 RZ7      0.327500
     31 H2         -5.2470   -2.0810   -0.2470 ha        1 RZ7      0.160500
     32 H3         -2.9170   -1.2310   -0.0920 ha        1 RZ7      0.154500
     33 H5         -4.4280    2.7880    0.5070 ha        1 RZ7      0.154500
     34 H6         -6.7690    1.9210    0.3380 ha        1 RZ7      0.160500
     35 H1'         0.4630    1.6940   -1.6220 h1        1 RZ7      0.104200
     36 H1'A        0.2880    2.1740    0.1540 h1        1 RZ7      0.104200
     37 HN3S       -8.5420   -0.4260    2.0830 hn        1 RZ7      0.450800
     38 HN3A       -7.9650   -1.9540    1.8810 hn        1 RZ7      0.450800
     39 C7         -2.1520    1.3910    0.3080 c         1 RZ7      0.671700
@<TRIPOS>BOND
     1    1    7 1   
     2    1   22 2   
     3    1   24 2   
     4    1   26 1   
     5    2   21 1   
     6    2   30 1   
     7    2   39 1   
     8    3   39 2   
     9    4    6 ar  
    10    4    8 ar  
    11    4   39 1   
    12    5    6 ar  
    13    5    7 ar  
    14    5   31 1   
    15    6   32 1   
    16    7    9 ar  
    17    8    9 ar  
    18    8   33 1   
    19    9   34 1   
    20   10   23 1   
    21   11   25 1   
    22   12   27 1   
    23   13   28 1   
    24   14   29 1   
    25   15   23 1   
    26   16   25 1   
    27   17   27 1   
    28   18   28 1   
    29   19   29 1   
    30   20   29 1   
    31   21   23 1   
    32   21   35 1   
    33   21   36 1   
    34   23   25 1   
    35   25   27 1   
    36   26   37 1   
    37   26   38 1   
    38   27   28 1   
    39   28   29 1   
@<TRIPOS>SUBSTRUCTURE
     1 RZ7         1 TEMP              0 ****  ****    0 ROOT
