@<TRIPOS>MOLECULE
RZ7
   41    40     1     0     0
SMALL
bcc


@<TRIPOS>ATOM
      1 S          -0.0210    0.7320   -0.4570 sy        1 RZ7      1.473200
      2 N'          8.9450   -2.3430    1.2560 nh        1 RZ7     -0.273100
      3 O'          6.4400   -0.7080    0.4230 o         1 RZ7     -0.577100
      4 C1          4.3920    0.4210   -0.0760 ca        1 RZ7     -0.092600
      5 C2          2.1790   -0.3240    0.5520 ca        1 RZ7      0.001500
      6 C3          3.5610   -0.4540    0.6350 ca        1 RZ7     -0.097000
      7 C4          1.5880    0.6780   -0.2440 ca        1 RZ7     -0.494500
      8 C5          3.8240    1.4330   -0.8620 ca        1 RZ7     -0.097000
      9 C6          2.4400    1.5540   -0.9460 ca        1 RZ7      0.001500
     10 F2'1        8.2630   -1.8330    3.4650 f         1 RZ7     -0.148800
     11 F3'1       11.2430   -0.6120    1.7640 f         1 RZ7     -0.174300
     12 F4'1        9.3750    0.2680    4.7510 f         1 RZ7     -0.164300
     13 F5'1       12.6720    1.0000    3.4180 f         1 RZ7     -0.170300
     14 F6'1       11.9890    1.0680    6.3580 f         1 RZ7     -0.184633
     15 F2'2       10.1500   -2.8730    3.2550 f         1 RZ7     -0.148800
     16 F3'2        9.3470    0.4190    1.9140 f         1 RZ7     -0.174300
     17 F4'2       11.1390   -0.9870    4.7410 f         1 RZ7     -0.164300
     18 F5'2       10.9250    2.2280    3.0740 f         1 RZ7     -0.170300
     19 F6'2       10.4640    2.5580    5.8480 f         1 RZ7     -0.184633
     20 F6'3       12.5760    2.9630    5.4200 f         1 RZ7     -0.184633
     21 C1'         9.4210   -3.3700    0.6260 c2        1 RZ7      0.452100
     22 O1S        -0.4170    1.4570   -1.5580 o         1 RZ7     -0.546300
     23 C2'         9.3650   -1.9230    2.6580 c3        1 RZ7      0.424300
     24 O2S        -0.6820   -0.3870   -0.0040 o         1 RZ7     -0.546300
     25 C3'        10.1450   -0.4810    2.5620 c3        1 RZ7      0.357600
     26 N3S        -0.4560    1.9620    0.9260 n4        1 RZ7     -0.794500
     27 C4'        10.5230    0.0180    4.0530 c3        1 RZ7      0.361600
     28 C5'        11.4590    1.3260    3.9520 c3        1 RZ7      0.346600
     29 C6'        11.6270    1.9900    5.4240 c3        1 RZ7      0.632900
     30 HN'         6.4370    1.1650   -0.4170 h4        1 RZ7      0.046200
     31 H2          4.0080   -1.2530    1.2520 ha        1 RZ7      0.181000
     32 H3          1.5330   -1.0390    1.0990 ha        1 RZ7      0.182500
     33 H5          2.0040    2.3360   -1.5990 ha        1 RZ7      0.182500
     34 H6          4.4670    2.1310   -1.4280 ha        1 RZ7      0.181000
     35 H1'        10.1860   -4.0360    1.0950 h4        1 RZ7      0.093800
     36 H1'A        9.0790   -3.6060   -0.4090 h4        1 RZ7      0.093800
     37 HN3S        0.3510    2.2880    1.4490 hn        1 RZ7      0.464800
     38 HN3A       -1.1030    1.5340    1.5920 hn        1 RZ7      0.464800
     39 H'2         8.2330   -1.7310    0.8600 hn        1 RZ7      0.372700
     40 H3S3       -0.9240    2.7840    0.5360 hn        1 RZ7      0.464800
     41 C7          5.8680    0.2930   -0.0210 c         1 RZ7      0.609500
@<TRIPOS>BOND
     1    1    7 1   
     2    1   22 2   
     3    1   24 2   
     4    1   26 1   
     5    2   21 2   
     6    2   23 1   
     7    2   39 1   
     8    3   41 2   
     9    4    6 ar  
    10    4    8 ar  
    11    4   41 1   
    12    5    6 ar  
    13    5    7 ar  
    14    5   32 1   
    15    6   31 1   
    16    7    9 ar  
    17    8    9 ar  
    18    8   34 1   
    19    9   33 1   
    20   10   23 1   
    21   11   25 1   
    22   12   27 1   
    23   13   28 1   
    24   14   29 1   
    25   15   23 1   
    26   16   25 1   
    27   17   27 1   
    28   18   28 1   
    29   19   29 1   
    30   20   29 1   
    31   21   35 1   
    32   21   36 1   
    33   23   25 1   
    34   25   27 1   
    35   26   37 1   
    36   26   38 1   
    37   26   40 1   
    38   27   28 1   
    39   28   29 1   
    40   30   41 1   
@<TRIPOS>SUBSTRUCTURE
     1 RZ7         1 TEMP              0 ****  ****    0 ROOT
