@<TRIPOS>MOLECULE
RZ8
   39    34     1     0     0
SMALL
bcc


@<TRIPOS>ATOM
      1 S          -6.6820   -0.2230    1.6780 ss        1 RZ8      2.864000
      2 N'          0.1880   -0.0120    0.3920 n3        1 RZ8     -0.368000
      3 O'          0.0030   -0.7460    2.5580 o         1 RZ8     -0.352000
      4 C1         -2.1060   -0.3450    1.5110 c1        1 RZ8     -0.061000
      5 C2         -4.1470    0.8520    1.9640 c1        1 RZ8     -0.028000
      6 C3         -2.7560    0.8120    1.9220 c2        1 RZ8     -0.133000
      7 C4         -4.8860   -0.2650    1.5960 c1        1 RZ8     -0.808000
      8 C5         -2.8450   -1.4630    1.1430 c1        1 RZ8     -0.110000
      9 C6         -4.2360   -1.4230    1.1860 c1        1 RZ8     -0.027000
     10 C7         -0.5690   -0.4150    1.5410 c1        1 RZ8      0.332000
     11 C1'         1.6330   -0.0950    0.4110 c3        1 RZ8     -0.034000
     12 O1S        -7.1820    1.1130    1.4870 o         1 RZ8     -0.935000
     13 C2'         2.1750    0.1500   -0.9960 c3        1 RZ8     -0.184000
     14 O2S        -7.2710   -0.9050    0.5590 o         1 RZ8     -0.935000
     15 C3'         3.7070    0.2370   -0.9480 c3        1 RZ8     -0.156000
     16 N3S        -7.2050   -0.8590    3.1110 n2        1 RZ8     -0.953000
     17 C4'         4.2450    0.5100   -2.3510 c3        1 RZ8     -0.158000
     18 C5'         5.7540    0.5450   -2.3160 c3        1 RZ8     -0.159000
     19 C6'         6.2900    0.7230   -3.7280 c3        1 RZ8     -0.211000
     20 HN'        -0.2420    0.2800   -0.3560 hn        1 RZ8      0.222000
     21 H2         -4.6040    1.6660    2.2530 ha        1 RZ8      0.157000
     22 H3         -2.2360    1.5990    2.1810 ha        1 RZ8      0.147000
     23 H5         -2.3880   -2.2780    0.8540 ha        1 RZ8      0.162000
     24 H6         -4.7560   -2.2090    0.9270 ha        1 RZ8      0.157000
     25 H1'         1.9050   -0.9850    0.7150 h1        1 RZ8      0.104500
     26 H1'A        1.9910    0.5830    1.0220 h1        1 RZ8      0.104500
     27 H2'         1.8130    0.9890   -1.3430 hc        1 RZ8      0.085000
     28 H2'A        1.9090   -0.5870   -1.5800 hc        1 RZ8      0.085000
     29 H3'         3.9740    0.9650   -0.3480 hc        1 RZ8      0.083000
     30 H3'A        4.0730   -0.6100   -0.6170 hc        1 RZ8      0.083000
     31 HN3S       -7.3780   -0.3070    3.8200 hn        1 RZ8      0.245000
     32 HN3A       -7.3860   -1.7560    3.1740 hn        1 RZ8      0.245000
     33 H4'         3.9500   -0.1970   -2.9560 hc        1 RZ8      0.080500
     34 H4'A        3.9080    1.3700   -2.6670 hc        1 RZ8      0.080500
     35 H5'         6.0910   -0.2940   -1.9440 hc        1 RZ8      0.079000
     36 H5'A        6.0500    1.2910   -1.7580 hc        1 RZ8      0.079000
     37 H6'         5.9890    1.5880   -4.0870 hc        1 RZ8      0.072667
     38 H6'A        5.9560   -0.0030   -4.3000 hc        1 RZ8      0.072667
     39 H6'B        7.2700    0.7010   -3.7110 hc        1 RZ8      0.072667
@<TRIPOS>BOND
     1    1   12 1   
     2    1   14 1   
     3    2   10 1   
     4    2   11 1   
     5    2   20 1   
     6    3   10 1   
     7    4    6 1   
     8    4    8 1   
     9    5    6 1   
    10    5   21 1   
    11    6   22 1   
    12    7    9 1   
    13    8   23 1   
    14    9   24 1   
    15   11   13 1   
    16   11   25 1   
    17   11   26 1   
    18   13   15 1   
    19   13   27 1   
    20   13   28 1   
    21   15   17 1   
    22   15   29 1   
    23   15   30 1   
    24   16   31 1   
    25   16   32 1   
    26   17   18 1   
    27   17   33 1   
    28   17   34 1   
    29   18   19 1   
    30   18   35 1   
    31   18   36 1   
    32   19   37 1   
    33   19   38 1   
    34   19   39 1   
@<TRIPOS>SUBSTRUCTURE
     1 RZ8         1 TEMP              0 ****  ****    0 ROOT
