@<TRIPOS>MOLECULE
RZ8
   41    51     1     0     0
SMALL
bcc


@<TRIPOS>ATOM
      1 S           0.0000    0.0000    0.0000 s6        1 RZ8      2.294000
      2 N'          6.6840    0.0070   -1.1670 ny        1 RZ8      0.818000
      3 O'          6.6170    0.0120    1.0530 o         1 RZ8     -0.310000
      4 C1          4.5310    0.0000    0.0000 c2        1 RZ8      0.079000
      5 C2          2.4510   -0.0000    1.2000 c3        1 RZ8      0.211000
      6 C3          3.8310    0.0000    1.2080 c3        1 RZ8     -0.117000
      7 C4          1.7620    0.0000    0.0000 c2        1 RZ8     -0.766000
      8 C5          3.8310   -0.0000   -1.2070 c3        1 RZ8     -0.170000
      9 C6          2.4510    0.0000   -1.2000 c2        1 RZ8     -0.180000
     10 C1'         8.1490    0.0130   -1.1670 DU        1 RZ8      0.057000
     11 O1S        -0.4010   -0.5450   -1.2490 o         1 RZ8     -0.710000
     12 C2'         8.6590    0.0120   -2.6090 DU        1 RZ8     -0.259000
     13 O2S        -0.4010   -0.5440    1.2490 o         1 RZ8     -0.710000
     14 C3'        10.1890    0.0190   -2.6090 DU        1 RZ8     -0.146000
     15 N3S        -0.4910    1.5810    0.0000 nz        1 RZ8     -0.277000
     16 C4'        10.6990    0.0170   -4.0510 DU        1 RZ8     -0.229000
     17 C5'        12.2290    0.0240   -4.0520 DU        1 RZ8     -0.122000
     18 C6'        12.7390    0.0230   -5.4950 c3        1 RZ8      0.157000
     19 HN'         6.2270   -0.1500   -0.2900 hn        1 RZ8     -0.207000
     20 H2          3.3030   -0.1550    0.5490 DU        1 RZ8      0.065000
     21 H3          2.8560   -0.0000    1.6790 DU        1 RZ8      0.065000
     22 H5          4.0030   -0.0000   -0.1380 hc        1 RZ8      0.087000
     23 H6          3.4220   -0.0000   -1.6810 DU        1 RZ8      0.236000
     24 H1'         7.0820    0.0090   -1.3550 DU        1 RZ8     -0.339000
     25 H1'A        8.5140   -0.8690   -0.6550 hx        1 RZ8      0.116000
     26 H2'         8.5830    0.4620   -1.6260 DU        1 RZ8      0.140000
     27 H2'A        8.3010   -0.8740   -3.1180 ha        1 RZ8      0.111000
     28 H3'         9.2350    0.4620   -2.8680 DU        1 RZ8      0.129000
     29 H3'A       10.5530   -0.8630   -2.0960 ha        1 RZ8      0.095000
     30 HN3S        0.4910    1.5220   -0.1860 hn        1 RZ8      0.240333
     31 HN3A       -0.8550    1.9240    0.8670 hn        1 RZ8      0.240333
     32 H4'         9.6680    0.1880   -3.7670 DU        1 RZ8      0.260000
     33 H4'A       10.3420   -0.8700   -4.5600 ha        1 RZ8      0.134000
     34 H5'        11.2750    0.4670   -4.3110 DU        1 RZ8      0.219000
     35 H5'A       12.5940   -0.8580   -3.5390 ha        1 RZ8      0.146000
     36 H6'        12.6630    0.4720   -4.5120 DU        1 RZ8      0.104000
     37 H6'A       12.3850   -0.8650   -6.0030 hc        1 RZ8      0.108000
     38 H6'B       12.3710    0.9040   -6.0080 hc        1 RZ8      0.108000
     39 H'2         7.5400    0.0090   -1.6860 DU        1 RZ8     -0.259000
     40 H3S3        0.5040    1.4920   -0.0650 hn        1 RZ8      0.240333
     41 C7          6.0100    0.0070    0.0010 c2        1 RZ8      0.343000
@<TRIPOS>BOND
     1    1    7 1   
     2    1   11 1   
     3    1   13 1   
     4    1   15 1   
     5    2   10 1   
     6    2   19 1   
     7    2   39 1   
     8    2   41 1   
     9    3   41 1   
    10    4    6 1   
    11    4    8 1   
    12    4   41 1   
    13    5    6 1   
    14    5    7 1   
    15    5   20 1   
    16    5   21 1   
    17    6   20 1   
    18    6   21 1   
    19    7    9 1   
    20    8    9 1   
    21    8   22 1   
    22    8   23 1   
    23    9   23 1   
    24   10   12 1   
    25   10   24 1   
    26   10   25 1   
    27   10   26 1   
    28   10   39 1   
    29   12   14 1   
    30   12   26 1   
    31   12   27 1   
    32   12   28 1   
    33   14   16 1   
    34   14   28 1   
    35   14   29 1   
    36   14   32 1   
    37   15   30 1   
    38   15   31 1   
    39   15   40 1   
    40   16   17 1   
    41   16   32 1   
    42   16   33 1   
    43   16   34 1   
    44   17   18 1   
    45   17   34 1   
    46   17   35 1   
    47   17   36 1   
    48   18   36 1   
    49   18   37 1   
    50   18   38 1   
    51   24   39 1   
@<TRIPOS>SUBSTRUCTURE
     1 RZ8         1 TEMP              0 ****  ****    0 ROOT
