@<TRIPOS>MOLECULE
RZ8
   39    39     1     0     0
SMALL
bcc


@<TRIPOS>ATOM
      1 S          -4.8790    0.6010   -0.1220 sy        1 RZ8      1.525200
      2 N'          1.7320   -0.7220   -0.5420 n         1 RZ8     -0.563900
      3 O'          1.1440   -1.9980    1.2760 o         1 RZ8     -0.594100
      4 C1         -0.5910   -0.7160    0.2410 ca        1 RZ8     -0.077600
      5 C2         -2.9460   -1.2420    0.2320 ca        1 RZ8     -0.026000
      6 C3         -1.6210   -1.6560    0.3420 ca        1 RZ8     -0.122500
      7 C4         -3.2630    0.1050    0.0310 ca        1 RZ8     -0.363500
      8 C5         -0.8920    0.6340    0.0350 ca        1 RZ8     -0.122500
      9 C6         -2.2220    1.0350   -0.0670 ca        1 RZ8     -0.026000
     10 C1'         3.1330   -1.0350   -0.4820 c3        1 RZ8      0.085000
     11 O1S        -4.8980    1.8110   -0.8460 o         1 RZ8     -0.655300
     12 C2'         4.0350    0.1690   -0.2040 c3        1 RZ8     -0.103400
     13 O2S        -5.6250   -0.4830   -0.6300 o         1 RZ8     -0.655300
     14 C3'         5.4860   -0.2630   -0.2130 c3        1 RZ8     -0.077400
     15 N3S        -5.3170    0.8820    1.3910 n3        1 RZ8     -1.026700
     16 C4'         6.4050    0.9090    0.0600 c3        1 RZ8     -0.079400
     17 C5'         7.8570    0.4810    0.0520 c3        1 RZ8     -0.080400
     18 C6'         8.7770    1.6430    0.3230 c3        1 RZ8     -0.093100
     19 HN'         1.4460   -0.0270   -1.1900 hn        1 RZ8      0.311500
     20 H2         -3.7590   -1.9880    0.2860 ha        1 RZ8      0.157000
     21 H3         -1.3750   -2.7160    0.5180 ha        1 RZ8      0.152000
     22 H5         -0.0900    1.3850   -0.0340 ha        1 RZ8      0.152000
     23 H6         -2.4620    2.0980   -0.2460 ha        1 RZ8      0.157000
     24 H1'         3.2980   -1.8120    0.3200 h1        1 RZ8      0.064200
     25 H1'A        3.4300   -1.4870   -1.4730 h1        1 RZ8      0.064200
     26 H2'         3.8740    0.9620   -0.9800 hc        1 RZ8      0.044700
     27 H2'A        3.7810    0.6170    0.7920 hc        1 RZ8      0.044700
     28 H3'         5.6470   -1.0560    0.5640 hc        1 RZ8      0.043700
     29 H3'A        5.7400   -0.7160   -1.2070 hc        1 RZ8      0.043700
     30 HN3S       -5.7230    0.1990    1.9790 hn        1 RZ8      0.449800
     31 HN3A       -5.2300    1.7620    1.8320 hn        1 RZ8      0.449800
     32 H4'         6.2440    1.7030   -0.7160 hc        1 RZ8      0.040700
     33 H4'A        6.1520    1.3620    1.0550 hc        1 RZ8      0.040700
     34 H5'         8.0160   -0.3140    0.8280 hc        1 RZ8      0.039700
     35 H5'A        8.1070    0.0260   -0.9420 hc        1 RZ8      0.039700
     36 H6'         9.8410    1.3060    0.3140 hc        1 RZ8      0.033700
     37 H6'A        8.6500    2.4360   -0.4530 hc        1 RZ8      0.033700
     38 H6'B        8.5590    2.0940    1.3220 hc        1 RZ8      0.033700
     39 C7          0.8220   -1.1870    0.3840 c         1 RZ8      0.661700
@<TRIPOS>BOND
     1    1    7 1   
     2    1   11 2   
     3    1   13 2   
     4    1   15 1   
     5    2   10 1   
     6    2   19 1   
     7    2   39 1   
     8    3   39 2   
     9    4    6 ar  
    10    4    8 ar  
    11    4   39 1   
    12    5    6 ar  
    13    5    7 ar  
    14    5   20 1   
    15    6   21 1   
    16    7    9 ar  
    17    8    9 ar  
    18    8   22 1   
    19    9   23 1   
    20   10   12 1   
    21   10   24 1   
    22   10   25 1   
    23   12   14 1   
    24   12   26 1   
    25   12   27 1   
    26   14   16 1   
    27   14   28 1   
    28   14   29 1   
    29   15   30 1   
    30   15   31 1   
    31   16   17 1   
    32   16   32 1   
    33   16   33 1   
    34   17   18 1   
    35   17   34 1   
    36   17   35 1   
    37   18   36 1   
    38   18   37 1   
    39   18   38 1   
@<TRIPOS>SUBSTRUCTURE
     1 RZ8         1 TEMP              0 ****  ****    0 ROOT
