@<TRIPOS>MOLECULE
RZ8
   41    38     1     0     0
SMALL
bcc


@<TRIPOS>ATOM
      1 S          -2.2760   -0.3410   -0.0950 s6        1 RZ8      2.796000
      2 N'          6.1840   -0.4620    1.1360 n         1 RZ8     -0.421000
      3 O'          6.9020    0.1500   -0.9470 o         1 RZ8     -0.350000
      4 C1          4.7760    0.9710   -0.2510 c2        1 RZ8     -0.481000
      5 C2          0.3460   -0.2540    0.2280 c2        1 RZ8      0.086000
      6 C3          3.5540    0.6350    0.0700 c1        1 RZ8      0.164000
      7 C4         -0.8530    0.3780    0.2590 c2        1 RZ8     -0.830000
      8 C5         -0.9190    2.9340    0.7570 c1        1 RZ8     -0.045000
      9 C6         -0.9240    1.7540    0.5440 c1        1 RZ8     -0.245000
     10 C1'        10.1310    0.6560   -2.4450 c3        1 RZ8     -0.222000
     11 O1S        -3.1230    0.3360   -0.9390 o         1 RZ8     -0.833000
     12 C2'        10.9010   -0.2840   -3.3360 c3        1 RZ8     -0.155000
     13 O2S        -2.1850   -1.7180   -0.1130 o         1 RZ8     -0.833000
     14 C3'        12.2480    0.3000   -3.7130 c3        1 RZ8     -0.165000
     15 N3S        -3.1370   -0.0510    1.5650 n4        1 RZ8     -0.512000
     16 C4'        13.0180   -0.6500   -4.6090 c3        1 RZ8     -0.176000
     17 C5'        14.3640   -0.0610   -4.9790 c3        1 RZ8     -0.291000
     18 C6'        15.1940   -0.8470   -5.8170 c2        1 RZ8      0.279000
     19 HN'         5.5720   -0.2940    1.8930 hn        1 RZ8      0.235500
     20 H2          1.3100    0.2710    0.4030 ha        1 RZ8      0.183500
     21 H3          0.4230   -1.3360    0.0110 ha        1 RZ8      0.183500
     22 H5          4.9520    1.9280   -0.7960 ha        1 RZ8      0.240000
     23 H6         -0.9470    3.9830    0.9470 ha        1 RZ8      0.259000
     24 H1'         7.0390   -0.9320    1.3170 hn        1 RZ8      0.235500
     25 H1'A       10.6960    0.8590   -1.5030 hc        1 RZ8      0.089333
     26 H2'         9.9490    1.6300   -2.9610 hc        1 RZ8      0.089333
     27 H2'A       10.3090   -0.4910   -4.2670 hc        1 RZ8      0.087500
     28 H3'        11.0510   -1.2640   -2.8110 hc        1 RZ8      0.087500
     29 H3'A       12.8390    0.5050   -2.7810 hc        1 RZ8      0.092000
     30 HN3S       -4.0420    0.4000    1.4210 hn        1 RZ8      0.260333
     31 HN3A       -3.3060   -0.9340    2.0470 hn        1 RZ8      0.260333
     32 H4'        12.0970    1.2800   -4.2380 hc        1 RZ8      0.092000
     33 H4'A       13.1630   -1.6300   -4.0800 hc        1 RZ8      0.116000
     34 H5'        12.4230   -0.8530   -5.5390 hc        1 RZ8      0.116000
     35 H5'A       14.2300    0.9790   -5.4520 hc        1 RZ8      0.248000
     36 H6'        14.9500    0.2240   -4.0310 hc        1 RZ8      0.248000
     37 H6'A       14.8740   -1.8440   -6.1840 ha        1 RZ8      0.187000
     38 H6'B       16.1950   -0.4880   -6.1350 ha        1 RZ8      0.187000
     39 H'2         9.1400    0.2120   -2.1720 hc        1 RZ8      0.089333
     40 H3S3       -2.5940    0.5460    2.1850 hn        1 RZ8      0.260333
     41 C7          6.0350    0.2030   -0.0550 c2        1 RZ8      0.386000
@<TRIPOS>BOND
     1    1    7 1   
     2    1   11 1   
     3    1   13 1   
     4    1   15 1   
     5    2   19 1   
     6    2   24 1   
     7    2   41 1   
     8    3   41 1   
     9    4    6 1   
    10    4   22 1   
    11    4   41 1   
    12    5    7 1   
    13    5   20 1   
    14    5   21 1   
    15    7    9 1   
    16    8    9 1   
    17    8   23 1   
    18   10   12 1   
    19   10   25 1   
    20   10   26 1   
    21   10   39 1   
    22   12   14 1   
    23   12   27 1   
    24   12   28 1   
    25   14   16 1   
    26   14   29 1   
    27   14   32 1   
    28   15   30 1   
    29   15   31 1   
    30   15   40 1   
    31   16   17 1   
    32   16   33 1   
    33   16   34 1   
    34   17   18 1   
    35   17   35 1   
    36   17   36 1   
    37   18   37 1   
    38   18   38 1   
@<TRIPOS>SUBSTRUCTURE
     1 RZ8         1 TEMP              0 ****  ****    0 ROOT
