@<TRIPOS>MOLECULE
RZD
   58    54     1     0     0
SMALL
bcc


@<TRIPOS>ATOM
      1 P          -0.3860   -1.8630    2.6240 p3        1 RZD      2.419000
      2 C1         -0.9500   -4.3930   -8.2150 c3        1 RZD      0.039000
      3 N1         -2.1240   -3.6030   -3.2060 n3        1 RZD     -0.216000
      4 C2         -2.4260   -4.8140   -2.6820 c1        1 RZD     -0.048000
      5 O2          2.2310   -3.4100   -2.6490 o         1 RZD     -0.393000
      6 C3         -2.7750   -5.8460   -2.1770 c1        1 RZD     -0.312000
      7 N3         -7.9120   -1.8620   -8.8610 na        1 RZD     -0.176000
      8 C4         -1.2580   -5.6840   -8.6770 c2        1 RZD     -0.752000
      9 N4          0.6300   -3.9630   -1.0480 n         1 RZD     -0.237000
     10 C5         -0.7830   -3.0790   -2.9640 c3        1 RZD      0.025000
     11 C7         -3.5630   -2.4160   -9.3370 c3        1 RZD      0.036000
     12 C8         -4.6100   -2.4540  -10.3330 c2        1 RZD     -0.621000
     13 C9         -0.3660   -3.0770   -1.5220 c2        1 RZD     -0.204000
     14 C10        -0.9010   -2.2040   -0.6600 c1        1 RZD      0.330000
     15 C12         2.9880   -4.5990   -0.7080 c3        1 RZD     -0.245000
     16 O1P         0.1560   -2.7200    1.5400 o         1 RZD     -1.135000
     17 C21        -5.9550   -2.2820  -10.0040 c2        1 RZD      0.086000
     18 C22        -6.5280   -2.1080   -8.7250 c2        1 RZD     -0.338000
     19 C23        -8.2390   -2.0250  -10.2060 c2        1 RZD     -0.146000
     20 C24        -7.0710   -2.2180  -10.9490 c2        1 RZD     -0.227000
     21 C25        -6.9860   -2.3120  -12.4120 c3        1 RZD     -0.128000
     22 C26        -6.4250   -1.1880  -13.1580 c1        1 RZD     -0.020000
     23 C27        -5.5100   -0.2940  -12.5440 c2        1 RZD     -0.531000
     24 C28        -5.0800    0.8720  -12.9530 c1        1 RZD      0.205000
     25 O2P        -1.4540   -2.3770    3.4940 o         1 RZD     -1.135000
     26 O3P         0.2370   -0.5590    2.8950 o         1 RZD     -1.135000
     27 O4P        -1.3910   -1.5210    0.1840 o         1 RZD     -0.185000
     28 H1         -0.2570   -4.3460   -7.3340 hc        1 RZD      0.056500
     29 H2          1.4130   -4.0380   -5.5100 ha        1 RZD      0.000500
     30 H2A         1.7480   -3.9170   -4.9330 ha        1 RZD      0.000500
     31 HN2        -3.3050   -4.4890   -9.2770 hn        1 RZD      0.213500
     32 H3         -1.5350   -5.8650   -9.7120 ha        1 RZD      0.076500
     33 H3A        -3.0820   -6.7440   -1.7180 ha        1 RZD      0.213000
     34 H4         -1.2050   -6.5450   -8.0180 ha        1 RZD      0.076500
     35 H4A        -0.6160   -3.6660   -9.0010 hc        1 RZD      0.056500
     36 HN4         0.5570   -4.1280   -0.0540 hn        1 RZD      0.263000
     37 H5         -0.0020   -3.6280   -3.5710 h1        1 RZD      0.098500
     38 H5A        -2.3510   -3.5640   -4.1910 hn        1 RZD      0.221000
     39 H7         -4.3320   -3.9150   -8.1160 hn        1 RZD      0.213500
     40 H7A        -3.7510   -1.6540   -8.5300 hx        1 RZD      0.081000
     41 H8         -4.3390   -2.7380  -11.3520 ha        1 RZD      0.102000
     42 H8A        -2.5490   -2.2400   -9.7900 hx        1 RZD      0.081000
     43 H9         -0.8140   -2.0110   -3.3320 h1        1 RZD      0.098500
     44 H10        -1.2140    0.3560   -2.5120 ha        1 RZD      0.000500
     45 H10A       -1.1730   -0.0940   -2.0060 ha        1 RZD      0.000500
     46 H12         3.9670   -4.5420   -1.2400 hc        1 RZD      0.096000
     47 H12A        2.7210   -5.6700   -0.5470 hc        1 RZD      0.096000
     48 H12B        3.0770   -4.0940    0.2850 hc        1 RZD      0.096000
     49 H22        -6.0480   -2.0580   -7.7530 h4        1 RZD      0.146000
     50 H25        -8.0070   -2.5280  -12.8400 hc        1 RZD      0.110500
     51 H26        -6.3220   -3.1890  -12.6930 hc        1 RZD      0.110500
     52 H27        -5.0610   -0.6360  -11.5480 ha        1 RZD      0.273000
     53 H28        -9.2660   -1.9290  -10.5550 h4        1 RZD      0.130000
     54 C11         1.9320   -3.9050   -1.5410 c2        1 RZD      0.284000
     55 C6         -2.2840   -3.7700   -7.6350 c2        1 RZD      0.152000
     56 O1         -2.5790   -3.5940   -6.4480 o         1 RZD     -0.375000
     57 N2         -3.4460   -3.7440   -8.5910 n4        1 RZD     -0.128000
     58 HN3        -8.5420   -2.1090   -8.1420 hn        1 RZD      0.199000
@<TRIPOS>BOND
     1    1   16 1   
     2    1   25 1   
     3    1   26 1   
     4    2    8 1   
     5    2   28 1   
     6    2   35 1   
     7    2   55 1   
     8    3    4 1   
     9    3   10 1   
    10    3   38 1   
    11    4    6 1   
    12    5   54 1   
    13    6   33 1   
    14    7   18 1   
    15    7   19 1   
    16    7   58 1   
    17    8   32 1   
    18    8   34 1   
    19    9   13 1   
    20    9   36 1   
    21    9   54 1   
    22   10   13 1   
    23   10   37 1   
    24   10   43 1   
    25   11   12 1   
    26   11   40 1   
    27   11   42 1   
    28   11   57 1   
    29   12   17 1   
    30   12   41 1   
    31   13   14 1   
    32   14   27 1   
    33   15   46 1   
    34   15   47 1   
    35   15   48 1   
    36   15   54 1   
    37   17   18 1   
    38   17   20 1   
    39   18   49 1   
    40   19   20 1   
    41   19   53 1   
    42   20   21 1   
    43   21   22 1   
    44   21   50 1   
    45   21   51 1   
    46   22   23 1   
    47   23   24 1   
    48   23   52 1   
    49   29   30 1   
    50   31   57 1   
    51   39   57 1   
    52   44   45 1   
    53   55   56 1   
    54   55   57 1   
@<TRIPOS>SUBSTRUCTURE
     1 RZD         1 TEMP              0 ****  ****    0 ROOT
