@<TRIPOS>MOLECULE
RZD
   58    60     1     0     0
SMALL
bcc


@<TRIPOS>ATOM
      1 P           0.8620   -2.3740   -0.0320 p5        1 RZD      1.344900
      2 C1          0.0160    4.0370   -0.0230 c3        1 RZD      0.123500
      3 N1          1.0050    3.1210   -0.5900 n3        1 RZD     -0.739600
      4 C2          1.8560    3.8450   -1.5260 c3        1 RZD      0.173800
      5 O2          4.8750    1.7550    0.7820 o         1 RZD     -0.739100
      6 C3          1.3110    5.2720   -1.7020 c3        1 RZD     -0.095400
      7 N3         -6.4950   -0.8540    0.8040 na        1 RZD     -0.183400
      8 C4          0.0940    5.3750   -0.7920 c3        1 RZD     -0.074400
      9 N4          3.0820    0.2940    0.7670 n         1 RZD     -0.536900
     10 C5          1.7070    2.3110    0.3900 c3        1 RZD      0.148800
     11 C7         -2.9660    1.5750   -0.1790 c3        1 RZD      0.100000
     12 C8         -2.9250    0.2820    0.6450 c3        1 RZD     -0.093200
     13 C9          2.3020    1.0030   -0.2170 c3        1 RZD      0.069700
     14 C10         1.1240    0.1240   -0.7520 c3        1 RZD      0.213400
     15 C12         5.0910   -0.2800    2.0410 c3        1 RZD     -0.163100
     16 O1P         1.7400   -2.1330    1.1770 o         1 RZD     -0.918833
     17 C21        -4.2300   -0.3910    0.6210 cc        1 RZD     -0.040400
     18 C22        -5.4930    0.1580    0.7670 cd        1 RZD     -0.206100
     19 C23        -5.8300   -2.0740    0.5200 ca        1 RZD     -0.078200
     20 C24        -4.4100   -1.8310    0.4570 ca        1 RZD     -0.094800
     21 C25        -3.5170   -2.8800    0.2620 ca        1 RZD     -0.048000
     22 C26        -4.0460   -4.1640    0.1230 ca        1 RZD     -0.171000
     23 C27        -5.4240   -4.4010    0.1810 ca        1 RZD     -0.127000
     24 C28        -6.3380   -3.3680    0.3800 ca        1 RZD     -0.188000
     25 O2P         1.0620   -3.6470   -0.7860 o         1 RZD     -0.918833
     26 O3P        -0.5670   -1.9050    0.1390 o         1 RZD     -0.918833
     27 O4P         1.5040   -1.1520   -1.0740 os        1 RZD     -0.564200
     28 H1          0.2140    4.2320    1.0750 h1        1 RZD      0.049700
     29 H2          2.9280    3.8730   -1.1840 h1        1 RZD      0.049200
     30 H2A         1.8240    3.2870   -2.5020 h1        1 RZD      0.049200
     31 HN2        -0.9140    1.5720   -0.5060 hn        1 RZD      0.361500
     32 H3          2.0880    6.0240   -1.4200 hc        1 RZD      0.029700
     33 H3A         1.0310    5.4550   -2.7670 hc        1 RZD      0.029700
     34 H4         -0.8420    5.5420   -1.3800 hc        1 RZD      0.046700
     35 H4A         0.1950    6.2200   -0.0700 hc        1 RZD      0.046700
     36 HN4         2.7140   -0.6550    1.0000 hn        1 RZD      0.421500
     37 H5          2.5420    2.8930    0.8800 h1        1 RZD      0.038200
     38 H5A         0.9690    2.0170    1.1900 h1        1 RZD      0.038200
     39 H7         -3.6800    2.3070    0.2940 h1        1 RZD      0.036200
     40 H7A        -3.3550    1.3310   -1.2110 h1        1 RZD      0.036200
     41 H8         -2.1140   -0.4290    0.2670 hc        1 RZD      0.119700
     42 H8A        -2.6530    0.5220    1.7090 hc        1 RZD      0.119700
     43 H9          2.9700    1.2900   -1.0800 h1        1 RZD      0.032700
     44 H10         0.3110    0.1070    0.0320 h1        1 RZD      0.005700
     45 H10A        0.7480    0.6480   -1.6800 h1        1 RZD      0.005700
     46 H12         6.1370    0.0860    2.1620 hc        1 RZD      0.047367
     47 H12A        4.5950   -0.3200    3.0400 hc        1 RZD      0.047367
     48 H12B        5.1020   -1.3120    1.6120 hc        1 RZD      0.047367
     49 H22        -5.7770    1.2000    0.9120 h4        1 RZD      0.148000
     50 H25        -2.4110   -2.6830    0.2120 ha        1 RZD      0.274000
     51 H26        -3.3560   -5.0060   -0.0410 ha        1 RZD      0.137000
     52 H27        -5.7990   -5.4280    0.0630 ha        1 RZD      0.099000
     53 H28        -7.4150   -3.5670    0.4260 ha        1 RZD      0.103000
     54 C11         4.3350    0.6650    1.1290 c         1 RZD      0.640100
     55 C6         -1.4370    3.5080   -0.0480 c         1 RZD      0.655100
     56 O1         -2.3620    4.3200    0.2110 o         1 RZD     -0.695100
     57 N2         -1.6760    2.1950   -0.3250 n         1 RZD     -0.531900
     58 HN3        -7.3540   -0.6740    0.3390 hn        1 RZD      0.237700
@<TRIPOS>BOND
     1    1   16 1   
     2    1   25 1   
     3    1   26 1   
     4    1   27 1   
     5    2    3 1   
     6    2    8 1   
     7    2   28 1   
     8    2   55 1   
     9    3    4 1   
    10    3   10 1   
    11    4    6 1   
    12    4   29 1   
    13    4   30 1   
    14    5   54 2   
    15    6    8 1   
    16    6   32 1   
    17    6   33 1   
    18    7   18 1   
    19    7   19 1   
    20    7   58 1   
    21    8   34 1   
    22    8   35 1   
    23    9   13 1   
    24    9   36 1   
    25    9   54 1   
    26   10   13 1   
    27   10   37 1   
    28   10   38 1   
    29   11   12 1   
    30   11   39 1   
    31   11   40 1   
    32   11   57 1   
    33   12   17 1   
    34   12   41 1   
    35   12   42 1   
    36   13   14 1   
    37   13   43 1   
    38   14   27 1   
    39   14   44 1   
    40   14   45 1   
    41   15   46 1   
    42   15   47 1   
    43   15   48 1   
    44   15   54 1   
    45   17   18 2   
    46   17   20 1   
    47   18   49 1   
    48   19   20 ar  
    49   19   24 ar  
    50   20   21 ar  
    51   21   22 ar  
    52   21   50 1   
    53   22   23 ar  
    54   22   51 1   
    55   23   24 ar  
    56   23   52 1   
    57   24   53 1   
    58   31   57 1   
    59   55   56 2   
    60   55   57 1   
@<TRIPOS>SUBSTRUCTURE
     1 RZD         1 TEMP              0 ****  ****    0 ROOT
