@<TRIPOS>MOLECULE
RZW
   36    34     1     0     0
SMALL
bcc


@<TRIPOS>ATOM
      1 C1         -0.6400    0.0990   -0.7550 c1        1 RZW     -0.075000
      2 C2          0.7890    0.0790   -0.7570 c2        1 RZW      0.084000
      3 C3          1.4830    0.0780    0.4410 c1        1 RZW      0.051000
      4 C4          0.7890    0.0980    1.6440 c1        1 RZW     -0.213000
      5 C5         -0.6290    0.1180    1.6470 c1        1 RZW      0.039000
      6 C6         -1.3280    0.1180    0.4440 c1        1 RZW      0.054000
      7 N7          1.5470    0.0600   -2.0670 n         1 RZW     -0.242000
      8 C8          0.8310    0.0600   -3.3190 c2        1 RZW      0.329000
      9 C9         -0.6510    0.0790   -3.3210 c2        1 RZW     -0.224000
     10 C10        -1.3910    0.0930   -2.0450 c1        1 RZW      0.025000
     11 C11        -2.9160    0.3350   -2.0400 c3        1 RZW     -0.185000
     12 O12         1.4700    0.0500   -4.4220 o         1 RZW     -0.365000
     13 C13         2.9560    0.1310   -2.0630 c3        1 RZW     -0.083000
     14 O14         2.7150   -0.6180    0.6920 os        1 RZW     -0.216000
     15 C15         3.5410    0.0210    1.5280 c3        1 RZW     -0.077000
     16 O16        -1.6150    0.1990    2.6640 os        1 RZW     -0.206000
     17 C17        -1.2840    1.0990    3.7350 c3        1 RZW     -0.076000
     18 O18        -2.5860   -0.3480    0.9220 os        1 RZW     -0.215000
     19 C19        -2.6920   -1.7710    0.9850 c3        1 RZW     -0.076000
     20 H4          1.2730    0.0960    2.4790 ha        1 RZW      0.150000
     21 H9         -1.1550    0.0770   -4.2010 ha        1 RZW      0.165000
     22 H11        -3.1330    1.0560   -1.3940 hc        1 RZW      0.096667
     23 H11A       -3.2020    0.5960   -2.9200 hc        1 RZW      0.096667
     24 H11B       -3.3790   -0.4930   -1.7760 hc        1 RZW      0.096667
     25 H13         3.2310    0.8560   -1.5350 h1        1 RZW      0.100333
     26 H13A        3.2990    0.2570   -3.0160 h1        1 RZW      0.100333
     27 H13B        3.3190   -0.6990   -1.6910 h1        1 RZW      0.100333
     28 H15         3.4060   -0.3200    2.4550 h1        1 RZW      0.085333
     29 H15A        3.3470    1.0060    1.5010 h1        1 RZW      0.085333
     30 H15B        4.4990   -0.1420    1.2460 h1        1 RZW      0.085333
     31 H17        -2.1900    1.5600    4.1050 h1        1 RZW      0.084333
     32 H17A       -0.8680    0.6200    4.4310 h1        1 RZW      0.084333
     33 H17B       -0.6420    1.8280    3.3890 h1        1 RZW      0.084333
     34 H19        -2.2910   -2.1530    0.2170 h1        1 RZW      0.085333
     35 H19A       -3.6620   -2.0310    1.0200 h1        1 RZW      0.085333
     36 H19B       -2.2390   -2.0950    1.7790 h1        1 RZW      0.085333
@<TRIPOS>BOND
     1    1    2 1   
     2    1    6 1   
     3    2    3 1   
     4    2    7 1   
     5    3   14 1   
     6    4    5 1   
     7    4   20 1   
     8    5   16 1   
     9    6   18 1   
    10    7    8 1   
    11    7   13 1   
    12    8    9 1   
    13    8   12 1   
    14    9   10 1   
    15    9   21 1   
    16   10   11 1   
    17   11   22 1   
    18   11   23 1   
    19   11   24 1   
    20   13   25 1   
    21   13   26 1   
    22   13   27 1   
    23   14   15 1   
    24   15   28 1   
    25   15   29 1   
    26   15   30 1   
    27   16   17 1   
    28   17   31 1   
    29   17   32 1   
    30   17   33 1   
    31   18   19 1   
    32   19   34 1   
    33   19   35 1   
    34   19   36 1   
@<TRIPOS>SUBSTRUCTURE
     1 RZW         1 TEMP              0 ****  ****    0 ROOT
