@<TRIPOS>MOLECULE
RZW
   36    37     1     0     0
SMALL
bcc


@<TRIPOS>ATOM
      1 C1          0.0260    0.0640   -0.0320 ca        1 RZW     -0.084800
      2 C2          1.4580    0.0850   -0.0330 ca        1 RZW      0.074600
      3 C3          2.1200    0.1060    1.2400 ca        1 RZW      0.098100
      4 C4          1.4130    0.1900    2.4330 ca        1 RZW     -0.216000
      5 C5          0.0150    0.2240    2.4150 ca        1 RZW      0.088100
      6 C6         -0.6730    0.1570    1.1940 ca        1 RZW      0.096100
      7 N7          2.1660    0.0870   -1.2410 n         1 RZW     -0.338000
      8 C8          1.5020   -0.0500   -2.4760 c         1 RZW      0.690700
      9 C9          0.0450   -0.1490   -2.4530 cc        1 RZW     -0.242200
     10 C10        -0.6660   -0.0880   -1.3020 cd        1 RZW      0.031600
     11 C11        -2.1430   -0.2070   -1.3690 c3        1 RZW     -0.062900
     12 O12         2.1620   -0.0760   -3.5350 o         1 RZW     -0.640500
     13 C13         3.5990    0.2600   -1.2650 c3        1 RZW      0.072300
     14 O14         3.5060    0.0750    1.2450 os        1 RZW     -0.332900
     15 C15         4.1240   -0.3770    2.4450 c3        1 RZW      0.112700
     16 O16        -0.7660    0.3460    3.5500 os        1 RZW     -0.319900
     17 C17        -0.0980    0.1700    4.7940 c3        1 RZW      0.112700
     18 O18        -2.0580    0.0800    1.2050 os        1 RZW     -0.331900
     19 C19        -2.7070    1.2860    1.6180 c3        1 RZW      0.113700
     20 H4          1.9490    0.2290    3.3920 ha        1 RZW      0.150000
     21 H9         -0.4260   -0.2750   -3.4390 ha        1 RZW      0.165000
     22 H11        -2.4910   -1.0650   -0.7390 hc        1 RZW      0.057367
     23 H11A       -2.4860   -0.3740   -2.4200 hc        1 RZW      0.057367
     24 H11B       -2.6260    0.7260   -0.9830 hc        1 RZW      0.057367
     25 H13         4.1050   -0.6470   -0.8380 h1        1 RZW      0.061367
     26 H13A        3.8850    1.1650   -0.6650 h1        1 RZW      0.061367
     27 H13B        3.9480    0.4020   -2.3240 h1        1 RZW      0.061367
     28 H15         4.0900    0.4260    3.2210 h1        1 RZW      0.045700
     29 H15A        3.6450   -1.3120    2.8230 h1        1 RZW      0.045700
     30 H15B        5.1820   -0.5720    2.1330 h1        1 RZW      0.045700
     31 H17        -0.9330    0.1890    5.5400 h1        1 RZW      0.045033
     32 H17A        0.6120    1.0130    4.9790 h1        1 RZW      0.045033
     33 H17B        0.4380   -0.8090    4.8260 h1        1 RZW      0.045033
     34 H19        -3.7930    1.0400    1.5200 h1        1 RZW      0.045700
     35 H19A       -2.4270    2.1300    0.9430 h1        1 RZW      0.045700
     36 H19B       -2.4480    1.5290    2.6770 h1        1 RZW      0.045700
@<TRIPOS>BOND
     1    1    2 ar  
     2    1    6 ar  
     3    1   10 1   
     4    2    3 ar  
     5    2    7 1   
     6    3    4 ar  
     7    3   14 1   
     8    4    5 ar  
     9    4   20 1   
    10    5    6 ar  
    11    5   16 1   
    12    6   18 1   
    13    7    8 1   
    14    7   13 1   
    15    8    9 1   
    16    8   12 2   
    17    9   10 2   
    18    9   21 1   
    19   10   11 1   
    20   11   22 1   
    21   11   23 1   
    22   11   24 1   
    23   13   25 1   
    24   13   26 1   
    25   13   27 1   
    26   14   15 1   
    27   15   28 1   
    28   15   29 1   
    29   15   30 1   
    30   16   17 1   
    31   17   31 1   
    32   17   32 1   
    33   17   33 1   
    34   18   19 1   
    35   19   34 1   
    36   19   35 1   
    37   19   36 1   
@<TRIPOS>SUBSTRUCTURE
     1 RZW         1 TEMP              0 ****  ****    0 ROOT
