@<TRIPOS>MOLECULE
RZW
   36    37     1     0     0
SMALL
bcc


@<TRIPOS>ATOM
      1 C1          0.0250    0.0640   -0.0320 ca        1 RZW     -0.084800
      2 C2          1.4570    0.0850   -0.0340 ca        1 RZW      0.074600
      3 C3          2.1200    0.1070    1.2390 ca        1 RZW      0.098100
      4 C4          1.4140    0.1900    2.4330 ca        1 RZW     -0.216000
      5 C5          0.0160    0.2230    2.4150 ca        1 RZW      0.088100
      6 C6         -0.6730    0.1570    1.1950 ca        1 RZW      0.096100
      7 N7          2.1650    0.0870   -1.2420 n         1 RZW     -0.338000
      8 C8          1.5000   -0.0490   -2.4760 c         1 RZW      0.690700
      9 C9          0.0430   -0.1490   -2.4520 cc        1 RZW     -0.242200
     10 C10        -0.6670   -0.0890   -1.3010 cd        1 RZW      0.031600
     11 C11        -2.1450   -0.2090   -1.3670 c3        1 RZW     -0.062900
     12 O12         2.1590   -0.0750   -3.5370 o         1 RZW     -0.640500
     13 C13         3.5980    0.2610   -1.2670 c3        1 RZW      0.072300
     14 O14         3.5060    0.0770    1.2430 os        1 RZW     -0.332900
     15 C15         4.1260   -0.3740    2.4430 c3        1 RZW      0.112700
     16 O16        -0.7640    0.3450    3.5510 os        1 RZW     -0.319900
     17 C17        -0.0950    0.1690    4.7940 c3        1 RZW      0.112700
     18 O18        -2.0570    0.0790    1.2070 os        1 RZW     -0.331900
     19 C19        -2.7070    1.2840    1.6210 c3        1 RZW      0.113700
     20 H4          1.9510    0.2310    3.3910 ha        1 RZW      0.150000
     21 H9         -0.4290   -0.2760   -3.4380 ha        1 RZW      0.165000
     22 H11        -2.4910   -1.0670   -0.7370 hc        1 RZW      0.057367
     23 H11A       -2.4870   -0.3760   -2.4180 hc        1 RZW      0.057367
     24 H11B       -2.6270    0.7240   -0.9810 hc        1 RZW      0.057367
     25 H13         4.1040   -0.6450   -0.8400 h1        1 RZW      0.061367
     26 H13A        3.8840    1.1670   -0.6680 h1        1 RZW      0.061367
     27 H13B        3.9460    0.4040   -2.3260 h1        1 RZW      0.061367
     28 H15         4.0910    0.4290    3.2190 h1        1 RZW      0.045700
     29 H15A        3.6480   -1.3090    2.8210 h1        1 RZW      0.045700
     30 H15B        5.1840   -0.5680    2.1300 h1        1 RZW      0.045700
     31 H17        -0.9300    0.1870    5.5410 h1        1 RZW      0.045033
     32 H17A        0.6140    1.0120    4.9800 h1        1 RZW      0.045033
     33 H17B        0.4410   -0.8100    4.8260 h1        1 RZW      0.045033
     34 H19        -3.7930    1.0370    1.5240 h1        1 RZW      0.045700
     35 H19A       -2.4280    2.1280    0.9450 h1        1 RZW      0.045700
     36 H19B       -2.4470    1.5280    2.6790 h1        1 RZW      0.045700
@<TRIPOS>BOND
     1    1    2 ar  
     2    1    6 ar  
     3    1   10 1   
     4    2    3 ar  
     5    2    7 1   
     6    3    4 ar  
     7    3   14 1   
     8    4    5 ar  
     9    4   20 1   
    10    5    6 ar  
    11    5   16 1   
    12    6   18 1   
    13    7    8 1   
    14    7   13 1   
    15    8    9 1   
    16    8   12 2   
    17    9   10 2   
    18    9   21 1   
    19   10   11 1   
    20   11   22 1   
    21   11   23 1   
    22   11   24 1   
    23   13   25 1   
    24   13   26 1   
    25   13   27 1   
    26   14   15 1   
    27   15   28 1   
    28   15   29 1   
    29   15   30 1   
    30   16   17 1   
    31   17   31 1   
    32   17   32 1   
    33   17   33 1   
    34   18   19 1   
    35   19   34 1   
    36   19   35 1   
    37   19   36 1   
@<TRIPOS>SUBSTRUCTURE
     1 RZW         1 TEMP              0 ****  ****    0 ROOT
