@<TRIPOS>MOLECULE
RZW
   36    37     1     0     0
SMALL
bcc


@<TRIPOS>ATOM
      1 C1          0.0250    0.0660   -0.0320 ca        1 RZW     -0.084800
      2 C2          1.4560    0.0830   -0.0340 ca        1 RZW      0.074600
      3 C3          2.1200    0.1030    1.2390 ca        1 RZW      0.098100
      4 C4          1.4150    0.1870    2.4320 ca        1 RZW     -0.216000
      5 C5          0.0170    0.2250    2.4160 ca        1 RZW      0.088100
      6 C6         -0.6730    0.1610    1.1960 ca        1 RZW      0.096100
      7 N7          2.1640    0.0830   -1.2430 n         1 RZW     -0.338000
      8 C8          1.4980   -0.0510   -2.4770 c         1 RZW      0.690700
      9 C9          0.0410   -0.1460   -2.4520 cc        1 RZW     -0.242200
     10 C10        -0.6690   -0.0840   -1.3010 cd        1 RZW      0.031600
     11 C11        -2.1470   -0.1990   -1.3660 c3        1 RZW     -0.062900
     12 O12         2.1560   -0.0790   -3.5370 o         1 RZW     -0.640500
     13 C13         3.5970    0.2520   -1.2680 c3        1 RZW      0.072300
     14 O14         3.5060    0.0680    1.2410 os        1 RZW     -0.332900
     15 C15         4.1250   -0.3820    2.4420 c3        1 RZW      0.112700
     16 O16        -0.7620    0.3490    3.5510 os        1 RZW     -0.319900
     17 C17        -0.0940    0.1660    4.7940 c3        1 RZW      0.112700
     18 O18        -2.0570    0.0870    1.2080 os        1 RZW     -0.331900
     19 C19        -2.7020    1.2950    1.6220 c3        1 RZW      0.113700
     20 H4          1.9520    0.2260    3.3910 ha        1 RZW      0.150000
     21 H9         -0.4330   -0.2710   -3.4380 ha        1 RZW      0.165000
     22 H11        -2.4910   -0.3640   -2.4170 hc        1 RZW      0.057367
     23 H11A       -2.6260    0.7360   -0.9790 hc        1 RZW      0.057367
     24 H11B       -2.4960   -1.0560   -0.7360 hc        1 RZW      0.057367
     25 H13         4.1010   -0.6560   -0.8410 h1        1 RZW      0.061367
     26 H13A        3.9450    0.3930   -2.3280 h1        1 RZW      0.061367
     27 H13B        3.8870    1.1570   -0.6700 h1        1 RZW      0.061367
     28 H15         5.1830   -0.5780    2.1290 h1        1 RZW      0.046033
     29 H15A        4.0930    0.4230    3.2170 h1        1 RZW      0.046033
     30 H15B        3.6460   -1.3160    2.8220 h1        1 RZW      0.046033
     31 H17        -0.9280    0.1850    5.5410 h1        1 RZW      0.045033
     32 H17A        0.4370   -0.8160    4.8230 h1        1 RZW      0.045033
     33 H17B        0.6190    1.0050    4.9820 h1        1 RZW      0.045033
     34 H19        -2.4420    1.5370    2.6800 h1        1 RZW      0.045700
     35 H19A       -3.7900    1.0520    1.5260 h1        1 RZW      0.045700
     36 H19B       -2.4220    2.1380    0.9470 h1        1 RZW      0.045700
@<TRIPOS>BOND
     1    1    2 ar  
     2    1    6 ar  
     3    1   10 1   
     4    2    3 ar  
     5    2    7 1   
     6    3    4 ar  
     7    3   14 1   
     8    4    5 ar  
     9    4   20 1   
    10    5    6 ar  
    11    5   16 1   
    12    6   18 1   
    13    7    8 1   
    14    7   13 1   
    15    8    9 1   
    16    8   12 2   
    17    9   10 2   
    18    9   21 1   
    19   10   11 1   
    20   11   22 1   
    21   11   23 1   
    22   11   24 1   
    23   13   25 1   
    24   13   26 1   
    25   13   27 1   
    26   14   15 1   
    27   15   28 1   
    28   15   29 1   
    29   15   30 1   
    30   16   17 1   
    31   17   31 1   
    32   17   32 1   
    33   17   33 1   
    34   18   19 1   
    35   19   34 1   
    36   19   35 1   
    37   19   36 1   
@<TRIPOS>SUBSTRUCTURE
     1 RZW         1 TEMP              0 ****  ****    0 ROOT
