@<TRIPOS>MOLECULE
RZW
   36    37     1     0     0
SMALL
bcc


@<TRIPOS>ATOM
      1 C1          0.2260   -0.8130    0.0500 ca        1 RZW     -0.084800
      2 C2          0.8100    0.4890   -0.0640 ca        1 RZW      0.074600
      3 C3         -0.0810    1.6120   -0.1210 ca        1 RZW      0.098100
      4 C4         -1.4610    1.4530   -0.1490 ca        1 RZW     -0.216000
      5 C5         -2.0170    0.1710   -0.0910 ca        1 RZW      0.088100
      6 C6         -1.1820   -0.9530    0.0120 ca        1 RZW      0.096100
      7 N7          2.2010    0.6390   -0.1220 n         1 RZW     -0.338000
      8 C8          3.0610   -0.4640    0.0490 c         1 RZW      0.690700
      9 C9          2.4480   -1.7750    0.2440 cc        1 RZW     -0.242200
     10 C10         1.1060   -1.9540    0.2380 cd        1 RZW      0.031600
     11 C11         0.5680   -3.3200    0.4540 c3        1 RZW     -0.062900
     12 O12         4.2980   -0.2960    0.0250 o         1 RZW     -0.640500
     13 C13         2.8030    1.9240   -0.3890 c3        1 RZW      0.072300
     14 O14         0.4820    2.8780   -0.1800 os        1 RZW     -0.332900
     15 C15        -0.3460    3.9580    0.2390 c3        1 RZW      0.112700
     16 O16        -3.3750   -0.0820   -0.1540 os        1 RZW     -0.319900
     17 C17        -4.2310    1.0460   -0.0140 c3        1 RZW      0.112700
     18 O18        -1.7550   -2.2040    0.1800 os        1 RZW     -0.331900
     19 C19        -2.4370   -2.6940   -0.9780 c3        1 RZW      0.113700
     20 H4         -2.1180    2.3310   -0.2170 ha        1 RZW      0.150000
     21 H9          3.1590   -2.6010    0.3940 ha        1 RZW      0.165000
     22 H11         1.3920   -4.0530    0.6360 hc        1 RZW      0.057367
     23 H11A       -0.1200   -3.3290    1.3380 hc        1 RZW      0.057367
     24 H11B       -0.0120   -3.6550   -0.4430 hc        1 RZW      0.057367
     25 H13         2.6500    2.6110    0.4850 h1        1 RZW      0.061367
     26 H13A        3.9060    1.7990   -0.5620 h1        1 RZW      0.061367
     27 H13B        2.3430    2.3780   -1.3070 h1        1 RZW      0.061367
     28 H15         0.3780    4.8040    0.3610 h1        1 RZW      0.045700
     29 H15A       -1.0940    4.2000   -0.5550 h1        1 RZW      0.045700
     30 H15B       -0.8550    3.7300    1.2060 h1        1 RZW      0.045700
     31 H17        -4.0090    1.6030    0.9280 h1        1 RZW      0.045033
     32 H17A       -4.1380    1.7200   -0.9010 h1        1 RZW      0.045033
     33 H17B       -5.2530    0.5900    0.0280 h1        1 RZW      0.045033
     34 H19        -3.3040   -2.0390   -1.2300 h1        1 RZW      0.045700
     35 H19A       -1.7350   -2.7650   -1.8430 h1        1 RZW      0.045700
     36 H19B       -2.7840   -3.7100   -0.6610 h1        1 RZW      0.045700
@<TRIPOS>BOND
     1    1    2 ar  
     2    1    6 ar  
     3    1   10 1   
     4    2    3 ar  
     5    2    7 1   
     6    3    4 ar  
     7    3   14 1   
     8    4    5 ar  
     9    4   20 1   
    10    5    6 ar  
    11    5   16 1   
    12    6   18 1   
    13    7    8 1   
    14    7   13 1   
    15    8    9 1   
    16    8   12 2   
    17    9   10 2   
    18    9   21 1   
    19   10   11 1   
    20   11   22 1   
    21   11   23 1   
    22   11   24 1   
    23   13   25 1   
    24   13   26 1   
    25   13   27 1   
    26   14   15 1   
    27   15   28 1   
    28   15   29 1   
    29   15   30 1   
    30   16   17 1   
    31   17   31 1   
    32   17   32 1   
    33   17   33 1   
    34   18   19 1   
    35   19   34 1   
    36   19   35 1   
    37   19   36 1   
@<TRIPOS>SUBSTRUCTURE
     1 RZW         1 TEMP              0 ****  ****    0 ROOT
