@<TRIPOS>MOLECULE
RZX
   46    48     1     0     0
SMALL
bcc


@<TRIPOS>ATOM
      1 C1          0.4810   -1.7860    0.8570 ca        1 RZX     -0.061000
      2 C2          1.7440   -1.1880    0.6950 ca        1 RZX      0.050400
      3 C3          1.9320    0.1990    1.0960 ca        1 RZX     -0.063200
      4 C4          0.8780    0.9490    1.6420 ca        1 RZX     -0.136000
      5 C5         -0.3450    0.3190    1.7810 ca        1 RZX     -0.104000
      6 C6         -0.5400   -1.0250    1.3960 ca        1 RZX     -0.158000
      7 N7          3.2600    0.4950    0.8120 na        1 RZX     -0.228300
      8 C8          3.8380   -0.6710    0.2740 cc        1 RZX      0.307100
      9 N9          2.9520   -1.6880    0.1910 nd        1 RZX     -0.524100
     10 S10         5.5240   -0.8030   -0.1490 sx        1 RZX      0.442300
     11 C11         5.3390   -0.9300   -1.9010 c3        1 RZX     -0.155400
     12 C12         6.5910   -1.4350   -2.5380 ca        1 RZX      0.454600
     13 N13         7.6030   -1.8320   -1.7200 nb        1 RZX     -0.723000
     14 C14         8.7290   -2.2820   -2.2900 ca        1 RZX      0.442200
     15 C15         8.9250   -2.3710   -3.6800 ca        1 RZX     -0.326300
     16 C16         7.8770   -1.9620   -4.5140 ca        1 RZX      0.169100
     17 C17         6.6710   -1.4800   -3.9480 ca        1 RZX     -0.199600
     18 O18         6.0400    0.5600    0.0910 o         1 RZX     -0.514200
     19 O19         7.9210   -1.9910   -5.8890 os        1 RZX     -0.320900
     20 C20         9.1400   -2.4810   -6.4670 c3        1 RZX      0.129400
     21 C21         8.9320   -2.4140   -7.9690 c3        1 RZX     -0.091400
     22 C22        10.1810   -2.9070   -8.6760 c3        1 RZX      0.130400
     23 O23         9.9110   -2.8230  -10.0740 os        1 RZX     -0.418600
     24 C24        11.0060   -3.2540  -10.8650 c3        1 RZX      0.115700
     25 C25         5.5420   -1.0350   -4.7900 c3        1 RZX     -0.045800
     26 H1          0.3230   -2.8320    0.5590 ha        1 RZX      0.147000
     27 H4          1.0240    1.9950    1.9440 ha        1 RZX      0.139000
     28 H5         -1.1950    0.8750    2.2050 ha        1 RZX      0.133000
     29 H6         -1.5360   -1.4720    1.5320 ha        1 RZX      0.134000
     30 HN7         3.7380    1.3470    0.9700 hn        1 RZX      0.326700
     31 H11         4.5050   -1.6410   -2.1430 h1        1 RZX      0.111700
     32 H11A        5.0750    0.0540   -2.3670 h1        1 RZX      0.111700
     33 H14         9.5290   -2.5910   -1.5920 h4        1 RZX      0.025100
     34 H15         9.8740   -2.7480   -4.0750 ha        1 RZX      0.149000
     35 H20         9.9940   -1.8290   -6.1450 h1        1 RZX      0.043200
     36 H20A        9.3180   -3.5350   -6.1280 h1        1 RZX      0.043200
     37 H21         8.7080   -1.3610   -8.2790 hc        1 RZX      0.073700
     38 H21A        8.0520   -3.0410   -8.2640 hc        1 RZX      0.073700
     39 H22        10.4080   -3.9720   -8.4000 h1        1 RZX      0.027200
     40 H22A       11.0690   -2.2670   -8.4240 h1        1 RZX      0.027200
     41 H24        11.9040   -2.6160  -10.6770 h1        1 RZX      0.034700
     42 H24A       10.6510   -3.1330  -11.9190 h1        1 RZX      0.034700
     43 H24B       11.2490   -4.3250  -10.6530 h1        1 RZX      0.034700
     44 H25         5.7220   -1.2720   -5.8680 hc        1 RZX      0.053033
     45 H25A        5.4020    0.0710   -4.6910 hc        1 RZX      0.053033
     46 H25B        4.5940   -1.5370   -4.4690 hc        1 RZX      0.053033
@<TRIPOS>BOND
     1    1    2 ar  
     2    1    6 ar  
     3    1   26 1   
     4    2    3 ar  
     5    2    9 1   
     6    3    4 ar  
     7    3    7 1   
     8    4    5 ar  
     9    4   27 1   
    10    5    6 ar  
    11    5   28 1   
    12    6   29 1   
    13    7    8 1   
    14    7   30 1   
    15    8    9 2   
    16    8   10 1   
    17   10   11 1   
    18   10   18 2   
    19   11   12 1   
    20   11   31 1   
    21   11   32 1   
    22   12   13 ar  
    23   12   17 ar  
    24   13   14 ar  
    25   14   15 ar  
    26   14   33 1   
    27   15   16 ar  
    28   15   34 1   
    29   16   17 ar  
    30   16   19 1   
    31   17   25 1   
    32   19   20 1   
    33   20   21 1   
    34   20   35 1   
    35   20   36 1   
    36   21   22 1   
    37   21   37 1   
    38   21   38 1   
    39   22   23 1   
    40   22   39 1   
    41   22   40 1   
    42   23   24 1   
    43   24   41 1   
    44   24   42 1   
    45   24   43 1   
    46   25   44 1   
    47   25   45 1   
    48   25   46 1   
@<TRIPOS>SUBSTRUCTURE
     1 RZX         1 TEMP              0 ****  ****    0 ROOT
