@<TRIPOS>MOLECULE
RZX
   46    39     1     0     0
SMALL
bcc


@<TRIPOS>ATOM
      1 C1         -1.7450   -2.8130    5.9800 c1        1 RZX     -0.114750
      2 C2         -1.7240   -1.5030    5.4830 c1        1 RZX     -0.053500
      3 C3         -2.3700   -0.5170    6.1620 c1        1 RZX     -0.053500
      4 C4         -3.0480   -0.8040    7.3390 c1        1 RZX     -0.114750
      5 C5         -3.0710   -2.0840    7.8280 c1        1 RZX     -0.114750
      6 C6         -2.4230   -3.0910    7.1540 c1        1 RZX     -0.114750
      7 N7         -2.2040    0.6560    5.4780 n1        1 RZX     -0.141000
      8 C8         -1.4540    0.3990    4.3720 c1        1 RZX     -0.449000
      9 N9         -1.1510   -0.9370    4.3670 n1        1 RZX     -0.141000
     10 S10        -0.4380    1.1750    3.0790 ss        1 RZX      1.570000
     11 C11        -1.0630    1.2950    1.4030 c3        1 RZX     -0.566000
     12 C12         0.0840    1.4420    0.4580 c2        1 RZX      0.032000
     13 N13         1.3460    1.7460    0.9430 n2        1 RZX     -0.197000
     14 C14         2.3970    1.8960    0.0720 c1        1 RZX     -0.023000
     15 C15         2.1930    1.7440   -1.2900 c1        1 RZX     -0.261000
     16 C16         0.9230    1.4390   -1.7720 c1        1 RZX      0.124000
     17 C17        -0.1180    1.2910   -0.9060 c1        1 RZX     -0.127000
     18 O18         0.8730    1.7770    3.4250 o         1 RZX     -0.786000
     19 O19         0.7020    1.3190   -3.1530 os        1 RZX     -0.204000
     20 C20         1.6660    0.4760   -3.8370 c3        1 RZX     -0.021000
     21 C21         1.3190    0.4290   -5.3780 c3        1 RZX     -0.170000
     22 C22         2.1880   -0.6650   -6.0710 c3        1 RZX     -0.020000
     23 O23         1.8910   -0.7060   -7.4360 os        1 RZX     -0.275000
     24 C24         2.7050   -1.5830   -8.1690 c3        1 RZX     -0.074000
     25 C25        -1.5570    1.2610   -1.5550 c3        1 RZX     -0.171000
     26 H1         -1.2700   -3.5480    5.4870 ha        1 RZX      0.138250
     27 H4         -3.5100   -0.0850    7.8260 ha        1 RZX      0.138250
     28 H5         -3.5400   -2.2760    8.6390 ha        1 RZX      0.138250
     29 H6         -2.4440   -4.0470    7.5200 ha        1 RZX      0.138250
     30 HN7        -2.5500    1.4900    5.7280 DU        1 RZX      0.277000
     31 H11        -1.5800    0.4570    1.1770 h1        1 RZX      0.151000
     32 H11A       -1.6890    2.1220    1.3230 h1        1 RZX      0.151000
     33 H14         3.2670    2.1050    0.4040 ha        1 RZX      0.162000
     34 H15         2.9890    1.8580   -1.9520 ha        1 RZX      0.149000
     35 H20         2.5870    0.8560   -3.7130 h1        1 RZX      0.082500
     36 H20A        1.6320   -0.4750   -3.4470 h1        1 RZX      0.082500
     37 H21         0.4160    0.2260   -5.4890 hc        1 RZX      0.113000
     38 H21A        1.5010    1.2610   -5.7640 hc        1 RZX      0.113000
     39 H22         3.1090   -0.4570   -5.9550 h1        1 RZX      0.066500
     40 H22A        1.9910   -1.5680   -5.6530 h1        1 RZX      0.066500
     41 H24         2.5790   -2.5080   -7.8380 h1        1 RZX      0.074000
     42 H24A        2.4620   -1.5400   -9.0990 h1        1 RZX      0.074000
     43 H24B        3.6930   -1.3100   -8.0570 h1        1 RZX      0.074000
     44 H25        -1.5840    0.5650   -2.2780 hc        1 RZX      0.092333
     45 H25A       -1.7730    2.1870   -1.9590 hc        1 RZX      0.092333
     46 H25B       -2.2070    1.0460   -0.8800 hc        1 RZX      0.092333
@<TRIPOS>BOND
     1    1    6 1   
     2    1   26 1   
     3    2    3 1   
     4    4    5 1   
     5    4   27 1   
     6    5   28 1   
     7    6   29 1   
     8    7    8 1   
     9    8    9 1   
    10   10   11 1   
    11   10   18 1   
    12   11   12 1   
    13   11   31 1   
    14   11   32 1   
    15   12   13 1   
    16   12   17 1   
    17   13   14 1   
    18   14   33 1   
    19   15   16 1   
    20   15   34 1   
    21   16   19 1   
    22   17   25 1   
    23   19   20 1   
    24   20   21 1   
    25   20   35 1   
    26   20   36 1   
    27   21   22 1   
    28   21   37 1   
    29   21   38 1   
    30   22   23 1   
    31   22   39 1   
    32   22   40 1   
    33   23   24 1   
    34   24   41 1   
    35   24   42 1   
    36   24   43 1   
    37   25   44 1   
    38   25   45 1   
    39   25   46 1   
@<TRIPOS>SUBSTRUCTURE
     1 RZX         1 TEMP              0 ****  ****    0 ROOT
