@<TRIPOS>MOLECULE
RZX
   46    48     1     0     0
SMALL
bcc


@<TRIPOS>ATOM
      1 C1          0.4500   -1.7630    0.8220 ca        1 RZX     -0.061000
      2 C2          1.7270   -1.1900    0.6800 ca        1 RZX      0.050400
      3 C3          1.9440    0.1820    1.1120 ca        1 RZX     -0.063200
      4 C4          0.9040    0.9440    1.6700 ca        1 RZX     -0.136000
      5 C5         -0.3330    0.3380    1.7890 ca        1 RZX     -0.104000
      6 C6         -0.5560   -0.9920    1.3720 ca        1 RZX     -0.158000
      7 N7          3.2800    0.4550    0.8420 na        1 RZX     -0.228300
      8 C8          3.8340   -0.7120    0.2810 cc        1 RZX      0.307100
      9 N9          2.9260   -1.7070    0.1700 nd        1 RZX     -0.524100
     10 S10         5.5200   -0.8720   -0.1360 sx        1 RZX      0.442300
     11 C11         5.3410   -0.9560   -1.8910 c3        1 RZX     -0.155400
     12 C12         6.5860   -1.4740   -2.5340 ca        1 RZX      0.454600
     13 N13         7.5840   -1.9120   -1.7200 nb        1 RZX     -0.723000
     14 C14         8.7030   -2.3740   -2.2950 ca        1 RZX      0.442200
     15 C15         8.9050   -2.4340   -3.6850 ca        1 RZX     -0.326300
     16 C16         7.8710   -1.9830   -4.5140 ca        1 RZX      0.169100
     17 C17         6.6730   -1.4870   -3.9440 ca        1 RZX     -0.199600
     18 O18         6.0650    0.4730    0.1370 o         1 RZX     -0.514200
     19 O19         7.9230   -1.9800   -5.8890 os        1 RZX     -0.320900
     20 C20         9.1350   -2.4820   -6.4730 c3        1 RZX      0.129400
     21 C21         8.9380   -2.3740   -7.9730 c3        1 RZX     -0.091400
     22 C22        10.1800   -2.8770   -8.6850 c3        1 RZX      0.130400
     23 O23         9.9210   -2.7530  -10.0820 os        1 RZX     -0.418600
     24 C24        11.0110   -3.1890  -10.8770 c3        1 RZX      0.115700
     25 C25         5.5590   -0.9970   -4.7820 c3        1 RZX     -0.045800
     26 H1          0.2710   -2.7990    0.5000 ha        1 RZX      0.147000
     27 H4          1.0720    1.9790    1.9960 ha        1 RZX      0.139000
     28 H5         -1.1730    0.9040    2.2200 ha        1 RZX      0.133000
     29 H6         -1.5630   -1.4190    1.4930 ha        1 RZX      0.134000
     30 HN7         3.7760    1.2920    1.0210 hn        1 RZX      0.326700
     31 H11         4.4940   -1.6420   -2.1540 h1        1 RZX      0.111700
     32 H11A        5.1020    0.0440   -2.3370 h1        1 RZX      0.111700
     33 H14         9.4910   -2.7170   -1.6000 h4        1 RZX      0.025100
     34 H15         9.8480   -2.8230   -4.0840 ha        1 RZX      0.149000
     35 H20        10.0010   -1.8570   -6.1300 h1        1 RZX      0.043200
     36 H20A        9.2870   -3.5480   -6.1580 h1        1 RZX      0.043200
     37 H21         8.7390   -1.3090   -8.2590 hc        1 RZX      0.073700
     38 H21A        8.0460   -2.9740   -8.2890 hc        1 RZX      0.073700
     39 H22        10.3820   -3.9530   -8.4340 h1        1 RZX      0.027200
     40 H22A       11.0800   -2.2630   -8.4120 h1        1 RZX      0.027200
     41 H24        11.9220   -2.5750  -10.6680 h1        1 RZX      0.034700
     42 H24A       10.6660   -3.0340  -11.9300 h1        1 RZX      0.034700
     43 H24B       11.2290   -4.2690  -10.6900 h1        1 RZX      0.034700
     44 H25         5.7400   -1.2140   -5.8640 hc        1 RZX      0.053033
     45 H25A        5.4440    0.1100   -4.6580 hc        1 RZX      0.053033
     46 H25B        4.5990   -1.4840   -4.4770 hc        1 RZX      0.053033
@<TRIPOS>BOND
     1    1    2 ar  
     2    1    6 ar  
     3    1   26 1   
     4    2    3 ar  
     5    2    9 1   
     6    3    4 ar  
     7    3    7 1   
     8    4    5 ar  
     9    4   27 1   
    10    5    6 ar  
    11    5   28 1   
    12    6   29 1   
    13    7    8 1   
    14    7   30 1   
    15    8    9 2   
    16    8   10 1   
    17   10   11 1   
    18   10   18 2   
    19   11   12 1   
    20   11   31 1   
    21   11   32 1   
    22   12   13 ar  
    23   12   17 ar  
    24   13   14 ar  
    25   14   15 ar  
    26   14   33 1   
    27   15   16 ar  
    28   15   34 1   
    29   16   17 ar  
    30   16   19 1   
    31   17   25 1   
    32   19   20 1   
    33   20   21 1   
    34   20   35 1   
    35   20   36 1   
    36   21   22 1   
    37   21   37 1   
    38   21   38 1   
    39   22   23 1   
    40   22   39 1   
    41   22   40 1   
    42   23   24 1   
    43   24   41 1   
    44   24   42 1   
    45   24   43 1   
    46   25   44 1   
    47   25   45 1   
    48   25   46 1   
@<TRIPOS>SUBSTRUCTURE
     1 RZX         1 TEMP              0 ****  ****    0 ROOT
