@<TRIPOS>MOLECULE
RZX
   46    48     1     0     0
SMALL
bcc


@<TRIPOS>ATOM
      1 C1          6.0020    0.9570    2.0200 ca        1 RZX     -0.061000
      2 C2          5.1720    0.2350    1.1430 ca        1 RZX      0.050400
      3 C3          5.6270   -0.0290   -0.2140 ca        1 RZX     -0.063200
      4 C4          6.8800    0.4210   -0.6630 ca        1 RZX     -0.136000
      5 C5          7.6600    1.1270    0.2350 ca        1 RZX     -0.104000
      6 C6          7.2290    1.3900    1.5520 ca        1 RZX     -0.158000
      7 N7          4.6030   -0.7450   -0.8220 na        1 RZX     -0.228300
      8 C8          3.5860   -0.9060    0.1390 cc        1 RZX      0.307100
      9 N9          3.9000   -0.3270    1.3190 nd        1 RZX     -0.524100
     10 S10         2.1320   -1.8260   -0.1450 sx        1 RZX      0.442300
     11 C11         0.9760   -0.4910   -0.1190 c3        1 RZX     -0.155400
     12 C12        -0.4220   -0.9920    0.0400 ca        1 RZX      0.454600
     13 N13        -0.5950   -2.3230    0.2640 nb        1 RZX     -0.723000
     14 C14        -1.8490   -2.7760    0.4030 ca        1 RZX      0.442200
     15 C15        -2.9910   -1.9590    0.3340 ca        1 RZX     -0.326300
     16 C16        -2.8020   -0.5900    0.1060 ca        1 RZX      0.169100
     17 C17        -1.4910   -0.0740   -0.0470 ca        1 RZX     -0.199600
     18 O18         2.2480   -2.2140   -1.5650 o         1 RZX     -0.514200
     19 O19        -3.8210    0.3300    0.0140 os        1 RZX     -0.320900
     20 C20        -5.1510   -0.1870    0.1710 c3        1 RZX      0.129400
     21 C21        -6.0710    1.0110    0.0320 c3        1 RZX     -0.091400
     22 C22        -7.5130    0.5620    0.1750 c3        1 RZX      0.130400
     23 O23        -8.3150    1.7340    0.0420 os        1 RZX     -0.418600
     24 C24        -9.7010    1.4590    0.1530 c3        1 RZX      0.115700
     25 C25        -1.2470    1.3610   -0.2940 c3        1 RZX     -0.045800
     26 H1          5.6720    1.1640    3.0480 ha        1 RZX      0.147000
     27 H4          7.2210    0.2190   -1.6870 ha        1 RZX      0.139000
     28 H5          8.6480    1.4960   -0.0820 ha        1 RZX      0.133000
     29 H6          7.8950    1.9560    2.2200 ha        1 RZX      0.134000
     30 HN7         4.5780   -1.1030   -1.7430 hn        1 RZX      0.326700
     31 H11         1.2070    0.1950    0.7380 h1        1 RZX      0.111700
     32 H11A        1.0270    0.1260   -1.0540 h1        1 RZX      0.111700
     33 H14        -1.9480   -3.8620    0.5800 h4        1 RZX      0.025100
     34 H15        -3.9870   -2.4000    0.4570 ha        1 RZX      0.149000
     35 H20        -5.3510   -0.9490   -0.6280 h1        1 RZX      0.043200
     36 H20A       -5.2500   -0.6620    1.1820 h1        1 RZX      0.043200
     37 H21        -5.8290    1.7760    0.8150 hc        1 RZX      0.073700
     38 H21A       -5.9200    1.4990   -0.9660 hc        1 RZX      0.073700
     39 H22        -7.7890   -0.1760   -0.6250 h1        1 RZX      0.027200
     40 H22A       -7.6930    0.0940    1.1800 h1        1 RZX      0.027200
     41 H24       -10.0300    0.7570   -0.6530 h1        1 RZX      0.034700
     42 H24A       -9.9390    1.0240    1.1550 h1        1 RZX      0.034700
     43 H24B      -10.1920    2.4560    0.0300 h1        1 RZX      0.034700
     44 H25        -0.8480    1.5110   -1.3290 hc        1 RZX      0.053033
     45 H25A       -2.1880    1.9570   -0.1900 hc        1 RZX      0.053033
     46 H25B       -0.4930    1.7590    0.4320 hc        1 RZX      0.053033
@<TRIPOS>BOND
     1    1    2 ar  
     2    1    6 ar  
     3    1   26 1   
     4    2    3 ar  
     5    2    9 1   
     6    3    4 ar  
     7    3    7 1   
     8    4    5 ar  
     9    4   27 1   
    10    5    6 ar  
    11    5   28 1   
    12    6   29 1   
    13    7    8 1   
    14    7   30 1   
    15    8    9 2   
    16    8   10 1   
    17   10   11 1   
    18   10   18 2   
    19   11   12 1   
    20   11   31 1   
    21   11   32 1   
    22   12   13 ar  
    23   12   17 ar  
    24   13   14 ar  
    25   14   15 ar  
    26   14   33 1   
    27   15   16 ar  
    28   15   34 1   
    29   16   17 ar  
    30   16   19 1   
    31   17   25 1   
    32   19   20 1   
    33   20   21 1   
    34   20   35 1   
    35   20   36 1   
    36   21   22 1   
    37   21   37 1   
    38   21   38 1   
    39   22   23 1   
    40   22   39 1   
    41   22   40 1   
    42   23   24 1   
    43   24   41 1   
    44   24   42 1   
    45   24   43 1   
    46   25   44 1   
    47   25   45 1   
    48   25   46 1   
@<TRIPOS>SUBSTRUCTURE
     1 RZX         1 TEMP              0 ****  ****    0 ROOT
