@<TRIPOS>MOLECULE
N
   22    22     1     0     0
SMALL
bcc


@<TRIPOS>ATOM
      1 OP3         3.0410    1.5370   -0.4460 o         1 N       -0.930500
      2 P           1.7280    1.1720    0.1750 p5        1 N        1.330900
      3 OP1         1.7450    0.5910    1.5630 o         1 N       -0.930500
      4 OP2         0.5660    2.1180   -0.0620 o         1 N       -0.930500
      5 O5'         1.1940   -0.1720   -0.7870 os        1 N       -0.568200
      6 C5'         0.2990   -1.0240   -0.1950 c3        1 N        0.213400
      7 C4'        -1.1510   -0.7030   -0.6310 c3        1 N        0.068100
      8 O4'        -1.9980   -1.8410   -0.3530 os        1 N       -0.453600
      9 C3'        -1.7080    0.5180    0.1260 c3        1 N        0.098100
     10 O3'        -2.0500    1.5550   -0.7690 oh        1 N       -0.685800
     11 C2'        -2.9730    0.0170    0.8530 c3        1 N        0.108100
     12 O2'        -4.1710    0.7030    0.5340 oh        1 N       -0.640800
     13 C1'        -3.0950   -1.4660    0.4670 c3        1 N        0.115400
     14 H5'         0.5130   -2.0820   -0.5290 h1        1 N        0.004200
     15 H5''        0.3720   -0.9740    0.9290 h1        1 N        0.004200
     16 H4'        -1.1960   -0.5370   -1.7390 h1        1 N        0.050700
     17 H3'        -0.9100    0.8990    0.8430 h1        1 N        0.151700
     18 HO3'       -1.2390    2.1100   -0.8310 ho        1 N        0.499000
     19 H2'        -2.8560    0.1280    1.9640 h1        1 N        0.051700
     20 HO2'       -4.0150    1.2120   -0.2710 ho        1 N        0.424000
     21 H1'        -4.0370   -1.6560   -0.1110 h1        1 N        0.010700
     22 H1'2       -3.0750   -2.1270    1.3710 h1        1 N        0.010700
@<TRIPOS>BOND
     1    1    2 1   
     2    2    3 1   
     3    2    4 1   
     4    2    5 1   
     5    5    6 1   
     6    6    7 1   
     7    6   14 1   
     8    6   15 1   
     9    7    8 1   
    10    7    9 1   
    11    7   16 1   
    12    8   13 1   
    13    9   10 1   
    14    9   11 1   
    15    9   17 1   
    16   10   18 1   
    17   11   12 1   
    18   11   13 1   
    19   11   19 1   
    20   12   20 1   
    21   13   21 1   
    22   13   22 1   
@<TRIPOS>SUBSTRUCTURE
     1 N           1 TEMP              0 ****  ****    0 ROOT
