@<TRIPOS>MOLECULE
N04
   52    54     1     0     0
SMALL
bcc


@<TRIPOS>ATOM
      1 OE2        -9.0620   -1.8640   -2.0320 o         1 N04     -0.873800
      2 CD         -9.1470   -2.0900   -0.7860 c         1 N04      0.904600
      3 OE1       -10.0660   -2.8120   -0.2910 o         1 N04     -0.873800
      4 CG         -8.0770   -1.5200    0.1530 c3        1 N04     -0.183400
      5 CB         -8.0270   -0.0110    0.1350 c3        1 N04     -0.054400
      6 C          -6.9860    2.1030    1.0480 c         1 N04      0.902600
      7 OXT        -7.6420    2.4550    2.0660 o         1 N04     -0.851300
      8 O          -6.4760    2.9150    0.2200 o         1 N04     -0.851300
      9 N          -5.5730    0.3100    0.0500 n         1 N04     -0.472900
     10 CAU        -4.4100   -0.1590    0.5820 c         1 N04      0.648700
     11 OBC        -4.2860   -0.6800    1.7160 o         1 N04     -0.654100
     12 CAT        -3.2010   -0.0970   -0.3180 ca        1 N04     -0.107600
     13 CAQ        -2.0020    0.3820    0.2140 ca        1 N04     -0.079000
     14 CAS        -3.2570   -0.5210   -1.6490 ca        1 N04     -0.087000
     15 CAR        -2.1120   -0.4580   -2.4440 ca        1 N04     -0.150000
     16 CAP        -0.9190    0.0400   -1.9250 ca        1 N04     -0.112000
     17 CAO        -0.8620    0.4650   -0.5940 ca        1 N04     -0.131300
     18 CAN         0.3750    1.0600   -0.0180 c3        1 N04      0.182700
     19 CAA         2.9600    1.8470    0.7490 ca        1 N04     -0.176000
     20 CAB         4.2670    2.1920    1.0850 ca        1 N04     -0.101000
     21 CAG         5.3520    1.5290    0.5190 ca        1 N04     -0.141000
     22 CAC         2.7430    0.8170   -0.1790 ca        1 N04      0.141100
     23 CAE         3.8320    0.1400   -0.7580 ca        1 N04     -0.129000
     24 CAF         5.1420    0.4930   -0.4060 ca        1 N04     -0.078800
     25 CAH         6.2270   -0.2370   -1.0270 ce        1 N04      0.052800
     26 SBG         8.3300    0.6840    0.5250 ss        1 N04     -0.096200
     27 CAL         9.9230    0.0230    0.1340 c         1 N04      0.699100
     28 NAX         9.8200   -0.8650   -0.9440 n         1 N04     -0.616500
     29 CA         -6.7800    0.5640    0.8250 c3        1 N04     -0.046300
     30 CAK         8.5190   -1.0320   -1.4550 c         1 N04      0.709700
     31 CAI         7.5340   -0.2040   -0.7060 cd        1 N04     -0.165600
     32 OAY         1.5090    0.3850   -0.6010 os        1 N04     -0.318900
     33 HG1C       -8.2740   -1.8800    1.1950 hc        1 N04      0.018700
     34 HG2C       -7.0920   -1.9440   -0.1720 hc        1 N04      0.018700
     35 HB1C       -8.0850    0.3480   -0.9260 hc        1 N04      0.051700
     36 HB2C       -8.9140    0.4050    0.6810 hc        1 N04      0.051700
     37 HA         -6.6620    0.0780    1.8350 h1        1 N04      0.070700
     38 H          -5.5080    0.8900   -0.7620 hn        1 N04      0.314500
     39 HAQ        -1.9720    0.6900    1.2710 ha        1 N04      0.149000
     40 HAS        -4.2040   -0.9050   -2.0650 ha        1 N04      0.166000
     41 HAR        -2.1550   -0.7970   -3.4890 ha        1 N04      0.124000
     42 HAP        -0.0180    0.0960   -2.5520 ha        1 N04      0.122000
     43 HAN1        0.4390    2.1530   -0.2740 h1        1 N04      0.046700
     44 HAN2        0.4080    0.9270    1.0970 h1        1 N04      0.046700
     45 HAA         2.1170    2.3810    1.2110 ha        1 N04      0.154000
     46 HAB         4.4420    3.0020    1.8100 ha        1 N04      0.136000
     47 HAE         3.6340   -0.6660   -1.4810 ha        1 N04      0.156000
     48 HAG         6.3720    1.8400    0.7970 ha        1 N04      0.134000
     49 HAH         5.9280   -0.9070   -1.8640 ha        1 N04      0.162000
     50 HAX        10.6000   -1.3490   -1.3180 hn        1 N04      0.347500
     51 OBE         8.2810   -1.7840   -2.4090 o         1 N04     -0.584500
     52 OBH        10.9960    0.2780    0.6940 o         1 N04     -0.575500
@<TRIPOS>BOND
     1    1    2 1   
     2    2    3 1   
     3    2    4 1   
     4    4    5 1   
     5    4   33 1   
     6    4   34 1   
     7    5   29 1   
     8    5   35 1   
     9    5   36 1   
    10    6    7 1   
    11    6    8 1   
    12    6   29 1   
    13    9   10 1   
    14    9   29 1   
    15    9   38 1   
    16   10   11 2   
    17   10   12 1   
    18   12   13 ar  
    19   12   14 ar  
    20   13   17 ar  
    21   13   39 1   
    22   14   15 ar  
    23   14   40 1   
    24   15   16 ar  
    25   15   41 1   
    26   16   17 ar  
    27   16   42 1   
    28   17   18 1   
    29   18   32 1   
    30   18   43 1   
    31   18   44 1   
    32   19   20 ar  
    33   19   22 ar  
    34   19   45 1   
    35   20   21 ar  
    36   20   46 1   
    37   21   24 ar  
    38   21   48 1   
    39   22   23 ar  
    40   22   32 1   
    41   23   24 ar  
    42   23   47 1   
    43   24   25 1   
    44   25   31 2   
    45   25   49 1   
    46   26   27 1   
    47   26   31 1   
    48   27   28 1   
    49   27   52 2   
    50   28   30 1   
    51   28   50 1   
    52   29   37 1   
    53   30   31 1   
    54   30   51 2   
@<TRIPOS>SUBSTRUCTURE
     1 N04         1 TEMP              0 ****  ****    0 ROOT
