@<TRIPOS>MOLECULE
N04
   53    51     1     0     0
SMALL
bcc


@<TRIPOS>ATOM
      1 OE2        -0.1170   -2.0420   -0.1930 oh        1 N04     -0.294000
      2 CD         -0.6010   -0.7730   -0.1150 c2        1 N04      0.304000
      3 OE1        -1.4330   -0.6210    0.7860 o         1 N04     -0.347000
      4 CG         -0.1410    0.3110   -1.0520 c3        1 N04     -0.070000
      5 CB          0.8250   -0.1070   -2.0140 c1        1 N04     -0.301000
      6 C           2.6300   -0.8550   -3.8240 c2        1 N04      0.419000
      7 OXT         3.0360   -2.0550   -3.7880 o         1 N04     -0.557000
      8 O           3.0430   -0.0210   -4.6790 o         1 N04     -0.557000
      9 N           5.7870    0.4110   -5.8360 n         1 N04     -0.407000
     10 CAU         6.6210   -0.5960   -6.2230 c2        1 N04      0.334000
     11 OBC         7.6400   -0.3660   -6.9180 o         1 N04     -0.437000
     12 CAT         6.2690   -1.9800   -5.7500 c2        1 N04      0.006000
     13 CAQ         7.1300   -2.6580   -4.9710 c2        1 N04     -0.117000
     14 CAS         4.9600   -2.4270   -6.1690 c2        1 N04     -0.482000
     15 CAR         4.5200   -3.0830   -7.2050 c1        1 N04      0.143000
     16 CAP         5.4780   -4.3100   -4.0220 c3        1 N04     -0.201000
     17 CAO         6.8840   -3.9410   -4.3350 c2        1 N04     -0.054000
     18 CAN         7.8640   -4.7960   -3.9830 c2        1 N04     -0.087000
     19 CAA         8.4180   -2.5110  -10.1720 c3        1 N04     -0.189000
     20 CAB         9.1690   -1.9100   -9.0500 c2        1 N04     -0.038000
     21 CAG        10.0320   -2.5420   -8.3040 c1        1 N04     -0.139000
     22 CAC         9.6880   -4.1120   -5.2500 c1        1 N04     -0.008000
     23 CAE        10.2230   -3.7240   -6.2470 c1        1 N04     -0.166000
     24 CAF        10.7850   -3.1720   -7.4120 c2        1 N04      0.068000
     25 CAH        12.2190   -3.2970   -7.6060 c2        1 N04      0.039000
     26 SBG        12.0000   -1.9010   -9.9210 ss        1 N04      0.366000
     27 CAL        13.4890   -1.6310  -10.8440 c2        1 N04      0.149000
     28 NAX        14.5830   -2.2060  -10.1780 n         1 N04     -0.400000
     29 CA          1.6380   -0.4280   -2.8350 c1        1 N04     -0.064000
     30 CAK        14.2710   -2.8530   -8.9670 c2        1 N04      0.358000
     31 CAI        12.8190   -2.7650   -8.6890 c2        1 N04     -0.397000
     32 OAY         9.2510   -4.6060   -4.0980 os        1 N04     -0.072000
     33 HG1C        1.4270    2.8030    0.7360 ha        1 N04      0.001000
     34 HG2C        0.8030    3.0590    0.7930 ha        1 N04      0.001000
     35 HB1C        0.2780    1.1470   -0.4180 hc        1 N04      0.126500
     36 HB2C       -1.0570    0.7150   -1.5720 hc        1 N04      0.126500
     37 HA          0.5310   -2.1120   -0.9140 ho        1 N04      0.253000
     38 H           4.9260    0.2110   -5.3680 hn        1 N04      0.248500
     39 HAQ         8.1180   -2.2080   -4.7560 ha        1 N04      0.143000
     40 HAS         4.1290   -2.1120   -5.4360 ha        1 N04      0.308000
     41 HAR         4.9030   -3.4170   -3.6560 hc        1 N04      0.105333
     42 HAP         4.9700   -4.6790   -4.9500 hc        1 N04      0.105333
     43 HAN1        5.4300   -5.1120   -3.2460 hc        1 N04      0.105333
     44 HAN2        7.7070   -5.7500   -3.4550 h4        1 N04      0.161000
     45 HAA         8.7000   -3.5780  -10.3470 hc        1 N04      0.093667
     46 HAB         8.6080   -1.9320  -11.1110 hc        1 N04      0.093667
     47 HAE         7.3220   -2.4640   -9.9430 hc        1 N04      0.093667
     48 HAG         8.9420   -0.8440   -8.8260 ha        1 N04      0.189000
     49 HAH        12.8020   -3.8400   -6.8420 ha        1 N04      0.166000
     50 HAX        15.5100   -2.1590  -10.5270 hn        1 N04      0.255000
     51 OBH        13.6160   -1.0330  -11.9200 o         1 N04     -0.309000
     52 H2          5.9410    1.3250   -6.1790 hn        1 N04      0.248500
     53 OBE        15.1330   -3.4060   -8.2720 o         1 N04     -0.320000
@<TRIPOS>BOND
     1    1    2 1   
     2    1   37 1   
     3    2    3 1   
     4    2    4 1   
     5    4    5 1   
     6    4   35 1   
     7    4   36 1   
     8    5   29 1   
     9    6    7 1   
    10    6    8 1   
    11    6   29 1   
    12    9   10 1   
    13    9   38 1   
    14    9   52 1   
    15   10   11 1   
    16   10   12 1   
    17   12   13 1   
    18   12   14 1   
    19   13   17 1   
    20   13   39 1   
    21   14   15 1   
    22   14   40 1   
    23   16   17 1   
    24   16   41 1   
    25   16   42 1   
    26   16   43 1   
    27   17   18 1   
    28   18   32 1   
    29   18   44 1   
    30   19   20 1   
    31   19   45 1   
    32   19   46 1   
    33   19   47 1   
    34   20   21 1   
    35   20   48 1   
    36   21   24 1   
    37   22   23 1   
    38   22   32 1   
    39   23   24 1   
    40   24   25 1   
    41   25   31 1   
    42   25   49 1   
    43   26   27 1   
    44   26   31 1   
    45   27   28 1   
    46   27   51 1   
    47   28   30 1   
    48   28   50 1   
    49   30   31 1   
    50   30   53 1   
    51   33   34 1   
@<TRIPOS>SUBSTRUCTURE
     1 N04         1 TEMP              0 ****  ****    0 ROOT
