@<TRIPOS>MOLECULE
N04
   53    51     1     0     0
SMALL
bcc


@<TRIPOS>ATOM
      1 OE2         0.1550   -1.1360   -0.0670 oh        1 N04     -0.294000
      2 CD         -0.4770    0.0470   -0.2950 c2        1 N04      0.305000
      3 OE1        -1.2970    0.3410    0.5820 o         1 N04     -0.349000
      4 CG         -0.1780    0.8870   -1.5080 c3        1 N04     -0.067000
      5 CB          0.8060    0.3370   -2.3830 c1        1 N04     -0.302000
      6 C           2.6390   -0.6620   -4.0350 c2        1 N04      0.419000
      7 OXT         3.1870   -1.7580   -3.7110 o         1 N04     -0.557000
      8 O           2.9260   -0.0450   -5.1010 o         1 N04     -0.557000
      9 N           5.5650    0.3610   -6.4870 nt        1 N04     -0.407000
     10 CAU         6.5050   -0.6140   -6.6440 c2        1 N04      0.334000
     11 OBC         7.4700   -0.4670   -7.4320 o         1 N04     -0.436000
     12 CAT         6.3350   -1.8530   -5.8070 c2        1 N04      0.006000
     13 CAQ         7.2920   -2.2000   -4.9290 c2        1 N04     -0.117000
     14 CAS         5.0790   -2.5360   -6.0200 c2        1 N04     -0.482000
     15 CAR         4.6960   -3.4880   -6.8210 c1        1 N04      0.143000
     16 CAP         5.8770   -3.7120   -3.4890 c3        1 N04     -0.201000
     17 CAO         7.2200   -3.2870   -3.9670 c2        1 N04     -0.055000
     18 CAN         8.3050   -3.9050   -3.4600 c2        1 N04     -0.087000
     19 CAA         8.4190   -3.3000  -10.0530 c3        1 N04     -0.189000
     20 CAB         9.1200   -2.3430   -9.1710 c2        1 N04     -0.038000
     21 CAG        10.0720   -2.6550   -8.3360 c1        1 N04     -0.139000
     22 CAC        10.0000   -3.3850   -4.9640 c1        1 N04     -0.008000
     23 CAE        10.4570   -3.2200   -6.0560 c1        1 N04     -0.166000
     24 CAF        10.9180   -2.9390   -7.3550 c2        1 N04      0.068000
     25 CAH        12.3510   -2.9530   -7.5900 c2        1 N04      0.039000
     26 SBG        11.9060   -2.2540  -10.1740 ss        1 N04      0.366000
     27 CAL        13.3270   -2.0760  -11.2170 c2        1 N04      0.149000
     28 NAX        14.5000   -2.3300  -10.4880 ns        1 N04     -0.400000
     29 CA          1.6300   -0.1000   -3.1370 c1        1 N04     -0.062000
     30 CAK        14.2990   -2.6630   -9.1340 c2        1 N04      0.358000
     31 CAI        12.8550   -2.6640   -8.8070 c2        1 N04     -0.397000
     32 OAY         9.6550   -3.6010   -3.7000 os        1 N04     -0.072000
     33 HG1C       -0.8390   -2.1590    2.3060 ha        1 N04     -0.000500
     34 HG2C       -0.9370   -1.6090    1.9230 ha        1 N04     -0.000500
     35 HB1C       -1.1500    1.0340   -2.0620 hc        1 N04      0.125500
     36 HB2C        0.1520    1.9010   -1.1410 hc        1 N04      0.125500
     37 HA          0.7880   -1.3240   -0.7810 ho        1 N04      0.253000
     38 H           4.7470    0.2000   -5.9340 hn        1 N04      0.248500
     39 HAQ         8.2240   -1.6040   -4.8950 ha        1 N04      0.143000
     40 HAS         4.2360   -2.1310   -5.3480 ha        1 N04      0.308000
     41 HAR         5.2080   -2.8230   -3.3360 hc        1 N04      0.105333
     42 HAP         5.3940   -4.3680   -4.2580 hc        1 N04      0.105333
     43 HAN1        5.9470   -4.2790   -2.5290 hc        1 N04      0.105333
     44 HAN2        8.2790   -4.6950   -2.6930 h4        1 N04      0.161000
     45 HAA         8.5130   -2.9740  -11.1200 hc        1 N04      0.093667
     46 HAB         7.3320   -3.3140   -9.7830 hc        1 N04      0.093667
     47 HAE         8.8230   -4.3370   -9.9590 hc        1 N04      0.093667
     48 HAG         8.7720   -1.2870   -9.2200 ha        1 N04      0.189000
     49 HAH        13.0150   -3.2060   -6.7450 ha        1 N04      0.166000
     50 HAX        15.4050   -2.2770  -10.8880 hn        1 N04      0.255000
     51 OBH        13.3540   -1.7760  -12.4180 o         1 N04     -0.309000
     52 H2          5.5990    1.1630   -7.0640 hn        1 N04      0.248500
     53 OBE        15.2390   -2.9140   -8.3690 o         1 N04     -0.320000
@<TRIPOS>BOND
     1    1    2 1   
     2    1   37 1   
     3    2    3 1   
     4    2    4 1   
     5    4    5 1   
     6    4   35 1   
     7    4   36 1   
     8    5   29 1   
     9    6    7 1   
    10    6    8 1   
    11    6   29 1   
    12    9   10 1   
    13    9   38 1   
    14    9   52 1   
    15   10   11 1   
    16   10   12 1   
    17   12   13 1   
    18   12   14 1   
    19   13   17 1   
    20   13   39 1   
    21   14   15 1   
    22   14   40 1   
    23   16   17 1   
    24   16   41 1   
    25   16   42 1   
    26   16   43 1   
    27   17   18 1   
    28   18   32 1   
    29   18   44 1   
    30   19   20 1   
    31   19   45 1   
    32   19   46 1   
    33   19   47 1   
    34   20   21 1   
    35   20   48 1   
    36   21   24 1   
    37   22   23 1   
    38   22   32 1   
    39   23   24 1   
    40   24   25 1   
    41   25   31 1   
    42   25   49 1   
    43   26   27 1   
    44   26   31 1   
    45   27   28 1   
    46   27   51 1   
    47   28   30 1   
    48   28   50 1   
    49   30   31 1   
    50   30   53 1   
    51   33   34 1   
@<TRIPOS>SUBSTRUCTURE
     1 N04         1 TEMP              0 ****  ****    0 ROOT
