@<TRIPOS>MOLECULE
N04
   53    50     1     0     0
SMALL
bcc


@<TRIPOS>ATOM
      1 OE2        -1.7280   -2.9860   -2.2000 oh        1 N04     -0.295000
      2 CD         -2.6460   -1.9890   -2.3190 c2        1 N04      0.304000
      3 OE1        -3.8120   -2.3980   -2.3450 o         1 N04     -0.351000
      4 CG         -2.2400   -0.5430   -2.4080 c3        1 N04     -0.068000
      5 CB         -0.8330   -0.3170   -2.3420 c1        1 N04     -0.313000
      6 C           1.7890    0.1470   -2.2200 c2        1 N04      0.419000
      7 OXT         2.5550   -0.8640   -2.1630 o         1 N04     -0.559500
      8 O           2.2140    1.3340   -2.2140 o         1 N04     -0.559500
      9 N           4.9940    0.8940   -2.2000 n         1 N04     -0.367000
     10 CAU         6.0130    0.5050   -3.0240 c2        1 N04      0.313000
     11 OBC         6.6810    1.3450   -3.6780 o         1 N04     -0.421000
     12 CAT         6.4130   -0.9450   -3.0560 c2        1 N04     -0.016000
     13 CAQ         7.6860   -1.2440   -3.3960 c2        1 N04     -0.144000
     14 CAS         5.4180   -1.9500   -2.7590 c2        1 N04     -0.433000
     15 CAR         5.6070   -3.1880   -2.3630 c1        1 N04      0.124000
     16 CAP         8.0730   -3.5270   -2.5360 c2        1 N04     -0.061000
     17 CAO         8.2310   -2.5860   -3.4950 c2        1 N04     -0.201000
     18 CAN         8.9890   -3.0090   -4.6750 c1        1 N04      0.067000
     19 CAA         9.8740   -1.1030  -11.8360 c3        1 N04     -0.188000
     20 CAB        10.9190   -0.9700  -10.7980 c2        1 N04     -0.063000
     21 CAG        11.1190   -1.8260   -9.8370 c1        1 N04     -0.141000
     22 CAC         9.9450   -2.2700   -6.6000 c1        1 N04      0.042000
     23 CAE        10.5610   -2.4610   -7.6050 c1        1 N04     -0.165000
     24 CAF        11.2680   -2.6450   -8.8060 c2        1 N04      0.091000
     25 CAH        12.1840   -3.7750   -8.8750 c2        1 N04      0.027000
     26 SBG        12.9730   -3.0460  -11.3790 ss        1 N04      0.340000
     27 CAL        14.2130   -4.0530  -12.1530 c2        1 N04      0.163000
     28 NAX        14.5750   -5.1070  -11.3030 n         1 N04     -0.397000
     29 CA          0.3440   -0.0930   -2.2880 c1        1 N04     -0.059000
     30 CAK        13.9060   -5.1340  -10.0640 c2        1 N04      0.354000
     31 CAI        12.9510   -4.0010   -9.9590 c2        1 N04     -0.379000
     32 OAY         9.2560   -1.9580   -5.4990 os        1 N04     -0.053000
     33 HG1C       -4.0680    1.2510   -0.0970 ha        1 N04      0.000250
     34 HG2C       -3.4880    1.2470    0.2520 ha        1 N04      0.000250
     35 HB1C       -2.6530   -0.1380   -3.3760 hc        1 N04      0.125000
     36 HB2C       -2.7610    0.0050   -1.5690 hc        1 N04      0.125000
     37 HA         -0.8290   -2.6150   -2.1830 ho        1 N04      0.254000
     38 H           4.3240    0.2180   -1.8830 hn        1 N04      0.247500
     39 HAQ         8.3720   -0.4230   -3.6820 ha        1 N04      0.166000
     40 HAS         4.3350   -1.6460   -2.8700 ha        1 N04      0.271000
     41 HAR         7.6140   -3.3140   -1.5560 ha        1 N04      0.141000
     42 HAP         8.4560   -4.5500   -2.6710 ha        1 N04      0.141000
     43 HAN1        9.9040   -6.0310   -4.1180 ha        1 N04      0.000250
     44 HAN2        9.7270   -5.4150   -4.3410 ha        1 N04      0.000250
     45 HAA        10.3460   -1.1120  -12.8510 hc        1 N04      0.095333
     46 HAB         9.1790   -0.2280  -11.7760 hc        1 N04      0.095333
     47 HAE         9.2770   -2.0390  -11.7120 hc        1 N04      0.095333
     48 HAG        11.5580   -0.0670  -10.8730 ha        1 N04      0.151000
     49 HAH        12.2340   -4.4460   -7.9980 ha        1 N04      0.176000
     50 HAX        15.2530   -5.7880  -11.5500 hn        1 N04      0.261000
     51 OBH        14.7140   -3.8970  -13.2720 o         1 N04     -0.297000
     52 H2          4.6070    1.8030   -2.3420 hn        1 N04      0.247500
     53 OBE        14.1230   -6.0040   -9.2120 o         1 N04     -0.303000
@<TRIPOS>BOND
     1    1    2 1   
     2    1   37 1   
     3    2    3 1   
     4    2    4 1   
     5    4    5 1   
     6    4   35 1   
     7    4   36 1   
     8    5   29 1   
     9    6    7 1   
    10    6    8 1   
    11    6   29 1   
    12    9   10 1   
    13    9   38 1   
    14    9   52 1   
    15   10   11 1   
    16   10   12 1   
    17   12   13 1   
    18   12   14 1   
    19   13   17 1   
    20   13   39 1   
    21   14   15 1   
    22   14   40 1   
    23   16   17 1   
    24   16   41 1   
    25   16   42 1   
    26   17   18 1   
    27   18   32 1   
    28   19   20 1   
    29   19   45 1   
    30   19   46 1   
    31   19   47 1   
    32   20   21 1   
    33   20   48 1   
    34   21   24 1   
    35   22   23 1   
    36   22   32 1   
    37   23   24 1   
    38   24   25 1   
    39   25   31 1   
    40   25   49 1   
    41   26   27 1   
    42   26   31 1   
    43   27   28 1   
    44   27   51 1   
    45   28   30 1   
    46   28   50 1   
    47   30   31 1   
    48   30   53 1   
    49   33   34 1   
    50   43   44 1   
@<TRIPOS>SUBSTRUCTURE
     1 N04         1 TEMP              0 ****  ****    0 ROOT
