@<TRIPOS>MOLECULE
N09
   41    44     1     0     0
SMALL
bcc


@<TRIPOS>ATOM
      1 O4          0.8200    1.0730    1.8960 o         1 N09     -0.560500
      2 C22         1.7870    0.4660    1.4450 c         1 N09      0.777200
      3 C17         3.0980    0.2430    1.9740 cc        1 N09     -0.363900
      4 C16         3.7530    0.6740    3.1840 cc        1 N09      0.397200
      5 N3          5.0280    0.2300    3.1910 nd        1 N09     -0.532800
      6 O3          1.5040   -0.0650    0.1810 os        1 N09     -0.330200
      7 C20         2.4360   -0.8410   -0.4760 ca        1 N09      0.164100
      8 C26         1.9980   -1.3650   -1.7080 ca        1 N09     -0.150000
      9 C25         2.8480   -2.1860   -2.4340 ca        1 N09     -0.078000
     10 C24         4.1210   -2.5040   -1.9440 ca        1 N09     -0.153000
     11 C23         4.5590   -1.9850   -0.7330 ca        1 N09     -0.080000
     12 C19         3.7360   -1.1240    0.0100 ca        1 N09     -0.114000
     13 C18         4.0770   -0.5080    1.2640 cd        1 N09      0.055700
     14 N2          5.2350   -0.4690    2.0430 na        1 N09      0.090400
     15 C13         6.5400   -0.9730    1.6840 c3        1 N09     -0.029700
     16 C11         6.7720   -2.4510    2.0630 c         1 N09      0.649100
     17 O2          7.1210   -3.2390    1.1670 o         1 N09     -0.584100
     18 N1          6.6150   -2.7800    3.3920 ns        1 N09     -0.451100
     19 C4          6.7670   -4.0520    3.9740 ca        1 N09      0.095600
     20 C3          7.2620   -5.1660    3.2700 ca        1 N09     -0.180000
     21 C2          7.3980   -6.3920    3.9140 ca        1 N09     -0.074000
     22 C5          6.4140   -4.2010    5.3370 ca        1 N09     -0.249000
     23 C6          6.5570   -5.4380    5.9680 ca        1 N09      0.161100
     24 C1          7.0540   -6.5520    5.2560 ca        1 N09     -0.032600
     25 Cl          7.2450   -8.0740    5.9810 cl        1 N09     -0.069400
     26 O1          6.2370   -5.6540    7.2930 os        1 N09     -0.310900
     27 C8          5.6910   -4.5510    8.0080 c3        1 N09      0.111700
     28 H1          3.3280    1.2690    3.9960 h4        1 N09      0.066100
     29 H2          0.9880   -1.1170   -2.0660 ha        1 N09      0.163000
     30 H3          2.5140   -2.5990   -3.3980 ha        1 N09      0.145000
     31 H4          4.7750   -3.1760   -2.5190 ha        1 N09      0.147000
     32 H5          5.5490   -2.2810   -0.3490 ha        1 N09      0.157000
     33 H6          7.3410   -0.3540    2.1830 h1        1 N09      0.105700
     34 H7          6.6670   -0.8830    0.5670 h1        1 N09      0.105700
     35 H8          6.3140   -2.0590    4.0140 hn        1 N09      0.335500
     36 H9          7.5450   -5.0870    2.2080 ha        1 N09      0.176000
     37 H10         7.7860   -7.2540    3.3460 ha        1 N09      0.153000
     38 H11         6.0240   -3.3410    5.9020 ha        1 N09      0.143000
     39 H12         6.4300   -3.7150    8.0680 h1        1 N09      0.048033
     40 H13         5.4980   -4.9790    9.0250 h1        1 N09      0.048033
     41 H14         4.7390   -4.2050    7.5390 h1        1 N09      0.048033
@<TRIPOS>BOND
     1    1    2 2   
     2    2    3 1   
     3    2    6 1   
     4    3    4 1   
     5    3   13 2   
     6    4    5 2   
     7    4   28 1   
     8    5   14 1   
     9    6    7 1   
    10    7    8 ar  
    11    7   12 ar  
    12    8    9 ar  
    13    8   29 1   
    14    9   10 ar  
    15    9   30 1   
    16   10   11 ar  
    17   10   31 1   
    18   11   12 ar  
    19   11   32 1   
    20   12   13 1   
    21   13   14 1   
    22   14   15 1   
    23   15   16 1   
    24   15   33 1   
    25   15   34 1   
    26   16   17 2   
    27   16   18 1   
    28   18   19 1   
    29   18   35 1   
    30   19   20 ar  
    31   19   22 ar  
    32   20   21 ar  
    33   20   36 1   
    34   21   24 ar  
    35   21   37 1   
    36   22   23 ar  
    37   22   38 1   
    38   23   24 ar  
    39   23   26 1   
    40   24   25 1   
    41   26   27 1   
    42   27   39 1   
    43   27   40 1   
    44   27   41 1   
@<TRIPOS>SUBSTRUCTURE
     1 N09         1 TEMP              0 ****  ****    0 ROOT
