@<TRIPOS>MOLECULE
N09
   41    44     1     0     0
SMALL
bcc


@<TRIPOS>ATOM
      1 O4          1.1490    1.4240    1.8910 o         1 N09     -0.560500
      2 C22         2.0400    0.7130    1.4320 c         1 N09      0.777200
      3 C17         3.3430    0.3890    1.9240 cc        1 N09     -0.363900
      4 C16         4.0800    0.8020    3.0930 cc        1 N09      0.397200
      5 N3          5.3090    0.2420    3.0740 nd        1 N09     -0.531800
      6 O3          1.6610    0.1650    0.2010 os        1 N09     -0.330200
      7 C20         2.4940   -0.7180   -0.4560 ca        1 N09      0.164100
      8 C26         1.9640   -1.2440   -1.6500 ca        1 N09     -0.150000
      9 C25         2.7070   -2.1660   -2.3710 ca        1 N09     -0.078000
     10 C24         3.9620   -2.5830   -1.9130 ca        1 N09     -0.153000
     11 C23         4.4910   -2.0630   -0.7390 ca        1 N09     -0.080000
     12 C19         3.7800   -1.1020   -0.0030 ca        1 N09     -0.114000
     13 C18         4.2220   -0.4750    1.2120 cd        1 N09      0.055700
     14 N2          5.4070   -0.5140    1.9500 na        1 N09      0.090400
     15 C13         6.6460   -1.1500    1.5660 c3        1 N09     -0.029700
     16 C11         6.7570   -2.6290    1.9980 c         1 N09      0.649100
     17 O2          6.9970   -3.4790    1.1220 o         1 N09     -0.584100
     18 N1          6.6220   -2.8900    3.3440 n         1 N09     -0.451100
     19 C4          6.6810   -4.1480    3.9720 ca        1 N09      0.095600
     20 C3          7.0370   -5.3310    3.2960 ca        1 N09     -0.180000
     21 C2          7.0860   -6.5390    3.9850 ca        1 N09     -0.074000
     22 C5          6.3780   -4.2100    5.3540 ca        1 N09     -0.249000
     23 C6          6.4330   -5.4300    6.0310 ca        1 N09      0.161100
     24 C1          6.7900   -6.6130    5.3460 ca        1 N09     -0.032600
     25 CL          6.8700   -8.1170    6.1260 cl        1 N09     -0.069400
     26 O1          6.1540   -5.5630    7.3750 os        1 N09     -0.310900
     27 C8          5.7500   -4.3860    8.0660 c3        1 N09      0.111700
     28 H1          3.7420    1.4630    3.8950 h4        1 N09      0.066100
     29 H2          0.9670   -0.9170   -1.9830 ha        1 N09      0.163000
     30 H3          2.3000   -2.5820   -3.3070 ha        1 N09      0.145000
     31 H4          4.5310   -3.3340   -2.4820 ha        1 N09      0.147000
     32 H5          5.4640   -2.4350   -0.3770 ha        1 N09      0.157000
     33 H6          7.5200   -0.5890    2.0120 h1        1 N09      0.105700
     34 H7          6.7390   -1.1150    0.4430 h1        1 N09      0.105700
     35 H8          6.4150   -2.1210    3.9460 hn        1 N09      0.335500
     36 H9          7.2780   -5.3200    2.2200 ha        1 N09      0.176000
     37 H10         7.3650   -7.4540    3.4380 ha        1 N09      0.153000
     38 H11         6.0970   -3.2960    5.8970 ha        1 N09      0.143000
     39 H12         5.5640   -4.7550    9.1070 h1        1 N09      0.048033
     40 H13         4.8130   -3.9680    7.6230 h1        1 N09      0.048033
     41 H14         6.5660   -3.6240    8.0590 h1        1 N09      0.048033
@<TRIPOS>BOND
     1    1    2 2   
     2    2    3 1   
     3    2    6 1   
     4    3    4 1   
     5    3   13 2   
     6    4    5 2   
     7    4   28 1   
     8    5   14 1   
     9    6    7 1   
    10    7    8 ar  
    11    7   12 ar  
    12    8    9 ar  
    13    8   29 1   
    14    9   10 ar  
    15    9   30 1   
    16   10   11 ar  
    17   10   31 1   
    18   11   12 ar  
    19   11   32 1   
    20   12   13 1   
    21   13   14 1   
    22   14   15 1   
    23   15   16 1   
    24   15   33 1   
    25   15   34 1   
    26   16   17 2   
    27   16   18 1   
    28   18   19 1   
    29   18   35 1   
    30   19   20 ar  
    31   19   22 ar  
    32   20   21 ar  
    33   20   36 1   
    34   21   24 ar  
    35   21   37 1   
    36   22   23 ar  
    37   22   38 1   
    38   23   24 ar  
    39   23   26 1   
    40   24   25 1   
    41   26   27 1   
    42   27   39 1   
    43   27   40 1   
    44   27   41 1   
@<TRIPOS>SUBSTRUCTURE
     1 N09         1 TEMP              0 ****  ****    0 ROOT
