@<TRIPOS>MOLECULE
N09
   42    45     1     0     0
SMALL
bcc


@<TRIPOS>ATOM
      1 O4          3.0400    1.6150    3.6670 o         1 N09     -0.521500
      2 C22         3.4640    0.7870    2.8700 c         1 N09      0.767200
      3 C17         4.7070    0.0700    2.8240 cc        1 N09     -0.355900
      4 C16         5.8860    0.1160    3.6630 cc        1 N09      0.446200
      5 N3          6.8130   -0.7310    3.1860 nd        1 N09     -0.596800
      6 O3          2.5480    0.5360    1.8440 os        1 N09     -0.312200
      7 C20         2.8040   -0.4310    0.8990 ca        1 N09      0.182100
      8 C26         1.7650   -0.6230   -0.0360 ca        1 N09     -0.137000
      9 C25         1.9010   -1.6020   -1.0060 ca        1 N09     -0.056000
     10 C24         3.0500   -2.4080   -1.0490 ca        1 N09     -0.143000
     11 C23         4.0760   -2.2160   -0.1400 ca        1 N09     -0.085000
     12 C19         3.9920   -1.2040    0.8350 ca        1 N09     -0.141000
     13 C18         4.9900   -0.8790    1.8120 cd        1 N09      0.092700
     14 N2          6.2870   -1.3680    2.0870 na        1 N09      0.041400
     15 C13         7.1850   -1.9190    1.1070 c3        1 N09     -0.006700
     16 C11         7.8420   -3.2350    1.4980 c         1 N09      0.539100
     17 O2          8.3190   -4.0290    0.7010 o         1 N09     -0.415100
     18 N1          8.0090   -3.5850    2.9570 n4        1 N09     -0.534200
     19 C4          6.9150   -4.4410    3.4370 ca        1 N09     -0.023400
     20 C3          6.7280   -5.7030    2.8580 ca        1 N09     -0.131000
     21 C2          5.7090   -6.5240    3.3390 ca        1 N09     -0.085000
     22 C5          6.0980   -3.9920    4.4890 ca        1 N09     -0.182000
     23 C6          5.0810   -4.8300    4.9630 ca        1 N09      0.163100
     24 C1          4.8800   -6.1120    4.3830 ca        1 N09      0.030400
     25 CL          3.6670   -7.1490    4.9240 cl        1 N09      0.009600
     26 O1          4.2320   -4.4890    5.9820 os        1 N09     -0.288900
     27 C8          4.4410   -3.2290    6.6200 c3        1 N09      0.104700
     28 H1          6.0380    0.7320    4.5580 h4        1 N09      0.082100
     29 H2          0.8640    0.0090    0.0290 ha        1 N09      0.181000
     30 H3          1.0960   -1.7580   -1.7440 ha        1 N09      0.164000
     31 H4          3.1290   -3.1990   -1.8110 ha        1 N09      0.156000
     32 H5          4.9460   -2.8870   -0.1720 ha        1 N09      0.121000
     33 H6          8.0480   -1.2100    0.8910 h1        1 N09      0.137200
     34 H7          6.6350   -2.0960    0.1360 h1        1 N09      0.137200
     35 H8          8.0670   -2.7360    3.5350 hn        1 N09      0.475800
     36 H9          7.3670   -6.0600    2.0330 ha        1 N09      0.169000
     37 H10         5.5630   -7.5210    2.8840 ha        1 N09      0.183000
     38 H11         6.2450   -2.9980    4.9390 ha        1 N09      0.166000
     39 H12         5.4580   -3.1830    7.0780 h1        1 N09      0.063033
     40 H13         4.2840   -2.3930    5.8970 h1        1 N09      0.063033
     41 H14         3.6470   -3.2220    7.4130 h1        1 N09      0.063033
     42 H121        8.8860   -4.1170    3.0670 hn        1 N09      0.475800
@<TRIPOS>BOND
     1    1    2 2   
     2    2    3 1   
     3    2    6 1   
     4    3    4 1   
     5    3   13 2   
     6    4    5 2   
     7    4   28 1   
     8    5   14 1   
     9    6    7 1   
    10    7    8 ar  
    11    7   12 ar  
    12    8    9 ar  
    13    8   29 1   
    14    9   10 ar  
    15    9   30 1   
    16   10   11 ar  
    17   10   31 1   
    18   11   12 ar  
    19   11   32 1   
    20   12   13 1   
    21   13   14 1   
    22   14   15 1   
    23   15   16 1   
    24   15   33 1   
    25   15   34 1   
    26   16   17 2   
    27   16   18 1   
    28   18   19 1   
    29   18   35 1   
    30   18   42 1   
    31   19   20 ar  
    32   19   22 ar  
    33   20   21 ar  
    34   20   36 1   
    35   21   24 ar  
    36   21   37 1   
    37   22   23 ar  
    38   22   38 1   
    39   23   24 ar  
    40   23   26 1   
    41   24   25 1   
    42   26   27 1   
    43   27   39 1   
    44   27   40 1   
    45   27   41 1   
@<TRIPOS>SUBSTRUCTURE
     1 N09         1 TEMP              0 ****  ****    0 ROOT
