@<TRIPOS>MOLECULE
N10
   35    34     1     0     0
SMALL
bcc


@<TRIPOS>ATOM
      1 C1         -0.6160   -0.7110   -0.6520 c         1 N10      0.745100
      2 O2         -0.7710   -1.6050    0.1960 o         1 N10     -0.593000
      3 N          -2.4290    0.7720    1.2190 n3        1 N10     -0.907800
      4 CA         -3.3050    0.7070    0.0600 c3        1 N10     -0.012500
      5 CB         -2.9820   -0.4590   -0.8740 c3        1 N10      0.160400
      6 OG         -1.6640   -0.3080   -1.4430 os        1 N10     -0.453900
      7 N1          0.5920   -0.1140   -1.0200 n         1 N10     -0.530900
      8 CA1         1.6720   -0.1340   -0.0650 c3        1 N10      0.082000
      9 CB2         3.0400    0.0650   -0.7200 c3        1 N10     -0.087400
     10 CG3         4.1240    0.0280    0.3350 c3        1 N10     -0.079400
     11 CD4         5.4930    0.2210   -0.2820 c3        1 N10     -0.078400
     12 CG5         6.5810    0.1840    0.7700 c3        1 N10     -0.081400
     13 CD6         7.9470    0.3750    0.1620 c3        1 N10     -0.091100
     14 C          -4.8380    0.6400    0.3810 c         1 N10      0.895600
     15 O          -5.2010    0.8730    1.5670 o         1 N10     -0.835800
     16 OXT        -5.6160    0.3800   -0.5770 o         1 N10     -0.835800
     17 HA         -3.1460    1.6690   -0.5100 h1        1 N10      0.050700
     18 HB1        -3.0680   -1.4490   -0.3610 h1        1 N10      0.076700
     19 HB2        -3.6530   -0.4160   -1.7740 h1        1 N10      0.076700
     20 HN1         0.5010    0.7230   -1.5530 hn        1 N10      0.300500
     21 HA11        1.5300    0.6690    0.7170 h1        1 N10      0.051200
     22 HA12        1.6520   -1.1290    0.4650 h1        1 N10      0.051200
     23 HB21        3.2220   -0.7400   -1.4800 hc        1 N10      0.043200
     24 HB22        3.0720    1.0470   -1.2600 hc        1 N10      0.043200
     25 HG31        3.9380    0.8310    1.0960 hc        1 N10      0.042700
     26 HG32        4.0900   -0.9550    0.8760 hc        1 N10      0.042700
     27 HD41        5.6790   -0.5820   -1.0430 hc        1 N10      0.038200
     28 HD42        5.5280    1.2030   -0.8230 hc        1 N10      0.038200
     29 HG51        6.3920    0.9860    1.5320 hc        1 N10      0.038700
     30 HG52        6.5440   -0.7990    1.3110 hc        1 N10      0.038700
     31 HD61        8.1630   -0.4300   -0.5820 hc        1 N10      0.029700
     32 HD62        8.0110    1.3600   -0.3610 hc        1 N10      0.029700
     33 HD63        8.7330    0.3440    0.9540 hc        1 N10      0.029700
     34 HN1A       -2.9160    1.2870    1.9360 hn        1 N10      0.343800
     35 HN2        -2.2820   -0.1580    1.5730 hn        1 N10      0.343800
@<TRIPOS>BOND
     1    1    2 2   
     2    1    6 1   
     3    1    7 1   
     4    3    4 1   
     5    3   34 1   
     6    3   35 1   
     7    4    5 1   
     8    4   14 1   
     9    4   17 1   
    10    5    6 1   
    11    5   18 1   
    12    5   19 1   
    13    7    8 1   
    14    7   20 1   
    15    8    9 1   
    16    8   21 1   
    17    8   22 1   
    18    9   10 1   
    19    9   23 1   
    20    9   24 1   
    21   10   11 1   
    22   10   25 1   
    23   10   26 1   
    24   11   12 1   
    25   11   27 1   
    26   11   28 1   
    27   12   13 1   
    28   12   29 1   
    29   12   30 1   
    30   13   31 1   
    31   13   32 1   
    32   13   33 1   
    33   14   15 1   
    34   14   16 1   
@<TRIPOS>SUBSTRUCTURE
     1 N10         1 TEMP              0 ****  ****    0 ROOT
