@<TRIPOS>MOLECULE
N12
   69    67     1     0     0
SMALL
bcc


@<TRIPOS>ATOM
      1 C1         -1.8820    4.5760   -0.6330 c1        1 N12      0.296000
      2 C2         -1.9310    3.0780   -0.4220 c2        1 N12     -0.144000
      3 N3         -1.3860    2.7590    0.8680 n3        1 N12     -0.298000
      4 C4         -1.9870    1.5860    1.3540 c3        1 N12     -0.029000
      5 C5         -0.9230    0.4810    1.4920 c2        1 N12      0.266000
      6 C6         -2.6160    1.8630    2.7180 c3        1 N12     -0.150000
      7 C7         -4.1050    1.6100    2.6480 c3        1 N12     -0.100000
      8 C8         -4.5210    0.7600    3.8460 c3        1 N12     -0.150000
      9 C9         -4.4250    1.5210    5.1610 c3        1 N12     -0.155500
     10 C10        -5.1550    2.8620    5.1150 c3        1 N12     -0.152000
     11 C11        -4.7390    3.7120    3.9170 c3        1 N12     -0.155500
     12 C12        -4.8360    2.9520    2.6030 c3        1 N12     -0.150000
     13 O13        -0.5680    0.1100    2.6020 o         1 N12     -0.411000
     14 N14        -0.3200   -0.1160    0.2860 n         1 N12     -0.365000
     15 C15         0.7150   -1.1620    0.4160 c3        1 N12      0.082000
     16 C16         1.5960   -0.7280   -0.7790 c2        1 N12      0.293000
     17 O17         2.0230    0.4030   -0.8360 o         1 N12     -0.405000
     18 N18         1.9420   -1.6690   -1.7870 n         1 N12     -0.352000
     19 C19         1.9760   -1.2610   -3.1700 c3        1 N12      0.020000
     20 C20         3.3340   -1.7080   -3.8150 c2        1 N12     -0.121000
     21 C21         3.4410   -2.9470   -4.3910 c2        1 N12     -0.068000
     22 C22         4.5800   -3.2870   -5.0870 c1        1 N12     -0.150000
     23 C23         5.6190   -2.3750   -5.2060 c1        1 N12     -0.072000
     24 N24         5.5130   -1.1320   -4.6290 n1        1 N12     -0.159000
     25 C25         4.3810   -0.7920   -3.9370 c1        1 N12     -0.078000
     26 O26        -0.7790    5.1660   -0.6710 o         1 N12     -0.588000
     27 O27        -2.9500    5.2210   -0.8370 o         1 N12     -0.588000
     28 C28         6.8430   -2.7190   -6.0580 c2        1 N12      0.139000
     29 N29         7.8460   -3.3140   -5.5290 n1        1 N12     -0.324000
     30 N30         6.8670   -2.3810   -7.4310 n3        1 N12     -0.327000
     31 C31         0.1330   -2.7490    0.3250 c3        1 N12     -0.169500
     32 C32         1.3590   -1.1830    1.6180 c3        1 N12     -0.169500
     33 C33         1.0590   -3.5420    0.8490 c3        1 N12     -0.152500
     34 C34         1.8030   -2.7000    1.8650 c3        1 N12     -0.152500
     35 H21A       -1.4080    2.6350   -1.1150 h4        1 N12      0.090000
     36 H22A       -2.8600    2.7720   -0.4680 h4        1 N12      0.090000
     37 HN3        -0.4860    2.6310    0.7950 hn        1 N12      0.175000
     38 H4         -2.6870    1.2910    0.7240 h1        1 N12      0.116000
     39 H61        -2.2190    1.2750    3.3820 hc        1 N12      0.089500
     40 H62        -2.4550    2.7940    2.9690 hc        1 N12      0.089500
     41 H7         -4.3030    1.1150    1.8290 hc        1 N12      0.109000
     42 H81        -3.9430   -0.0230    3.8920 hc        1 N12      0.076250
     43 H82        -5.4460    0.4650    3.7180 hc        1 N12      0.076250
     44 H91        -4.8190    0.9670    5.8830 hc        1 N12      0.077000
     45 H92        -3.4810    1.6830    5.3650 hc        1 N12      0.077000
     46 H101       -6.1210    2.6950    5.0650 hc        1 N12      0.068500
     47 H102       -4.9620    3.3560    5.9360 hc        1 N12      0.068500
     48 H111       -5.3280    4.5120    3.8700 hc        1 N12      0.077000
     49 H112       -3.8190    4.0060    4.0440 hc        1 N12      0.077000
     50 H121       -4.4430    3.5050    1.8870 hc        1 N12      0.076250
     51 H122       -5.7730    2.7930    2.4010 hc        1 N12      0.076250
     52 HN14       -0.6160    0.1300   -0.5420 hn        1 N12      0.271000
     53 HN18        2.0600   -2.5410   -1.5700 hn        1 N12      0.276000
     54 H191        1.2280   -1.6820   -3.6550 h1        1 N12      0.093000
     55 H192        1.8930   -0.2730   -3.2260 h1        1 N12      0.093000
     56 H21         2.7100   -3.5880   -4.3070 ha        1 N12      0.232000
     57 H22         4.6570   -4.1790   -5.5010 ha        1 N12      0.155000
     58 H25         4.3070    0.0890   -3.5290 ha        1 N12      0.150000
     59 HN29        7.8310   -3.5300   -4.6570 DU        1 N12      0.155000
     60 H301        6.1360   -2.0130   -7.8210 hn        1 N12      0.191000
     61 H302        7.6250   -2.5330   -7.9260 hn        1 N12      0.191000
     62 H311       -0.7070   -2.8290    0.8390 hc        1 N12      0.105500
     63 H312       -0.0240   -2.9930   -0.6100 hc        1 N12      0.105500
     64 H321        2.1480   -0.6020    1.5870 hc        1 N12      0.105500
     65 H322        0.7550   -0.8920    2.3270 hc        1 N12      0.105500
     66 H331        1.6740   -3.8500    0.1490 hc        1 N12      0.074750
     67 H332        0.6370   -4.3100    1.2900 hc        1 N12      0.074750
     68 H341        2.7710   -2.7920    1.7340 hc        1 N12      0.074750
     69 H342        1.5590   -2.9780    2.7750 hc        1 N12      0.074750
@<TRIPOS>BOND
     1    1   26 1   
     2    1   27 1   
     3    2    3 1   
     4    2   35 1   
     5    2   36 1   
     6    3    4 1   
     7    3   37 1   
     8    4    5 1   
     9    4    6 1   
    10    4   38 1   
    11    5   13 1   
    12    5   14 1   
    13    6    7 1   
    14    6   39 1   
    15    6   40 1   
    16    7    8 1   
    17    7   12 1   
    18    7   41 1   
    19    8    9 1   
    20    8   42 1   
    21    8   43 1   
    22    9   10 1   
    23    9   44 1   
    24    9   45 1   
    25   10   11 1   
    26   10   46 1   
    27   10   47 1   
    28   11   12 1   
    29   11   48 1   
    30   11   49 1   
    31   12   50 1   
    32   12   51 1   
    33   14   15 1   
    34   14   52 1   
    35   15   16 1   
    36   15   31 1   
    37   15   32 1   
    38   16   17 1   
    39   16   18 1   
    40   18   19 1   
    41   18   53 1   
    42   19   20 1   
    43   19   54 1   
    44   19   55 1   
    45   20   21 1   
    46   20   25 1   
    47   21   22 1   
    48   21   56 1   
    49   22   57 1   
    50   23   24 1   
    51   23   28 1   
    52   25   58 1   
    53   28   29 1   
    54   28   30 1   
    55   30   60 1   
    56   30   61 1   
    57   31   33 1   
    58   31   62 1   
    59   31   63 1   
    60   32   34 1   
    61   32   64 1   
    62   32   65 1   
    63   33   34 1   
    64   33   66 1   
    65   33   67 1   
    66   34   68 1   
    67   34   69 1   
@<TRIPOS>SUBSTRUCTURE
     1 N12         1 TEMP              0 ****  ****    0 ROOT
