@<TRIPOS>MOLECULE
N12
   73    74     1     0     0
SMALL
bcc


@<TRIPOS>ATOM
      1 C1          1.0770   -4.2450    4.9910 c1        1 N12      0.922000
      2 C2          1.1580    0.2930    3.3010 c3        1 N12      0.080100
      3 N3          1.9330   -0.9090    2.9250 n4        1 N12     -0.749000
      4 C4          2.7270   -0.7290    1.6650 c3        1 N12      0.054500
      5 C5          4.0100    0.0970    1.9230 c         1 N12      0.664100
      6 C6          3.1340   -2.0760    1.0450 c3        1 N12     -0.106400
      7 C7          1.9800   -3.0380    0.7940 c3        1 N12     -0.086700
      8 C8          0.8480   -2.3970    0.0060 c3        1 N12     -0.074900
      9 C9         -0.2570   -3.3980   -0.2750 c3        1 N12     -0.079900
     10 C10         0.2730   -4.6200   -0.9940 c3        1 N12     -0.085400
     11 C11         1.4170   -5.2540   -0.2330 c3        1 N12     -0.079900
     12 C12         2.5210   -4.2520    0.0390 c3        1 N12     -0.074900
     13 O13         4.3930    0.3540    3.0880 o         1 N12     -0.660100
     14 N14         4.6840    0.5730    0.8240 n         1 N12     -0.533900
     15 C15         6.0670    1.0160    0.8460 c3        1 N12      0.062400
     16 C16         6.1510    2.4070    1.5160 c         1 N12      0.532100
     17 O17         6.0750    3.4870    0.9560 o         1 N12     -0.395100
     18 N18         6.3430    2.4520    3.0180 n4        1 N12     -0.685800
     19 C19         7.7380    2.8520    3.4120 c3        1 N12      0.174100
     20 C20         7.8660    4.2540    3.9050 ca        1 N12     -0.260600
     21 C21         7.6890    5.3580    3.0660 ca        1 N12     -0.048000
     22 C22         7.9450    6.6450    3.5590 ca        1 N12     -0.188300
     23 C23         8.3790    6.7790    4.8910 ca        1 N12      0.323000
     24 N24         8.5570    5.7130    5.7170 nb        1 N12     -0.662000
     25 C25         8.3020    4.4910    5.2350 ca        1 N12      0.464200
     26 O26         1.4030   -3.2750    4.3580 o         1 N12     -0.459500
     27 O27         0.7630   -5.1950    5.6120 o         1 N12     -0.459500
     28 C28         8.6300    8.1570    5.4340 ce        1 N12      0.462200
     29 N29         8.0890    9.2660    5.1100 n2        1 N12     -0.665100
     30 N30         9.6600    8.2090    6.5210 n4        1 N12     -0.807600
     31 C31         6.6330    1.1660   -0.6060 c3        1 N12     -0.095400
     32 C32         7.0500    0.0070    1.5010 c3        1 N12     -0.095400
     33 C33         7.2680   -0.1740   -0.9390 c3        1 N12     -0.090900
     34 C34         7.5220   -0.9030    0.3740 c3        1 N12     -0.090900
     35 H21A        0.4250    0.5460    2.4870 hx        1 N12      0.111367
     36 H22A        0.5930    0.0760    4.2510 hx        1 N12      0.111367
     37 HN3         1.2820   -1.7050    2.7820 hn        1 N12      0.486800
     38 H4          2.0620   -0.1710    0.9330 hx        1 N12      0.138700
     39 H61         3.6260   -1.8520    0.0590 hc        1 N12      0.082700
     40 H62         3.8930   -2.5800    1.7020 hc        1 N12      0.082700
     41 H7          1.5780   -3.4140    1.7790 hc        1 N12      0.053700
     42 H81         0.4180   -1.5320    0.5770 hc        1 N12      0.038950
     43 H82         1.2440   -2.0010   -0.9660 hc        1 N12      0.038950
     44 H91        -0.7350   -3.7090    0.6910 hc        1 N12      0.060950
     45 H92        -1.0490   -2.9070   -0.9000 hc        1 N12      0.060950
     46 H101        0.6170   -4.3330   -2.0230 hc        1 N12      0.068200
     47 H102       -0.5550   -5.3680   -1.1170 hc        1 N12      0.068200
     48 H111        1.8370   -6.1090   -0.8270 hc        1 N12      0.060950
     49 H112        1.0410   -5.6740    0.7370 hc        1 N12      0.060950
     50 H121        2.9690   -3.9180   -0.9340 hc        1 N12      0.038950
     51 H122        3.3310   -4.7370    0.6430 hc        1 N12      0.038950
     52 HN14        1.8600    1.1520    3.4700 hx        1 N12      0.111367
     53 HN18        5.6730    3.1220    3.4180 hn        1 N12      0.476300
     54 H191        8.4090    2.7160    2.5110 hx        1 N12      0.122200
     55 H192        8.0790    2.1290    4.2140 hx        1 N12      0.122200
     56 H21         7.3630    5.2330    2.0180 ha        1 N12      0.181000
     57 H22         7.8240    7.5170    2.8950 ha        1 N12      0.186000
     58 H25         8.4710    3.6570    5.9480 h4        1 N12      0.063100
     59 HN29        7.3860    9.2990    4.4000 hn        1 N12      0.492400
     60 H301        9.3020    7.7050    7.3440 hn        1 N12      0.487467
     61 H302       10.5190    7.7540    6.1910 hn        1 N12      0.487467
     62 H311        5.8440    1.4570   -1.3450 hc        1 N12      0.077200
     63 H312        7.4030    1.9790   -0.6090 hc        1 N12      0.077200
     64 H321        6.5740   -0.5750    2.3290 hc        1 N12      0.077200
     65 H322        7.9290    0.5610    1.9200 hc        1 N12      0.077200
     66 H331        6.5940   -0.7770   -1.6000 hc        1 N12      0.085450
     67 H332        8.2230   -0.0190   -1.5060 hc        1 N12      0.085450
     68 H341        8.6090   -1.1430    0.4980 hc        1 N12      0.085450
     69 H342        6.9690   -1.8770    0.3970 hc        1 N12      0.085450
     70 H32         2.5690   -1.1690    3.6950 hn        1 N12      0.486800
     71 H142        4.3250    0.3620   -0.0870 hn        1 N12      0.359500
     72 H182        6.1250    1.5160    3.4000 hn        1 N12      0.476300
     73 H303        9.8730    9.1840    6.7910 hn        1 N12      0.487467
@<TRIPOS>BOND
     1    1   26 2   
     2    1   27 2   
     3    2    3 1   
     4    2   35 1   
     5    2   36 1   
     6    2   52 1   
     7    3    4 1   
     8    3   37 1   
     9    3   70 1   
    10    4    5 1   
    11    4    6 1   
    12    4   38 1   
    13    5   13 2   
    14    5   14 1   
    15    6    7 1   
    16    6   39 1   
    17    6   40 1   
    18    7    8 1   
    19    7   12 1   
    20    7   41 1   
    21    8    9 1   
    22    8   42 1   
    23    8   43 1   
    24    9   10 1   
    25    9   44 1   
    26    9   45 1   
    27   10   11 1   
    28   10   46 1   
    29   10   47 1   
    30   11   12 1   
    31   11   48 1   
    32   11   49 1   
    33   12   50 1   
    34   12   51 1   
    35   14   15 1   
    36   14   71 1   
    37   15   16 1   
    38   15   31 1   
    39   15   32 1   
    40   16   17 2   
    41   16   18 1   
    42   18   19 1   
    43   18   53 1   
    44   18   72 1   
    45   19   20 1   
    46   19   54 1   
    47   19   55 1   
    48   20   21 ar  
    49   20   25 ar  
    50   21   22 ar  
    51   21   56 1   
    52   22   23 ar  
    53   22   57 1   
    54   23   24 ar  
    55   23   28 1   
    56   24   25 ar  
    57   25   58 1   
    58   28   29 2   
    59   28   30 1   
    60   29   59 1   
    61   30   60 1   
    62   30   61 1   
    63   30   73 1   
    64   31   33 1   
    65   31   62 1   
    66   31   63 1   
    67   32   34 1   
    68   32   64 1   
    69   32   65 1   
    70   33   34 1   
    71   33   66 1   
    72   33   67 1   
    73   34   68 1   
    74   34   69 1   
@<TRIPOS>SUBSTRUCTURE
     1 N12         1 TEMP              0 ****  ****    0 ROOT
