@<TRIPOS>MOLECULE
N12
   69    71     1     0     0
SMALL
bcc


@<TRIPOS>ATOM
      1 C1          2.7910   -6.5320   -0.3880 c         1 N12      0.875600
      2 C2          1.3640   -6.1010   -0.7920 c3        1 N12      0.037800
      3 N3          1.0950   -6.0190   -2.2140 n3        1 N12     -0.811200
      4 C4          2.0080   -5.1750   -2.9650 c3        1 N12      0.117500
      5 C5          3.0680   -6.0030   -3.7460 c         1 N12      0.623100
      6 C6          1.2820   -4.3140   -4.0130 c3        1 N12     -0.061400
      7 C7          0.3960   -3.2460   -3.3920 c3        1 N12     -0.060700
      8 C8          1.2220   -2.0950   -2.8340 c3        1 N12     -0.075400
      9 C9          0.3370   -1.0060   -2.2630 c3        1 N12     -0.074400
     10 C10        -0.6500   -0.4990   -3.2940 c3        1 N12     -0.074400
     11 C11        -1.4720   -1.6360   -3.8650 c3        1 N12     -0.074400
     12 C12        -0.5870   -2.7260   -4.4340 c3        1 N12     -0.075400
     13 O13         2.7670   -6.5300   -4.8460 o         1 N12     -0.687100
     14 N14         4.3320   -6.0690   -3.2090 n         1 N12     -0.537900
     15 C15         5.3430   -7.0300   -3.6140 c3        1 N12      0.054400
     16 C16         6.0140   -6.7370   -4.9790 c         1 N12      0.660100
     17 O17         7.0940   -7.2950   -5.2720 o         1 N12     -0.637100
     18 N18         5.4380   -5.8430   -5.8680 n         1 N12     -0.546900
     19 C19         5.8900   -5.7450   -7.2260 c3        1 N12      0.125300
     20 C20         4.9750   -6.2920   -8.2830 ca        1 N12     -0.199600
     21 C21         3.7500   -6.9130   -8.0300 ca        1 N12     -0.092000
     22 C22         2.9870   -7.3710   -9.1110 ca        1 N12     -0.204300
     23 C23         3.4770   -7.1900  -10.4160 ca        1 N12      0.278000
     24 N24         4.6680   -6.5930  -10.6810 nb        1 N12     -0.662000
     25 C25         5.3830   -6.1630   -9.6330 ca        1 N12      0.384200
     26 O26         2.9970   -7.7380   -0.0870 o         1 N12     -0.844800
     27 O27         3.7020   -5.6450   -0.3890 o         1 N12     -0.844800
     28 C28         2.6740   -7.6870  -11.5970 ce        1 N12      0.542200
     29 N29         3.1510   -8.4370  -12.5430 n2        1 N12     -0.835100
     30 N30         1.3120   -7.3170  -11.5500 nh        1 N12     -0.894800
     31 C31         4.8240   -8.5000   -3.6660 c3        1 N12     -0.084900
     32 C32         6.4550   -7.1100   -2.5210 c3        1 N12     -0.084900
     33 C33         4.9930   -9.0520   -2.2560 c3        1 N12     -0.092400
     34 C34         5.9180   -8.1030   -1.5020 c3        1 N12     -0.092400
     35 H21A        0.6300   -6.8350   -0.3580 h1        1 N12      0.041700
     36 H22A        1.1650   -5.0870   -0.3490 h1        1 N12      0.041700
     37 HN3         1.0540   -6.9350   -2.6210 hn        1 N12      0.363800
     38 H4          2.5400   -4.4820   -2.2410 h1        1 N12      0.098700
     39 H61         2.0590   -3.8280   -4.6590 hc        1 N12      0.043200
     40 H62         0.6660   -4.9790   -4.6740 hc        1 N12      0.043200
     41 H7         -0.1930   -3.7030   -2.5470 hc        1 N12      0.073700
     42 H81         1.8650   -1.6670   -3.6470 hc        1 N12      0.039450
     43 H82         1.9030   -2.4780   -2.0290 hc        1 N12      0.039450
     44 H91         0.9740   -0.1570   -1.9030 hc        1 N12      0.033950
     45 H92        -0.2220   -1.4070   -1.3770 hc        1 N12      0.033950
     46 H101       -1.3300    0.2590   -2.8260 hc        1 N12      0.029200
     47 H102       -0.0950    0.0130   -4.1230 hc        1 N12      0.029200
     48 H111       -2.1210   -2.0680   -3.0580 hc        1 N12      0.033950
     49 H112       -2.1500   -1.2450   -4.6680 hc        1 N12      0.033950
     50 H121       -1.2250   -3.5720   -4.7980 hc        1 N12      0.039450
     51 H122       -0.0190   -2.3270   -5.3150 hc        1 N12      0.039450
     52 HN14        4.4170   -5.7730   -2.2430 hn        1 N12      0.375500
     53 HN18        4.5000   -5.5470   -5.7090 hn        1 N12      0.328500
     54 H191        6.8900   -6.2660   -7.3210 h1        1 N12      0.069200
     55 H192        6.0490   -4.6470   -7.4530 h1        1 N12      0.069200
     56 H21         3.3670   -7.0500   -7.0020 ha        1 N12      0.190000
     57 H22         2.0230   -7.8690   -8.9380 ha        1 N12      0.159000
     58 H25         6.3480   -5.6830   -9.8780 h4        1 N12      0.019100
     59 HN29        4.1060   -8.6970  -12.4250 hn        1 N12      0.404400
     60 H301        0.8060   -7.4590  -12.3970 hn        1 N12      0.395300
     61 H302        1.1690   -6.4160  -11.1510 hn        1 N12      0.395300
     62 H311        5.4510   -9.0780   -4.3910 hc        1 N12      0.057450
     63 H312        3.7610   -8.5470   -4.0080 hc        1 N12      0.057450
     64 H321        6.6700   -6.1160   -2.0600 hc        1 N12      0.057450
     65 H322        7.3960   -7.4890   -2.9940 hc        1 N12      0.057450
     66 H331        5.4160  -10.0850   -2.2940 hc        1 N12      0.064450
     67 H332        4.0050   -9.0980   -1.7250 hc        1 N12      0.064450
     68 H341        5.3220   -7.5640   -0.7110 hc        1 N12      0.064450
     69 H342        6.7530   -8.6530   -1.0050 hc        1 N12      0.064450
@<TRIPOS>BOND
     1    1    2 1   
     2    1   26 1   
     3    1   27 1   
     4    2    3 1   
     5    2   35 1   
     6    2   36 1   
     7    3    4 1   
     8    3   37 1   
     9    4    5 1   
    10    4    6 1   
    11    4   38 1   
    12    5   13 2   
    13    5   14 1   
    14    6    7 1   
    15    6   39 1   
    16    6   40 1   
    17    7    8 1   
    18    7   12 1   
    19    7   41 1   
    20    8    9 1   
    21    8   42 1   
    22    8   43 1   
    23    9   10 1   
    24    9   44 1   
    25    9   45 1   
    26   10   11 1   
    27   10   46 1   
    28   10   47 1   
    29   11   12 1   
    30   11   48 1   
    31   11   49 1   
    32   12   50 1   
    33   12   51 1   
    34   14   15 1   
    35   14   52 1   
    36   15   16 1   
    37   15   31 1   
    38   15   32 1   
    39   16   17 2   
    40   16   18 1   
    41   18   19 1   
    42   18   53 1   
    43   19   20 1   
    44   19   54 1   
    45   19   55 1   
    46   20   21 ar  
    47   20   25 ar  
    48   21   22 ar  
    49   21   56 1   
    50   22   23 ar  
    51   22   57 1   
    52   23   24 ar  
    53   23   28 1   
    54   24   25 ar  
    55   25   58 1   
    56   28   29 2   
    57   28   30 1   
    58   29   59 1   
    59   30   60 1   
    60   30   61 1   
    61   31   33 1   
    62   31   62 1   
    63   31   63 1   
    64   32   34 1   
    65   32   64 1   
    66   32   65 1   
    67   33   34 1   
    68   33   66 1   
    69   33   67 1   
    70   34   68 1   
    71   34   69 1   
@<TRIPOS>SUBSTRUCTURE
     1 N12         1 TEMP              0 ****  ****    0 ROOT
