@<TRIPOS>MOLECULE
N12
   73    74     1     0     0
SMALL
bcc


@<TRIPOS>ATOM
      1 C1          0.3700   -3.1220    5.8080 c1        1 N12      0.922000
      2 C2          0.8980    0.0950    2.9450 c3        1 N12      0.082100
      3 N3          1.9510   -0.9410    2.8470 n4        1 N12     -0.749000
      4 C4          2.8040   -0.8110    1.6190 c3        1 N12      0.053500
      5 C5          4.0660    0.0380    1.9030 c         1 N12      0.663100
      6 C6          3.2540   -2.1780    1.0790 c3        1 N12     -0.108400
      7 C7          2.1180   -3.1370    0.7440 c3        1 N12     -0.082700
      8 C8          1.0670   -2.5060   -0.1580 c3        1 N12     -0.073900
      9 C9         -0.0140   -3.5070   -0.5210 c3        1 N12     -0.080400
     10 C10         0.5710   -4.7480   -1.1610 c3        1 N12     -0.085400
     11 C11         1.6330   -5.3730   -0.2810 c3        1 N12     -0.080400
     12 C12         2.7150   -4.3730    0.0700 c3        1 N12     -0.073900
     13 O13         4.4050    0.3200    3.0770 o         1 N12     -0.660100
     14 N14         4.7720    0.5040    0.8200 n         1 N12     -0.532900
     15 C15         6.1460    0.9680    0.8820 c3        1 N12      0.062400
     16 C16         6.1860    2.3730    1.5300 c         1 N12      0.532100
     17 O17         6.1150    3.4410    0.9490 o         1 N12     -0.395100
     18 N18         6.3240    2.4460    3.0370 n4        1 N12     -0.685800
     19 C19         7.6980    2.8730    3.4720 c3        1 N12      0.174100
     20 C20         7.7890    4.2860    3.9440 ca        1 N12     -0.260600
     21 C21         7.6270    5.3720    3.0790 ca        1 N12     -0.048000
     22 C22         7.8480    6.6710    3.5570 ca        1 N12     -0.188300
     23 C23         8.2330    6.8350    4.9010 ca        1 N12      0.323000
     24 N24         8.3960    5.7860    5.7520 nb        1 N12     -0.662000
     25 C25         8.1750    4.5530    5.2830 ca        1 N12      0.464200
     26 O26         0.8590   -2.4230    4.9590 o         1 N12     -0.459500
     27 O27        -0.1050   -3.8020    6.6430 o         1 N12     -0.459500
     28 C28         8.4450    8.2260    5.4270 ce        1 N12      0.462200
     29 N29         7.9010    9.3210    5.0640 n2        1 N12     -0.665100
     30 N30         9.4360    8.3120    6.5480 n4        1 N12     -0.807600
     31 C31         6.7600    1.1020   -0.5520 c3        1 N12     -0.095400
     32 C32         7.1200   -0.0140    1.5890 c3        1 N12     -0.095400
     33 C33         7.4260   -0.2340   -0.8380 c3        1 N12     -0.090900
     34 C34         7.6430   -0.9370    0.4950 c3        1 N12     -0.090900
     35 H21A        0.2130    0.0310    2.0550 hx        1 N12      0.113033
     36 H22A        0.3050   -0.0980    3.8840 hx        1 N12      0.113033
     37 HN3         1.4950   -1.8730    2.8370 hn        1 N12      0.483300
     38 H4          2.1750   -0.2940    0.8270 hx        1 N12      0.139700
     39 H61         3.8390   -1.9880    0.1380 hc        1 N12      0.083200
     40 H62         3.9420   -2.6700    1.8170 hc        1 N12      0.083200
     41 H7          1.6190   -3.4880    1.6920 hc        1 N12      0.048700
     42 H81         0.5920   -1.6310    0.3590 hc        1 N12      0.038700
     43 H82         1.5540   -2.1280   -1.0950 hc        1 N12      0.038700
     44 H91        -0.5830   -3.7950    0.4020 hc        1 N12      0.062200
     45 H92        -0.7390   -3.0250   -1.2290 hc        1 N12      0.062200
     46 H101        1.0140   -4.4860   -2.1590 hc        1 N12      0.067700
     47 H102       -0.2480   -5.4930   -1.3460 hc        1 N12      0.067700
     48 H111        1.1620   -5.7670    0.6580 hc        1 N12      0.062200
     49 H112        2.0980   -6.2450   -0.8130 hc        1 N12      0.062200
     50 H121        3.2550   -4.0650   -0.8630 hc        1 N12      0.038700
     51 H122        3.4610   -4.8490    0.7580 hc        1 N12      0.038700
     52 HN14        4.4480    0.2720   -0.0990 hn        1 N12      0.360500
     53 HN18        6.1070    1.5130    3.4280 hn        1 N12      0.476800
     54 H191        8.4030    2.7320    2.5980 hx        1 N12      0.122200
     55 H192        8.0210    2.1700    4.2990 hx        1 N12      0.122200
     56 H21         7.3400    5.2240    2.0230 ha        1 N12      0.181000
     57 H22         7.7390    7.5290    2.8740 ha        1 N12      0.186000
     58 H25         8.3300    3.7340    6.0170 h4        1 N12      0.063100
     59 HN29        7.2230    9.3310    4.3300 hn        1 N12      0.492400
     60 H301        9.0570    7.8170    7.3670 hn        1 N12      0.487467
     61 H302       10.3120    7.8640    6.2560 hn        1 N12      0.487467
     62 H311        7.5190    1.9260   -0.5430 hc        1 N12      0.077450
     63 H312        5.9940    1.3680   -1.3220 hc        1 N12      0.077450
     64 H321        6.6240   -0.5880    2.4110 hc        1 N12      0.077450
     65 H322        7.9760    0.5610    2.0270 hc        1 N12      0.077450
     66 H331        6.7850   -0.8590   -1.5120 hc        1 N12      0.085450
     67 H332        8.3980   -0.0750   -1.3730 hc        1 N12      0.085450
     68 H341        8.7290   -1.1590    0.6620 hc        1 N12      0.085450
     69 H342        7.1020   -1.9170    0.5170 hc        1 N12      0.085450
     70 H32         2.5460   -0.9020    3.6900 hn        1 N12      0.483300
     71 H142        1.3670    1.1120    2.9940 hx        1 N12      0.113033
     72 H182        5.6310    3.1130    3.4010 hn        1 N12      0.476800
     73 H303        9.6260    9.2940    6.8070 hn        1 N12      0.487467
@<TRIPOS>BOND
     1    1   26 2   
     2    1   27 2   
     3    2    3 1   
     4    2   35 1   
     5    2   36 1   
     6    2   71 1   
     7    3    4 1   
     8    3   37 1   
     9    3   70 1   
    10    4    5 1   
    11    4    6 1   
    12    4   38 1   
    13    5   13 2   
    14    5   14 1   
    15    6    7 1   
    16    6   39 1   
    17    6   40 1   
    18    7    8 1   
    19    7   12 1   
    20    7   41 1   
    21    8    9 1   
    22    8   42 1   
    23    8   43 1   
    24    9   10 1   
    25    9   44 1   
    26    9   45 1   
    27   10   11 1   
    28   10   46 1   
    29   10   47 1   
    30   11   12 1   
    31   11   48 1   
    32   11   49 1   
    33   12   50 1   
    34   12   51 1   
    35   14   15 1   
    36   14   52 1   
    37   15   16 1   
    38   15   31 1   
    39   15   32 1   
    40   16   17 2   
    41   16   18 1   
    42   18   19 1   
    43   18   53 1   
    44   18   72 1   
    45   19   20 1   
    46   19   54 1   
    47   19   55 1   
    48   20   21 ar  
    49   20   25 ar  
    50   21   22 ar  
    51   21   56 1   
    52   22   23 ar  
    53   22   57 1   
    54   23   24 ar  
    55   23   28 1   
    56   24   25 ar  
    57   25   58 1   
    58   28   29 2   
    59   28   30 1   
    60   29   59 1   
    61   30   60 1   
    62   30   61 1   
    63   30   73 1   
    64   31   33 1   
    65   31   62 1   
    66   31   63 1   
    67   32   34 1   
    68   32   64 1   
    69   32   65 1   
    70   33   34 1   
    71   33   66 1   
    72   33   67 1   
    73   34   68 1   
    74   34   69 1   
@<TRIPOS>SUBSTRUCTURE
     1 N12         1 TEMP              0 ****  ****    0 ROOT
