@<TRIPOS>MOLECULE
N12
   73    74     1     0     0
SMALL
bcc


@<TRIPOS>ATOM
      1 C1          0.6080   -2.6500    6.2740 c1        1 N12      0.921000
      2 C2          0.5320   -0.3500    2.6980 c3        1 N12      0.080100
      3 N3          1.9120   -0.8430    2.9250 ny        1 N12     -0.751000
      4 C4          2.7770   -0.7520    1.6980 c3        1 N12      0.053500
      5 C5          4.0840    0.0230    1.9960 c         1 N12      0.663100
      6 C6          3.1210   -2.1430    1.1410 c3        1 N12     -0.108400
      7 C7          1.9050   -2.9340    0.6740 c3        1 N12     -0.079700
      8 C8          1.2390   -2.2930   -0.5360 c3        1 N12     -0.075400
      9 C9          0.0610   -3.1230   -1.0100 c3        1 N12     -0.079900
     10 C10         0.4780   -4.5450   -1.3210 c3        1 N12     -0.085400
     11 C11         1.1700   -5.1880   -0.1380 c3        1 N12     -0.079900
     12 C12         2.3460   -4.3570    0.3350 c3        1 N12     -0.075400
     13 O13         4.3660    0.3870    3.1630 o         1 N12     -0.662100
     14 N14         4.8820    0.3580    0.9290 ns        1 N12     -0.531900
     15 C15         6.2720    0.7600    1.0450 c3        1 N12      0.063400
     16 C16         6.3440    2.2190    1.5580 c         1 N12      0.531100
     17 O17         6.3790    3.2260    0.8740 o         1 N12     -0.395100
     18 N18         6.3710    2.4340    3.0570 ny        1 N12     -0.686800
     19 C19         7.7260    2.8500    3.5580 c3        1 N12      0.174100
     20 C20         7.8450    4.2990    3.8960 ca        1 N12     -0.260600
     21 C21         7.8050    5.2970    2.9190 ca        1 N12     -0.047000
     22 C22         8.0470    6.6280    3.2840 ca        1 N12     -0.188300
     23 C23         8.3290    6.9130    4.6340 ca        1 N12      0.323000
     24 N24         8.3730    5.9500    5.5940 nb        1 N12     -0.663000
     25 C25         8.1330    4.6840    5.2310 ca        1 N12      0.464200
     26 O26         1.0040   -2.0610    5.3030 o         1 N12     -0.459000
     27 O27         0.2230   -3.2230    7.2290 o         1 N12     -0.459000
     28 C28         8.5630    8.3400    5.0380 ce        1 N12      0.462200
     29 N29         8.1000    9.4130    4.5240 n2        1 N12     -0.665100
     30 N30         9.4640    8.5020    6.2240 nz        1 N12     -0.807600
     31 C31         6.9870    0.7230   -0.3470 c3        1 N12     -0.095900
     32 C32         7.1440   -0.1900    1.9110 c3        1 N12     -0.095900
     33 C33         7.6000   -0.6630   -0.4560 c3        1 N12     -0.090900
     34 C34         7.6950   -1.2370    0.9510 c3        1 N12     -0.090900
     35 H21A       -0.0610   -0.5310    3.6400 hx        1 N12      0.117700
     36 H22A        0.0610   -0.9160    1.8470 hx        1 N12      0.117700
     37 HN3         1.8590   -1.8320    3.2270 hn        1 N12      0.478300
     38 H4          2.1960   -0.1750    0.9110 hx        1 N12      0.141700
     39 H61         3.6780   -2.7350    1.9160 hc        1 N12      0.083700
     40 H62         3.8050   -2.0120    0.2600 hc        1 N12      0.083700
     41 H7          1.1470   -3.0030    1.5040 hc        1 N12      0.040700
     42 H81         0.8830   -1.2610   -0.2800 hc        1 N12      0.041200
     43 H82         1.9860   -2.2010   -1.3690 hc        1 N12      0.041200
     44 H91        -0.3770   -2.6500   -1.9280 hc        1 N12      0.060950
     45 H92        -0.7360   -3.1280   -0.2210 hc        1 N12      0.060950
     46 H101        1.1640   -4.5510   -2.2090 hc        1 N12      0.067700
     47 H102       -0.4290   -5.1470   -1.5960 hc        1 N12      0.067700
     48 H111        0.4390   -5.3190    0.7020 hc        1 N12      0.060950
     49 H112        1.5360   -6.2090   -0.4270 hc        1 N12      0.060950
     50 H121        3.1280   -4.3220   -0.4690 hc        1 N12      0.041200
     51 H122        2.8040   -4.8350    1.2390 hc        1 N12      0.041200
     52 HN14        0.5490    0.7470    2.4640 hx        1 N12      0.117700
     53 HN18        5.6820    3.1570    3.3010 hn        1 N12      0.476800
     54 H191        7.9510    2.2220    4.4730 hx        1 N12      0.122200
     55 H192        8.4880    2.5940    2.7620 hx        1 N12      0.122200
     56 H21         7.5980    5.0530    1.8610 ha        1 N12      0.181000
     57 H22         8.0340    7.4170    2.5130 ha        1 N12      0.186000
     58 H25         8.1900    3.9390    6.0520 h4        1 N12      0.063100
     59 HN29        7.4840    9.3740    3.7390 hn        1 N12      0.492400
     60 H301       10.3380    7.9930    6.0520 hn        1 N12      0.487467
     61 H302        8.9980    8.1070    7.0530 hn        1 N12      0.487467
     62 H311        6.2890    0.9470   -1.1930 hc        1 N12      0.077450
     63 H312        7.7850    1.5100   -0.3630 hc        1 N12      0.077450
     64 H321        6.5650   -0.6590    2.7450 hc        1 N12      0.077450
     65 H322        7.9950    0.3880    2.3550 hc        1 N12      0.077450
     66 H331        8.6110   -0.6020   -0.9360 hc        1 N12      0.085700
     67 H332        6.9710   -1.3230   -1.1080 hc        1 N12      0.085700
     68 H341        8.7560   -1.4840    1.2150 hc        1 N12      0.085700
     69 H342        7.1100   -2.1880    1.0290 hc        1 N12      0.085700
     70 H32         2.3410   -0.3160    3.7020 hn        1 N12      0.478300
     71 H142        4.6010    0.0730    0.0110 hn        1 N12      0.360500
     72 H182        6.0840    1.5520    3.5160 hn        1 N12      0.476800
     73 H303        9.6780    9.4970    6.4010 hn        1 N12      0.487467
@<TRIPOS>BOND
     1    1   26 2   
     2    1   27 2   
     3    2    3 1   
     4    2   35 1   
     5    2   36 1   
     6    2   52 1   
     7    3    4 1   
     8    3   37 1   
     9    3   70 1   
    10    4    5 1   
    11    4    6 1   
    12    4   38 1   
    13    5   13 2   
    14    5   14 1   
    15    6    7 1   
    16    6   39 1   
    17    6   40 1   
    18    7    8 1   
    19    7   12 1   
    20    7   41 1   
    21    8    9 1   
    22    8   42 1   
    23    8   43 1   
    24    9   10 1   
    25    9   44 1   
    26    9   45 1   
    27   10   11 1   
    28   10   46 1   
    29   10   47 1   
    30   11   12 1   
    31   11   48 1   
    32   11   49 1   
    33   12   50 1   
    34   12   51 1   
    35   14   15 1   
    36   14   71 1   
    37   15   16 1   
    38   15   31 1   
    39   15   32 1   
    40   16   17 2   
    41   16   18 1   
    42   18   19 1   
    43   18   53 1   
    44   18   72 1   
    45   19   20 1   
    46   19   54 1   
    47   19   55 1   
    48   20   21 ar  
    49   20   25 ar  
    50   21   22 ar  
    51   21   56 1   
    52   22   23 ar  
    53   22   57 1   
    54   23   24 ar  
    55   23   28 1   
    56   24   25 ar  
    57   25   58 1   
    58   28   29 2   
    59   28   30 1   
    60   29   59 1   
    61   30   60 1   
    62   30   61 1   
    63   30   73 1   
    64   31   33 1   
    65   31   62 1   
    66   31   63 1   
    67   32   34 1   
    68   32   64 1   
    69   32   65 1   
    70   33   34 1   
    71   33   66 1   
    72   33   67 1   
    73   34   68 1   
    74   34   69 1   
@<TRIPOS>SUBSTRUCTURE
     1 N12         1 TEMP              0 ****  ****    0 ROOT
