@<TRIPOS>MOLECULE
N13
   52    57     1     0     0
SMALL
bcc


@<TRIPOS>ATOM
      1 CA          0.0900   -0.5520    0.0630 c         1 N13      0.670100
      2 C29         2.3320   -1.4870    1.8540 ca        1 N13     -0.192000
      3 C30         3.3890   -1.7790    2.7350 ca        1 N13      0.152900
      4 FA          3.4420   -3.0000    3.3190 f         1 N13     -0.135900
      5 C31         4.3850   -0.8290    3.0170 ca        1 N13     -0.190000
      6 C32         4.3120    0.4190    2.4060 ca        1 N13     -0.079000
      7 C33         3.2780    0.7330    1.5340 ca        1 N13     -0.196000
      8 C28         2.2690   -0.2210    1.2450 ca        1 N13      0.089600
      9 NB          1.2550    0.1410    0.3400 ns        1 N13     -0.461100
     10 OB         -0.2010   -1.6420    0.5920 o         1 N13     -0.605100
     11 C26        -0.8450    0.0680   -0.9730 c3        1 N13     -0.081100
     12 C21        -2.1900    0.2960   -0.4130 cc        1 N13     -0.129600
     13 C25        -3.0540    1.3900   -0.5910 cd        1 N13     -0.263300
     14 N22        -2.8820   -0.6200    0.3940 na        1 N13      0.016400
     15 N23        -4.0790   -0.1840    0.7460 nc        1 N13     -0.492800
     16 C24        -4.2470    1.0490    0.1580 cd        1 N13      0.342800
     17 C16        -5.4410    1.8690    0.2750 ca        1 N13     -0.074500
     18 C17        -6.6680    1.2840    0.5850 ca        1 N13     -0.119000
     19 C15        -5.3300    3.2660    0.0650 ca        1 N13     -0.150000
     20 C14        -6.4250    4.1100    0.1510 ca        1 N13     -0.051000
     21 C18        -7.6680    3.5580    0.4590 ca        1 N13     -0.170900
     22 C19        -7.7780    2.1340    0.6780 ca        1 N13     -0.060200
     23 N11        -9.1360    1.8860    0.9430 na        1 N13     -0.005100
     24 N12        -9.8570    3.0050    0.9480 nc        1 N13     -0.512100
     25 C13        -9.0300    4.0460    0.6460 cd        1 N13      0.314600
     26 C02        -9.4680    5.4260    0.5290 cd        1 N13      0.418500
     27 N03       -10.8210    5.7980    0.7190 na        1 N13     -0.266300
     28 C08       -10.8820    7.1790    0.5350 ca        1 N13     -0.070200
     29 C04       -11.9350    8.1000    0.5940 ca        1 N13     -0.134000
     30 C05       -11.6320    9.4310    0.3520 ca        1 N13     -0.113000
     31 C06       -10.3210    9.8520    0.0590 ca        1 N13     -0.154000
     32 C07        -9.2630    8.9600   -0.0050 ca        1 N13     -0.070000
     33 C09        -9.5230    7.6010    0.2330 ca        1 N13      0.066400
     34 N01        -8.6710    6.4830    0.2380 nc        1 N13     -0.562100
     35 H1          1.5700   -2.2610    1.6630 ha        1 N13      0.187000
     36 H2          5.2020   -1.0770    3.7090 ha        1 N13      0.152000
     37 H3          5.0870    1.1730    2.6200 ha        1 N13      0.140000
     38 H4          3.2530    1.7310    1.0710 ha        1 N13      0.134000
     39 H5          1.3650    1.0360   -0.0830 hn        1 N13      0.321500
     40 H6         -0.4600    1.0390   -1.3830 hc        1 N13      0.085700
     41 H7         -0.9050   -0.6640   -1.8280 hc        1 N13      0.085700
     42 H8         -2.8830    2.2890   -1.1710 ha        1 N13      0.167000
     43 H9         -2.5020   -1.4680    0.7660 hn        1 N13      0.347700
     44 H10        -6.7660    0.2030    0.7520 ha        1 N13      0.155000
     45 H11        -4.3400    3.6880   -0.1670 ha        1 N13      0.136000
     46 H12        -6.3210    5.1940   -0.0170 ha        1 N13      0.167000
     47 H13        -9.5370    1.0310    1.2500 hn        1 N13      0.328700
     48 H14       -11.5690    5.1950    0.9360 hn        1 N13      0.316700
     49 H15       -12.9600    7.7790    0.8220 ha        1 N13      0.136000
     50 H16       -12.4360   10.1820    0.3900 ha        1 N13      0.131000
     51 H17       -10.1390   10.9210   -0.1240 ha        1 N13      0.132000
     52 H18        -8.2420    9.2970   -0.2340 ha        1 N13      0.146000
@<TRIPOS>BOND
     1    1    9 1   
     2    1   10 2   
     3    1   11 1   
     4    2    3 ar  
     5    2    8 ar  
     6    2   35 1   
     7    3    4 1   
     8    3    5 ar  
     9    5    6 ar  
    10    5   36 1   
    11    6    7 ar  
    12    6   37 1   
    13    7    8 ar  
    14    7   38 1   
    15    8    9 1   
    16    9   39 1   
    17   11   12 1   
    18   11   40 1   
    19   11   41 1   
    20   12   13 2   
    21   12   14 1   
    22   13   16 1   
    23   13   42 1   
    24   14   15 1   
    25   14   43 1   
    26   15   16 2   
    27   16   17 1   
    28   17   18 ar  
    29   17   19 ar  
    30   18   22 ar  
    31   18   44 1   
    32   19   20 ar  
    33   19   45 1   
    34   20   21 ar  
    35   20   46 1   
    36   21   22 ar  
    37   21   25 1   
    38   22   23 1   
    39   23   24 1   
    40   23   47 1   
    41   24   25 2   
    42   25   26 1   
    43   26   27 1   
    44   26   34 2   
    45   27   28 1   
    46   27   48 1   
    47   28   29 ar  
    48   28   33 ar  
    49   29   30 ar  
    50   29   49 1   
    51   30   31 ar  
    52   30   50 1   
    53   31   32 ar  
    54   31   51 1   
    55   32   33 ar  
    56   32   52 1   
    57   33   34 1   
@<TRIPOS>SUBSTRUCTURE
     1 N13         1 TEMP              0 ****  ****    0 ROOT
