@<TRIPOS>MOLECULE
N13
   52    57     1     0     0
SMALL
bcc


@<TRIPOS>ATOM
      1 CA          0.0890   -0.5530    0.0660 c         1 N13      0.670100
      2 C29         2.3280   -1.4800    1.8660 ca        1 N13     -0.192000
      3 C30         3.3850   -1.7690    2.7460 ca        1 N13      0.152900
      4 FA          3.4340   -2.9850    3.3410 f         1 N13     -0.135900
      5 C31         4.3870   -0.8220    3.0170 ca        1 N13     -0.190000
      6 C32         4.3190    0.4210    2.3950 ca        1 N13     -0.079000
      7 C33         3.2840    0.7320    1.5220 ca        1 N13     -0.196000
      8 C28         2.2700   -0.2190    1.2450 ca        1 N13      0.089600
      9 NB          1.2550    0.1400    0.3400 n         1 N13     -0.461100
     10 OB         -0.2030   -1.6410    0.5990 o         1 N13     -0.605100
     11 C26        -0.8470    0.0640   -0.9720 c3        1 N13     -0.081100
     12 C21        -2.1910    0.2930   -0.4120 cc        1 N13     -0.129600
     13 C25        -3.0550    1.3870   -0.5910 cd        1 N13     -0.263300
     14 N22        -2.8840   -0.6230    0.3940 na        1 N13      0.016400
     15 N23        -4.0820   -0.1860    0.7450 nc        1 N13     -0.492800
     16 C24        -4.2480    1.0460    0.1560 cd        1 N13      0.342800
     17 C16        -5.4420    1.8660    0.2730 ca        1 N13     -0.074500
     18 C17        -6.6710    1.2820    0.5780 ca        1 N13     -0.119000
     19 C15        -5.3310    3.2640    0.0670 ca        1 N13     -0.150000
     20 C14        -6.4250    4.1090    0.1520 ca        1 N13     -0.051000
     21 C18        -7.6690    3.5560    0.4560 ca        1 N13     -0.170900
     22 C19        -7.7800    2.1320    0.6700 ca        1 N13     -0.060200
     23 N11        -9.1400    1.8830    0.9310 na        1 N13     -0.005100
     24 N12        -9.8600    3.0030    0.9380 nc        1 N13     -0.512100
     25 C13        -9.0310    4.0440    0.6400 cd        1 N13      0.314600
     26 C02        -9.4680    5.4260    0.5270 cd        1 N13      0.418500
     27 N03       -10.8220    5.7980    0.7140 na        1 N13     -0.266300
     28 C08       -10.8800    7.1790    0.5350 ca        1 N13     -0.070200
     29 C04       -11.9340    8.1010    0.5940 ca        1 N13     -0.134000
     30 C05       -11.6290    9.4320    0.3570 ca        1 N13     -0.113000
     31 C06       -10.3170    9.8530    0.0690 ca        1 N13     -0.154000
     32 C07        -9.2590    8.9610    0.0050 ca        1 N13     -0.070000
     33 C09        -9.5200    7.6010    0.2370 ca        1 N13      0.066400
     34 N01        -8.6690    6.4830    0.2410 nc        1 N13     -0.562100
     35 H1          1.5620   -2.2520    1.6840 ha        1 N13      0.187000
     36 H2          5.2040   -1.0670    3.7080 ha        1 N13      0.152000
     37 H3          5.0980    1.1730    2.5990 ha        1 N13      0.140000
     38 H4          3.2630    1.7270    1.0500 ha        1 N13      0.134000
     39 H5          1.3650    1.0330   -0.0880 hn        1 N13      0.321500
     40 H6         -0.4620    1.0340   -1.3830 hc        1 N13      0.085700
     41 H7         -0.9060   -0.6690   -1.8250 hc        1 N13      0.085700
     42 H8         -2.8840    2.2850   -1.1720 ha        1 N13      0.167000
     43 H9         -2.5050   -1.4700    0.7670 hn        1 N13      0.347700
     44 H10        -6.7700    0.2000    0.7420 ha        1 N13      0.155000
     45 H11        -4.3400    3.6860   -0.1620 ha        1 N13      0.136000
     46 H12        -6.3200    5.1920   -0.0130 ha        1 N13      0.167000
     47 H13        -9.5420    1.0280    1.2360 hn        1 N13      0.328700
     48 H14       -11.5700    5.1940    0.9270 hn        1 N13      0.316700
     49 H15       -12.9590    7.7790    0.8180 ha        1 N13      0.136000
     50 H16       -12.4320   10.1840    0.3960 ha        1 N13      0.131000
     51 H17       -10.1330   10.9230   -0.1100 ha        1 N13      0.132000
     52 H18        -8.2380    9.2980   -0.2210 ha        1 N13      0.146000
@<TRIPOS>BOND
     1    1    9 1   
     2    1   10 2   
     3    1   11 1   
     4    2    3 ar  
     5    2    8 ar  
     6    2   35 1   
     7    3    4 1   
     8    3    5 ar  
     9    5    6 ar  
    10    5   36 1   
    11    6    7 ar  
    12    6   37 1   
    13    7    8 ar  
    14    7   38 1   
    15    8    9 1   
    16    9   39 1   
    17   11   12 1   
    18   11   40 1   
    19   11   41 1   
    20   12   13 2   
    21   12   14 1   
    22   13   16 1   
    23   13   42 1   
    24   14   15 1   
    25   14   43 1   
    26   15   16 2   
    27   16   17 1   
    28   17   18 ar  
    29   17   19 ar  
    30   18   22 ar  
    31   18   44 1   
    32   19   20 ar  
    33   19   45 1   
    34   20   21 ar  
    35   20   46 1   
    36   21   22 ar  
    37   21   25 1   
    38   22   23 1   
    39   23   24 1   
    40   23   47 1   
    41   24   25 2   
    42   25   26 1   
    43   26   27 1   
    44   26   34 2   
    45   27   28 1   
    46   27   48 1   
    47   28   29 ar  
    48   28   33 ar  
    49   29   30 ar  
    50   29   49 1   
    51   30   31 ar  
    52   30   50 1   
    53   31   32 ar  
    54   31   51 1   
    55   32   33 ar  
    56   32   52 1   
    57   33   34 1   
@<TRIPOS>SUBSTRUCTURE
     1 N13         1 TEMP              0 ****  ****    0 ROOT
