@<TRIPOS>MOLECULE
N13
   53    58     1     0     0
SMALL
bcc


@<TRIPOS>ATOM
      1 CA          0.5020    0.3210   -1.2240 c         1 N13      0.553100
      2 C29         0.1330    0.2770    2.2800 ca        1 N13     -0.157000
      3 C30         0.7390   -0.2600    3.4310 ca        1 N13      0.164900
      4 FA         -0.0320   -0.5970    4.4860 f         1 N13     -0.097900
      5 C31         2.1360   -0.4450    3.4860 ca        1 N13     -0.111000
      6 C32         2.9170   -0.0950    2.3900 ca        1 N13     -0.078000
      7 C33         2.3410    0.4370    1.2370 ca        1 N13     -0.117000
      8 C28         0.9490    0.6210    1.1920 ca        1 N13     -0.029400
      9 NB          0.3370    1.2120   -0.0040 n4        1 N13     -0.549200
     10 OB          1.5740    0.4180   -1.8020 o         1 N13     -0.412100
     11 C26        -0.6490   -0.5650   -1.6150 c3        1 N13     -0.066100
     12 C21        -1.9050   -0.2840   -0.9050 cc        1 N13     -0.212600
     13 C25        -2.7580    0.8310   -1.0220 cd        1 N13     -0.273300
     14 N22        -2.4910   -1.1220    0.0600 na        1 N13      0.007400
     15 N23        -3.6380   -0.6390    0.5140 nc        1 N13     -0.466800
     16 C24        -3.8470    0.5730   -0.1000 cd        1 N13      0.389800
     17 C16        -4.9760    1.4540    0.1480 ca        1 N13     -0.122500
     18 C17        -6.1600    0.9450    0.6790 ca        1 N13     -0.095000
     19 C15        -4.8410    2.8300   -0.1640 ca        1 N13     -0.161000
     20 C14        -5.8730    3.7310    0.0420 ca        1 N13     -0.035000
     21 C18        -7.0720    3.2560    0.5720 ca        1 N13     -0.158900
     22 C19        -7.2090    1.8510    0.8880 ca        1 N13     -0.062200
     23 N11        -8.5080    1.6940    1.3950 na        1 N13     -0.000100
     24 N12        -9.1790    2.8430    1.4190 nc        1 N13     -0.491100
     25 C13        -8.3650    3.8250    0.9380 cd        1 N13      0.328600
     26 C02        -8.7430    5.2220    0.8160 cd        1 N13      0.397500
     27 N03       -10.0330    5.6850    1.1650 na        1 N13     -0.257300
     28 C08       -10.0370    7.0580    0.9210 ca        1 N13     -0.066200
     29 C04       -11.0200    8.0470    1.0730 ca        1 N13     -0.132000
     30 C05       -10.6760    9.3430    0.7270 ca        1 N13     -0.104000
     31 C06        -9.3930    9.6680    0.2400 ca        1 N13     -0.147000
     32 C07        -8.4070    8.7100    0.0820 ca        1 N13     -0.070000
     33 C09        -8.7090    7.3800    0.4200 ca        1 N13      0.062400
     34 N01        -7.9310    6.2130    0.3680 nc        1 N13     -0.565100
     35 H1         -0.9620    0.4170    2.2700 ha        1 N13      0.178000
     36 H2          2.5930   -0.8630    4.3990 ha        1 N13      0.188000
     37 H3          4.0120   -0.2380    2.4300 ha        1 N13      0.179000
     38 H4          2.9810    0.7030    0.3780 ha        1 N13      0.173000
     39 H5          0.8030    2.1130   -0.1840 hn        1 N13      0.473300
     40 H6         -0.3040   -1.6300   -1.4720 hc        1 N13      0.136200
     41 H7         -0.8060   -0.4160   -2.7260 hc        1 N13      0.136200
     42 H8         -2.6690    1.6800   -1.6920 ha        1 N13      0.182000
     43 H9         -2.2320   -2.0630    0.2620 hn        1 N13      0.338700
     44 H10        -6.2770   -0.1200    0.9220 ha        1 N13      0.157000
     45 H11        -3.8910    3.1920   -0.5820 ha        1 N13      0.120000
     46 H12        -5.7540    4.7980   -0.2050 ha        1 N13      0.178000
     47 H13        -8.9430    0.8510    1.6910 hn        1 N13      0.338700
     48 H14       -10.7790    5.1410    1.5090 hn        1 N13      0.319700
     49 H15       -12.0210    7.8010    1.4510 ha        1 N13      0.142000
     50 H16       -11.4220   10.1460    0.8320 ha        1 N13      0.139000
     51 H17        -9.1780   10.7160   -0.0190 ha        1 N13      0.138000
     52 H18        -7.4100    8.9720   -0.2990 ha        1 N13      0.145000
     53 HB2        -0.6670    1.3790    0.1660 hn        1 N13      0.473300
@<TRIPOS>BOND
     1    1    9 1   
     2    1   10 2   
     3    1   11 1   
     4    2    3 ar  
     5    2    8 ar  
     6    2   35 1   
     7    3    4 1   
     8    3    5 ar  
     9    5    6 ar  
    10    5   36 1   
    11    6    7 ar  
    12    6   37 1   
    13    7    8 ar  
    14    7   38 1   
    15    8    9 1   
    16    9   39 1   
    17    9   53 1   
    18   11   12 1   
    19   11   40 1   
    20   11   41 1   
    21   12   13 2   
    22   12   14 1   
    23   13   16 1   
    24   13   42 1   
    25   14   15 1   
    26   14   43 1   
    27   15   16 2   
    28   16   17 1   
    29   17   18 ar  
    30   17   19 ar  
    31   18   22 ar  
    32   18   44 1   
    33   19   20 ar  
    34   19   45 1   
    35   20   21 ar  
    36   20   46 1   
    37   21   22 ar  
    38   21   25 1   
    39   22   23 1   
    40   23   24 1   
    41   23   47 1   
    42   24   25 2   
    43   25   26 1   
    44   26   27 1   
    45   26   34 2   
    46   27   28 1   
    47   27   48 1   
    48   28   29 ar  
    49   28   33 ar  
    50   29   30 ar  
    51   29   49 1   
    52   30   31 ar  
    53   30   50 1   
    54   31   32 ar  
    55   31   51 1   
    56   32   33 ar  
    57   32   52 1   
    58   33   34 1   
@<TRIPOS>SUBSTRUCTURE
     1 N13         1 TEMP              0 ****  ****    0 ROOT
