@<TRIPOS>MOLECULE
N15
   58    62     1     0     0
SMALL
bcc


@<TRIPOS>ATOM
      1 CAA         4.5900    1.0910    0.2820 c3        1 N15     -0.100100
      2 CBE         4.2270   -0.3750    0.4190 c3        1 N15     -0.060700
      3 CAB         3.1140   -0.5470    1.4310 c3        1 N15     -0.100100
      4 CAN         3.8310   -0.9260   -0.9480 c3        1 N15     -0.107400
      5 CAM         3.8390   -2.4490   -0.9220 c3        1 N15      0.110800
      6 NAS         3.4610   -3.0370   -2.2480 n4        1 N15     -0.669800
      7 C           3.3330   -4.5330   -2.1630 c         1 N15      0.531100
      8 O           2.2480   -4.9570   -1.7960 o         1 N15     -0.409100
      9 CA          4.5030   -5.4090   -2.5950 c3        1 N15     -0.002700
     10 N           5.8030   -4.8440   -2.3570 na        1 N15      0.016400
     11 CAL         6.8910   -5.6210   -1.8760 cc        1 N15     -0.105300
     12 NAP         6.2530   -3.7660   -3.0600 nc        1 N15     -0.592800
     13 CAJ         7.5920   -3.7640   -2.9660 cd        1 N15      0.383200
     14 CAX         8.0590   -4.9380   -2.2210 cd        1 N15     -0.149300
     15 CAW         9.4230   -5.2840   -1.9130 ca        1 N15     -0.005000
     16 CAK        10.4290   -4.3240   -2.0290 ca        1 N15     -0.125000
     17 CAF         9.7220   -6.6040   -1.4940 ca        1 N15     -0.157000
     18 CAI        11.0130   -7.0010   -1.1810 ca        1 N15     -0.030000
     19 CBD        12.0390   -6.0640   -1.2870 ca        1 N15     -0.160900
     20 CBC        11.7360   -4.7160   -1.7170 ca        1 N15     -0.054200
     21 NAT        12.9570   -4.0230   -1.7090 na        1 N15     -0.007100
     22 NAQ        13.9730   -4.8050   -1.3440 nc        1 N15     -0.494100
     23 CAZ        13.4820   -6.0440   -1.0660 cd        1 N15      0.333600
     24 CAY        14.2870   -7.1680   -0.6170 cd        1 N15      0.394500
     25 NAU        15.6860   -7.0680   -0.4410 na        1 N15     -0.258300
     26 CBB        16.1180   -8.3220   -0.0090 ca        1 N15     -0.066200
     27 CAH        17.3830   -8.8280    0.3250 ca        1 N15     -0.133000
     28 CAE        17.4520  -10.1520    0.7240 ca        1 N15     -0.103000
     29 CAD        16.3050  -10.9680    0.7960 ca        1 N15     -0.148000
     30 CAG        15.0470  -10.4930    0.4710 ca        1 N15     -0.069000
     31 CBA        14.9270   -9.1540    0.0610 ca        1 N15      0.062400
     32 NAR        13.8060   -8.4020   -0.3250 nc        1 N15     -0.561100
     33 H1          4.8810    1.5040    1.2780 hc        1 N15      0.048533
     34 H2          3.7200    1.6770   -0.1030 hc        1 N15      0.048533
     35 H3          5.4480    1.2220   -0.4200 hc        1 N15      0.048533
     36 H4          5.1370   -0.9330    0.7820 hc        1 N15      0.056700
     37 H5          2.1850   -0.0300    1.0900 hc        1 N15      0.048533
     38 H6          3.4210   -0.1030    2.4100 hc        1 N15      0.048533
     39 H7          2.8840   -1.6260    1.5960 hc        1 N15      0.048533
     40 H8          2.8120   -0.5400   -1.2180 hc        1 N15      0.067200
     41 H9          4.5580   -0.5520   -1.7170 hc        1 N15      0.067200
     42 H10         4.8670   -2.8250   -0.6540 hx        1 N15      0.112200
     43 H11         3.0970   -2.8290   -0.1600 hx        1 N15      0.112200
     44 H12         4.1570   -2.7660   -2.9560 hn        1 N15      0.469800
     45 H13         4.3280   -5.6280   -3.6950 h1        1 N15      0.129200
     46 H14         4.4150   -6.3770   -2.0150 h1        1 N15      0.129200
     47 H15         6.7350   -6.5420   -1.3120 h4        1 N15      0.199000
     48 H16         8.2120   -2.9750   -3.4020 h4        1 N15      0.066100
     49 H17        10.2080   -3.2970   -2.3490 ha        1 N15      0.135000
     50 H18         8.9050   -7.3380   -1.4240 ha        1 N15      0.130000
     51 H19        11.2270   -8.0330   -0.8560 ha        1 N15      0.180000
     52 H20        13.1260   -3.0950   -2.0190 hn        1 N15      0.334700
     53 H21        16.2420   -6.2690   -0.5940 hn        1 N15      0.319700
     54 H22        18.2800   -8.1970    0.2720 ha        1 N15      0.141000
     55 H23        18.4280  -10.5840    0.9940 ha        1 N15      0.139000
     56 H24        16.4220  -12.0140    1.1200 ha        1 N15      0.139000
     57 H25        14.1580  -11.1360    0.5290 ha        1 N15      0.147000
     58 HAS2        2.5510   -2.6420   -2.5250 hn        1 N15      0.469800
@<TRIPOS>BOND
     1    1    2 1   
     2    1   33 1   
     3    1   34 1   
     4    1   35 1   
     5    2    3 1   
     6    2    4 1   
     7    2   36 1   
     8    3   37 1   
     9    3   38 1   
    10    3   39 1   
    11    4    5 1   
    12    4   40 1   
    13    4   41 1   
    14    5    6 1   
    15    5   42 1   
    16    5   43 1   
    17    6    7 1   
    18    6   44 1   
    19    6   58 1   
    20    7    8 2   
    21    7    9 1   
    22    9   10 1   
    23    9   45 1   
    24    9   46 1   
    25   10   11 1   
    26   10   12 1   
    27   11   14 2   
    28   11   47 1   
    29   12   13 2   
    30   13   14 1   
    31   13   48 1   
    32   14   15 1   
    33   15   16 ar  
    34   15   17 ar  
    35   16   20 ar  
    36   16   49 1   
    37   17   18 ar  
    38   17   50 1   
    39   18   19 ar  
    40   18   51 1   
    41   19   20 ar  
    42   19   23 1   
    43   20   21 1   
    44   21   22 1   
    45   21   52 1   
    46   22   23 2   
    47   23   24 1   
    48   24   25 1   
    49   24   32 2   
    50   25   26 1   
    51   25   53 1   
    52   26   27 ar  
    53   26   31 ar  
    54   27   28 ar  
    55   27   54 1   
    56   28   29 ar  
    57   28   55 1   
    58   29   30 ar  
    59   29   56 1   
    60   30   31 ar  
    61   30   57 1   
    62   31   32 1   
@<TRIPOS>SUBSTRUCTURE
     1 N15         1 TEMP              0 ****  ****    0 ROOT
