@<TRIPOS>MOLECULE
N15
   58    62     1     0     0
SMALL
bcc


@<TRIPOS>ATOM
      1 CAA         4.6230    0.5330    1.1130 c3        1 N15     -0.100100
      2 CBE         4.2390   -0.9050    0.8260 c3        1 N15     -0.060700
      3 CAB         3.0580   -1.3120    1.6810 c3        1 N15     -0.100100
      4 CAN         3.9330   -1.0570   -0.6600 c3        1 N15     -0.107400
      5 CAM         3.9230   -2.5310   -1.0460 c3        1 N15      0.110800
      6 NAS         3.6350   -2.7310   -2.5040 n4        1 N15     -0.669800
      7 C           3.4900   -4.1910   -2.8350 c         1 N15      0.530100
      8 O           2.3770   -4.6690   -2.6710 o         1 N15     -0.409100
      9 CA          4.6810   -4.9490   -3.4080 c3        1 N15     -0.000700
     10 N           5.9640   -4.5040   -2.9410 na        1 N15      0.014400
     11 CAL         7.0010   -5.4030   -2.5790 cc        1 N15     -0.103300
     12 NAP         6.4740   -3.2910   -3.2940 nc        1 N15     -0.591800
     13 CAJ         7.8000   -3.3450   -3.0860 cd        1 N15      0.381200
     14 CAX         8.1950   -4.6810   -2.6290 cd        1 N15     -0.151300
     15 CAW         9.5240   -5.1200   -2.2880 ca        1 N15     -0.007000
     16 CAK        10.6310   -4.4720   -2.8390 ca        1 N15     -0.123000
     17 CAF         9.6850   -6.2110   -1.3990 ca        1 N15     -0.158000
     18 CAI        10.9370   -6.6820   -1.0340 ca        1 N15     -0.030000
     19 CBD        12.0610   -6.0570   -1.5680 ca        1 N15     -0.160900
     20 CBC        11.8990   -4.9440   -2.4790 ca        1 N15     -0.055200
     21 NAT        13.1960   -4.5310   -2.8220 na        1 N15     -0.006100
     22 NAQ        14.1300   -5.2860   -2.2430 nc        1 N15     -0.494100
     23 CAZ        13.5090   -6.2150   -1.4660 cd        1 N15      0.332600
     24 CAY        14.1980   -7.2080   -0.6590 cd        1 N15      0.394500
     25 NAU        15.6090   -7.2960   -0.6180 na        1 N15     -0.257300
     26 CBB        15.9120   -8.3470    0.2460 ca        1 N15     -0.066200
     27 CAH        17.1260   -8.9020    0.6780 ca        1 N15     -0.132000
     28 CAE        17.0590   -9.9670    1.5610 ca        1 N15     -0.103000
     29 CAD        15.8280  -10.4810    2.0140 ca        1 N15     -0.148000
     30 CAG        14.6170   -9.9510    1.6030 ca        1 N15     -0.069000
     31 CBA        14.6350   -8.8690    0.7070 ca        1 N15      0.062400
     32 NAR        13.5910   -8.1350    0.1230 nc        1 N15     -0.561100
     33 H1          3.7880    1.2250    0.8460 hc        1 N15      0.048700
     34 H2          5.5300    0.8240    0.5290 hc        1 N15      0.048700
     35 H3          4.8490    0.6560    2.2000 hc        1 N15      0.048700
     36 H4          5.1160   -1.5650    1.0830 hc        1 N15      0.057700
     37 H5          3.3000   -1.1560    2.7610 hc        1 N15      0.048700
     38 H6          2.8060   -2.3890    1.5340 hc        1 N15      0.048700
     39 H7          2.1590   -0.6970    1.4340 hc        1 N15      0.048700
     40 H8          4.7150   -0.5110   -1.2530 hc        1 N15      0.067200
     41 H9          2.9390   -0.5850   -0.8820 hc        1 N15      0.067200
     42 H10         3.1260   -3.0810   -0.4660 hx        1 N15      0.112200
     43 H11         4.9270   -2.9940   -0.8230 hx        1 N15      0.112200
     44 H12         4.3810   -2.2980   -3.0640 hn        1 N15      0.469800
     45 H13         4.5840   -4.8590   -4.5350 h1        1 N15      0.129200
     46 H14         4.5430   -6.0350   -3.1190 h1        1 N15      0.129200
     47 H15         6.7980   -6.4380   -2.2990 h4        1 N15      0.200000
     48 H16         8.4580   -2.4830   -3.2330 h4        1 N15      0.067100
     49 H17        10.5140   -3.6300   -3.5340 ha        1 N15      0.138000
     50 H18         8.7870   -6.6910   -0.9820 ha        1 N15      0.130000
     51 H19        11.0440   -7.5290   -0.3370 ha        1 N15      0.180000
     52 H20        13.4520   -3.8470   -3.4950 hn        1 N15      0.334700
     53 H21        16.2480   -6.7250   -1.1050 hn        1 N15      0.319700
     54 H22        18.0890   -8.5060    0.3280 ha        1 N15      0.141000
     55 H23        17.9920  -10.4280    1.9210 ha        1 N15      0.139000
     56 H24        15.8380  -11.3290    2.7160 ha        1 N15      0.138000
     57 H25        13.6620  -10.3580    1.9620 ha        1 N15      0.147000
     58 HAS2        2.7500   -2.2520   -2.7230 hn        1 N15      0.469800
@<TRIPOS>BOND
     1    1    2 1   
     2    1   33 1   
     3    1   34 1   
     4    1   35 1   
     5    2    3 1   
     6    2    4 1   
     7    2   36 1   
     8    3   37 1   
     9    3   38 1   
    10    3   39 1   
    11    4    5 1   
    12    4   40 1   
    13    4   41 1   
    14    5    6 1   
    15    5   42 1   
    16    5   43 1   
    17    6    7 1   
    18    6   44 1   
    19    6   58 1   
    20    7    8 2   
    21    7    9 1   
    22    9   10 1   
    23    9   45 1   
    24    9   46 1   
    25   10   11 1   
    26   10   12 1   
    27   11   14 2   
    28   11   47 1   
    29   12   13 2   
    30   13   14 1   
    31   13   48 1   
    32   14   15 1   
    33   15   16 ar  
    34   15   17 ar  
    35   16   20 ar  
    36   16   49 1   
    37   17   18 ar  
    38   17   50 1   
    39   18   19 ar  
    40   18   51 1   
    41   19   20 ar  
    42   19   23 1   
    43   20   21 1   
    44   21   22 1   
    45   21   52 1   
    46   22   23 2   
    47   23   24 1   
    48   24   25 1   
    49   24   32 2   
    50   25   26 1   
    51   25   53 1   
    52   26   27 ar  
    53   26   31 ar  
    54   27   28 ar  
    55   27   54 1   
    56   28   29 ar  
    57   28   55 1   
    58   29   30 ar  
    59   29   56 1   
    60   30   31 ar  
    61   30   57 1   
    62   31   32 1   
@<TRIPOS>SUBSTRUCTURE
     1 N15         1 TEMP              0 ****  ****    0 ROOT
