@<TRIPOS>MOLECULE
N15
   58    62     1     0     0
SMALL
bcc


@<TRIPOS>ATOM
      1 CAA         4.5970    1.1020    0.2250 c3        1 N15     -0.100100
      2 CBE         4.2240   -0.3620    0.3500 c3        1 N15     -0.060700
      3 CAB         3.0910   -0.5310    1.3410 c3        1 N15     -0.100100
      4 CAN         3.8500   -0.9060   -1.0250 c3        1 N15     -0.107400
      5 CAM         3.8500   -2.4290   -1.0050 c3        1 N15      0.110800
      6 NAS         3.4930   -3.0110   -2.3400 ny        1 N15     -0.669800
      7 C           3.3580   -4.5060   -2.2620 c         1 N15      0.531100
      8 O           2.2630   -4.9270   -1.9180 o         1 N15     -0.409100
      9 CA          4.5310   -5.3860   -2.6750 c3        1 N15     -0.002700
     10 N           5.8290   -4.8280   -2.4130 na        1 N15      0.016400
     11 CAL         6.9050   -5.6090   -1.9140 cc        1 N15     -0.105300
     12 NAP         6.2950   -3.7500   -3.1060 nc        1 N15     -0.592800
     13 CAJ         7.6330   -3.7550   -2.9890 cd        1 N15      0.383200
     14 CAX         8.0820   -4.9320   -2.2370 cd        1 N15     -0.149300
     15 CAW         9.4390   -5.2840   -1.9060 ca        1 N15     -0.005000
     16 CAK        10.4510   -4.3280   -2.0060 ca        1 N15     -0.125000
     17 CAF         9.7250   -6.6050   -1.4820 ca        1 N15     -0.157000
     18 CAI        11.0080   -7.0070   -1.1460 ca        1 N15     -0.030000
     19 CBD        12.0400   -6.0750   -1.2350 ca        1 N15     -0.160900
     20 CBC        11.7510   -4.7260   -1.6710 ca        1 N15     -0.054200
     21 NAT        12.9740   -4.0390   -1.6420 na        1 N15     -0.007100
     22 NAQ        13.9800   -4.8250   -1.2590 nc        1 N15     -0.494100
     23 CAZ        13.4790   -6.0620   -0.9900 cd        1 N15      0.333600
     24 CAY        14.2710   -7.1890   -0.5260 cd        1 N15      0.394500
     25 NAU        15.6680   -7.0960   -0.3260 na        1 N15     -0.258300
     26 CBB        16.0860   -8.3510    0.1140 ca        1 N15     -0.066200
     27 CAH        17.3430   -8.8620    0.4700 ca        1 N15     -0.133000
     28 CAE        17.3990  -10.1860    0.8720 ca        1 N15     -0.103000
     29 CAD        16.2470  -10.9970    0.9250 ca        1 N15     -0.148000
     30 CAG        14.9970  -10.5160    0.5790 ca        1 N15     -0.069000
     31 CBA        14.8900   -9.1770    0.1650 ca        1 N15      0.062400
     32 NAR        13.7790   -8.4200   -0.2400 nc        1 N15     -0.561100
     33 H1          3.7390    1.6950   -0.1740 hc        1 N15      0.048533
     34 H2          5.4700    1.2310   -0.4600 hc        1 N15      0.048533
     35 H3          4.8720    1.5110    1.2280 hc        1 N15      0.048533
     36 H4          5.1240   -0.9260    0.7290 hc        1 N15      0.056700
     37 H5          3.3830   -0.0930    2.3270 hc        1 N15      0.048533
     38 H6          2.8510   -1.6090    1.4970 hc        1 N15      0.048533
     39 H7          2.1720   -0.0070    0.9850 hc        1 N15      0.048533
     40 H8          4.5930   -0.5330   -1.7800 hc        1 N15      0.067200
     41 H9          2.8380   -0.5140   -1.3130 hc        1 N15      0.067200
     42 H10         3.0930   -2.8080   -0.2580 hx        1 N15      0.112200
     43 H11         4.8720   -2.8110   -0.7200 hx        1 N15      0.112200
     44 H12         4.2030   -2.7400   -3.0340 hn        1 N15      0.469800
     45 H13         4.3740   -5.6030   -3.7780 h1        1 N15      0.128700
     46 H14         4.4280   -6.3550   -2.0980 h1        1 N15      0.128700
     47 H15         6.7350   -6.5310   -1.3550 h4        1 N15      0.199000
     48 H16         8.2640   -2.9670   -3.4120 h4        1 N15      0.066100
     49 H17        10.2410   -3.3000   -2.3290 ha        1 N15      0.135000
     50 H18         8.9030   -7.3350   -1.4250 ha        1 N15      0.130000
     51 H19        11.2120   -8.0400   -0.8170 ha        1 N15      0.180000
     52 H20        13.1530   -3.1120   -1.9490 hn        1 N15      0.334700
     53 H21        16.2300   -6.3000   -0.4710 hn        1 N15      0.319700
     54 H22        18.2440   -8.2360    0.4300 ha        1 N15      0.141000
     55 H23        18.3680  -10.6230    1.1580 ha        1 N15      0.139000
     56 H24        16.3540  -12.0430    1.2520 ha        1 N15      0.139000
     57 H25        14.1040  -11.1550    0.6240 ha        1 N15      0.147000
     58 HAS2        2.5910   -2.6110   -2.6320 hn        1 N15      0.469800
@<TRIPOS>BOND
     1    1    2 1   
     2    1   33 1   
     3    1   34 1   
     4    1   35 1   
     5    2    3 1   
     6    2    4 1   
     7    2   36 1   
     8    3   37 1   
     9    3   38 1   
    10    3   39 1   
    11    4    5 1   
    12    4   40 1   
    13    4   41 1   
    14    5    6 1   
    15    5   42 1   
    16    5   43 1   
    17    6    7 1   
    18    6   44 1   
    19    6   58 1   
    20    7    8 2   
    21    7    9 1   
    22    9   10 1   
    23    9   45 1   
    24    9   46 1   
    25   10   11 1   
    26   10   12 1   
    27   11   14 2   
    28   11   47 1   
    29   12   13 2   
    30   13   14 1   
    31   13   48 1   
    32   14   15 1   
    33   15   16 ar  
    34   15   17 ar  
    35   16   20 ar  
    36   16   49 1   
    37   17   18 ar  
    38   17   50 1   
    39   18   19 ar  
    40   18   51 1   
    41   19   20 ar  
    42   19   23 1   
    43   20   21 1   
    44   21   22 1   
    45   21   52 1   
    46   22   23 2   
    47   23   24 1   
    48   24   25 1   
    49   24   32 2   
    50   25   26 1   
    51   25   53 1   
    52   26   27 ar  
    53   26   31 ar  
    54   27   28 ar  
    55   27   54 1   
    56   28   29 ar  
    57   28   55 1   
    58   29   30 ar  
    59   29   56 1   
    60   30   31 ar  
    61   30   57 1   
    62   31   32 1   
@<TRIPOS>SUBSTRUCTURE
     1 N15         1 TEMP              0 ****  ****    0 ROOT
