@<TRIPOS>MOLECULE
N16
   42    44     1     0     0
SMALL
bcc


@<TRIPOS>ATOM
      1 CD1        -0.0400   -0.0170   -0.0570 ca        1 N16     -0.127000
      2 CE1         1.3360   -0.2050    0.0590 ca        1 N16     -0.119000
      3 CZ          1.8970   -0.5380    1.2920 ca        1 N16     -0.110000
      4 CE2         1.0770   -0.6860    2.4120 ca        1 N16     -0.119000
      5 CD2        -0.3000   -0.4980    2.2990 ca        1 N16     -0.127000
      6 CG         -0.8660   -0.1610    1.0640 ca        1 N16     -0.118300
      7 CB         -2.3360    0.0290    0.9400 c3        1 N16     -0.040100
      8 CA         -2.7200    1.4940    1.1790 c3        1 N16      0.007700
      9 C          -4.2370    1.6970    1.0250 c         1 N16      0.571300
     10 O          -4.9030    1.4110    0.0410 o         1 N16     -0.450100
     11 N          -2.3990    2.0000    2.5090 n         1 N16     -0.519900
     12 CAR        -3.5090    2.4250    3.1960 c         1 N16      0.697700
     13 OAB        -3.5300    2.8620    4.3650 o         1 N16     -0.661500
     14 CAT        -4.7210    2.3170    2.3000 ce        1 N16     -0.242400
     15 CAQ        -5.9730    2.7110    2.5990 c2        1 N16      0.112800
     16 CAA        -7.1410    2.5960    1.6830 c3        1 N16     -0.112900
     17 NAO        -6.2700    3.3340    3.9110 n4        1 N16     -0.545200
     18 CAV        -6.9640    2.4220    4.8320 ca        1 N16     -0.055400
     19 CAL        -6.2090    1.6630    5.7430 ca        1 N16     -0.100500
     20 CAH        -6.8740    0.8220    6.6340 ca        1 N16     -0.106000
     21 CAE        -8.2660    0.7340    6.6210 ca        1 N16     -0.071000
     22 CAI        -9.0080    1.4940    5.7140 ca        1 N16     -0.106000
     23 CAM        -8.3690    2.3420    4.8140 ca        1 N16     -0.100500
     24 HD1        -0.4790    0.2360   -1.0340 ha        1 N16      0.131500
     25 HE1         1.9800   -0.0950   -0.8270 ha        1 N16      0.145500
     26 HZ          2.9830   -0.6900    1.3810 ha        1 N16      0.148000
     27 HE2         1.5160   -0.9590    3.3830 ha        1 N16      0.145500
     28 HD2        -0.9440   -0.6380    3.1800 ha        1 N16      0.131500
     29 HB         -2.8740   -0.6370    1.6640 hc        1 N16      0.076200
     30 HBA        -2.6820   -0.2420   -0.0950 hc        1 N16      0.076200
     31 HA         -2.1890    2.1380    0.4130 h1        1 N16      0.115700
     32 HN         -1.5130    1.8290    2.9250 hn        1 N16      0.371500
     33 HAA        -6.8630    2.0110    0.7660 hc        1 N16      0.100033
     34 HAAA       -7.4840    3.6110    1.3550 hc        1 N16      0.100033
     35 HAAB       -7.9930    2.0680    2.1850 hc        1 N16      0.100033
     36 HNAO       -5.3860    3.6430    4.3670 hn        1 N16      0.478800
     37 HAL        -5.1060    1.7320    5.7680 ha        1 N16      0.165500
     38 HAH        -6.2880    0.2270    7.3540 ha        1 N16      0.170500
     39 HAE        -8.7830    0.0650    7.3300 ha        1 N16      0.170000
     40 HAI       -10.1090    1.4280    5.7080 ha        1 N16      0.170500
     41 HAM        -8.9700    2.9410    4.1110 ha        1 N16      0.165500
     42 HAO2       -6.8680    4.1540    3.7450 hn        1 N16      0.478800
@<TRIPOS>BOND
     1    1    2 ar  
     2    1    6 ar  
     3    1   24 1   
     4    2    3 ar  
     5    2   25 1   
     6    3    4 ar  
     7    3   26 1   
     8    4    5 ar  
     9    4   27 1   
    10    5    6 ar  
    11    5   28 1   
    12    6    7 1   
    13    7    8 1   
    14    7   29 1   
    15    7   30 1   
    16    8    9 1   
    17    8   11 1   
    18    8   31 1   
    19    9   10 2   
    20    9   14 1   
    21   11   12 1   
    22   11   32 1   
    23   12   13 2   
    24   12   14 1   
    25   14   15 2   
    26   15   16 1   
    27   15   17 1   
    28   16   33 1   
    29   16   34 1   
    30   16   35 1   
    31   17   18 1   
    32   17   36 1   
    33   17   42 1   
    34   18   19 ar  
    35   18   23 ar  
    36   19   20 ar  
    37   19   37 1   
    38   20   21 ar  
    39   20   38 1   
    40   21   22 ar  
    41   21   39 1   
    42   22   23 ar  
    43   22   40 1   
    44   23   41 1   
@<TRIPOS>SUBSTRUCTURE
     1 N16         1 TEMP              0 ****  ****    0 ROOT
