@<TRIPOS>MOLECULE
N16
   41    43     1     0     0
SMALL
bcc


@<TRIPOS>ATOM
      1 CD1         0.2140    0.5710   -0.4000 ca        1 N16     -0.128000
      2 CE1         1.5980    0.7070   -0.4970 ca        1 N16     -0.126000
      3 CZ          2.4050    0.4700    0.6150 ca        1 N16     -0.128000
      4 CE2         1.8250    0.0950    1.8270 ca        1 N16     -0.126000
      5 CD2         0.4410   -0.0420    1.9270 ca        1 N16     -0.128000
      6 CG         -0.3740    0.1960    0.8140 ca        1 N16     -0.087300
      7 CB         -1.8500    0.0470    0.9170 c3        1 N16     -0.051100
      8 CA         -2.5280    1.3750    1.2710 c3        1 N16     -0.010300
      9 C          -4.0640    1.1890    1.3290 c         1 N16      0.599300
     10 O          -4.7390    0.7870    0.3790 o         1 N16     -0.557100
     11 N          -2.1630    1.9420    2.5630 n         1 N16     -0.543900
     12 CAR        -3.2680    1.9620    3.4280 c         1 N16      0.718700
     13 OAB        -3.1900    2.2950    4.6270 o         1 N16     -0.669500
     14 CAT        -4.4840    1.5780    2.6720 ce        1 N16     -0.463400
     15 CAQ        -5.7790    1.5930    3.1600 c2        1 N16      0.318800
     16 CAA        -6.8910    1.2080    2.2340 c3        1 N16     -0.102900
     17 NAO        -6.0330    1.9560    4.4510 nh        1 N16     -0.625400
     18 CAV        -7.2990    1.9620    5.0740 ca        1 N16      0.124600
     19 CAL        -8.1940    0.8780    4.9590 ca        1 N16     -0.145500
     20 CAH        -9.4160    0.9080    5.6240 ca        1 N16     -0.112000
     21 CAE        -9.7650    1.9990    6.4180 ca        1 N16     -0.135000
     22 CAI        -8.8810    3.0690    6.5490 ca        1 N16     -0.112000
     23 CAM        -7.6570    3.0620    5.8870 ca        1 N16     -0.145500
     24 HD1        -0.4210    0.7570   -1.2790 ha        1 N16      0.133500
     25 HE1         2.0530    1.0010   -1.4540 ha        1 N16      0.133000
     26 HZ          3.4970    0.5780    0.5370 ha        1 N16      0.133000
     27 HE2         2.4590   -0.0940    2.7050 ha        1 N16      0.133000
     28 HD2        -0.0110   -0.3470    2.8830 ha        1 N16      0.133500
     29 HB         -2.2790   -0.2950   -0.0630 hc        1 N16      0.067700
     30 HBA        -2.1050   -0.7300    1.6860 hc        1 N16      0.067700
     31 HA         -2.2820    2.1330    0.4710 h1        1 N16      0.088700
     32 HN         -1.2440    1.8040    2.9080 hn        1 N16      0.321500
     33 HAA        -6.9230    0.0920    2.1430 hc        1 N16      0.078700
     34 HAAA       -6.6860    1.6260    1.2140 hc        1 N16      0.078700
     35 HAAB       -7.8880    1.5780    2.5760 hc        1 N16      0.078700
     36 HNAO       -5.2660    2.2970    5.0070 hn        1 N16      0.485800
     37 HAL        -7.9280   -0.0010    4.3510 ha        1 N16      0.144000
     38 HAH       -10.1070    0.0570    5.5240 ha        1 N16      0.138500
     39 HAE       -10.7320    2.0140    6.9420 ha        1 N16      0.138000
     40 HAI        -9.1490    3.9310    7.1790 ha        1 N16      0.138500
     41 HAM        -6.9700    3.9150    6.0040 ha        1 N16      0.144000
@<TRIPOS>BOND
     1    1    2 ar  
     2    1    6 ar  
     3    1   24 1   
     4    2    3 ar  
     5    2   25 1   
     6    3    4 ar  
     7    3   26 1   
     8    4    5 ar  
     9    4   27 1   
    10    5    6 ar  
    11    5   28 1   
    12    6    7 1   
    13    7    8 1   
    14    7   29 1   
    15    7   30 1   
    16    8    9 1   
    17    8   11 1   
    18    8   31 1   
    19    9   10 2   
    20    9   14 1   
    21   11   12 1   
    22   11   32 1   
    23   12   13 2   
    24   12   14 1   
    25   14   15 2   
    26   15   16 1   
    27   15   17 1   
    28   16   33 1   
    29   16   34 1   
    30   16   35 1   
    31   17   18 1   
    32   17   36 1   
    33   18   19 ar  
    34   18   23 ar  
    35   19   20 ar  
    36   19   37 1   
    37   20   21 ar  
    38   20   38 1   
    39   21   22 ar  
    40   21   39 1   
    41   22   23 ar  
    42   22   40 1   
    43   23   41 1   
@<TRIPOS>SUBSTRUCTURE
     1 N16         1 TEMP              0 ****  ****    0 ROOT
