@<TRIPOS>MOLECULE
N16
   41    43     1     0     0
SMALL
bcc


@<TRIPOS>ATOM
      1 CD1         0.1980    0.5270   -0.4110 ca        1 N16     -0.128000
      2 CE1         1.5800    0.6720   -0.5220 ca        1 N16     -0.126000
      3 CZ          2.3970    0.4680    0.5900 ca        1 N16     -0.128000
      4 CE2         1.8290    0.1170    1.8140 ca        1 N16     -0.126000
      5 CD2         0.4470   -0.0290    1.9280 ca        1 N16     -0.128000
      6 CG         -0.3780    0.1750    0.8160 ca        1 N16     -0.087300
      7 CB         -1.8520    0.0180    0.9340 c3        1 N16     -0.051100
      8 CA         -2.5380    1.3480    1.2600 c3        1 N16     -0.010300
      9 C          -4.0720    1.1510    1.3320 c         1 N16      0.599300
     10 O          -4.7500    0.7220    0.3970 o         1 N16     -0.557100
     11 N          -2.1700    1.9470    2.5360 ns        1 N16     -0.543900
     12 CAR        -3.2700    1.9800    3.4080 c         1 N16      0.718700
     13 OAB        -3.1870    2.3410    4.5980 o         1 N16     -0.669500
     14 CAT        -4.4880    1.5690    2.6680 ce        1 N16     -0.463400
     15 CAQ        -5.7790    1.5860    3.1640 c2        1 N16      0.318800
     16 CAA        -6.8950    1.1710    2.2540 c3        1 N16     -0.102900
     17 NAO        -6.0290    1.9780    4.4480 nu        1 N16     -0.625400
     18 CAV        -7.2910    1.9910    5.0780 ca        1 N16      0.124600
     19 CAL        -8.1790    0.8980    4.9940 ca        1 N16     -0.146000
     20 CAH        -9.3980    0.9360    5.6650 ca        1 N16     -0.112000
     21 CAE        -9.7500    2.0430    6.4360 ca        1 N16     -0.135000
     22 CAI        -8.8710    3.1210    6.5360 ca        1 N16     -0.112000
     23 CAM        -7.6520    3.1070    5.8670 ca        1 N16     -0.146000
     24 HD1        -0.4450    0.6870   -1.2900 ha        1 N16      0.133500
     25 HE1         2.0250    0.9480   -1.4900 ha        1 N16      0.133000
     26 HZ          3.4870    0.5830    0.5010 ha        1 N16      0.133000
     27 HE2         2.4710   -0.0460    2.6920 ha        1 N16      0.133000
     28 HD2         0.0040   -0.3150    2.8940 ha        1 N16      0.133500
     29 HB         -2.2850   -0.3520   -0.0350 hc        1 N16      0.067700
     30 HBA        -2.0950   -0.7430    1.7220 hc        1 N16      0.067700
     31 HA         -2.3030    2.0890    0.4420 h1        1 N16      0.088700
     32 HN         -1.2470    1.8250    2.8780 hn        1 N16      0.321500
     33 HAA        -6.6980    1.5660    1.2230 hc        1 N16      0.078700
     34 HAAA       -7.8920    1.5430    2.5930 hc        1 N16      0.078700
     35 HAAB       -6.9190    0.0540    2.1910 hc        1 N16      0.078700
     36 HNAO       -5.2610    2.3370    4.9900 hn        1 N16      0.485800
     37 HAL        -7.9100    0.0070    4.4050 ha        1 N16      0.144000
     38 HAH       -10.0830    0.0780    5.5890 ha        1 N16      0.138500
     39 HAE       -10.7130    2.0640    6.9650 ha        1 N16      0.138000
     40 HAI        -9.1420    3.9960    7.1470 ha        1 N16      0.138500
     41 HAM        -6.9700    3.9660    5.9600 ha        1 N16      0.144000
@<TRIPOS>BOND
     1    1    2 ar  
     2    1    6 ar  
     3    1   24 1   
     4    2    3 ar  
     5    2   25 1   
     6    3    4 ar  
     7    3   26 1   
     8    4    5 ar  
     9    4   27 1   
    10    5    6 ar  
    11    5   28 1   
    12    6    7 1   
    13    7    8 1   
    14    7   29 1   
    15    7   30 1   
    16    8    9 1   
    17    8   11 1   
    18    8   31 1   
    19    9   10 2   
    20    9   14 1   
    21   11   12 1   
    22   11   32 1   
    23   12   13 2   
    24   12   14 1   
    25   14   15 2   
    26   15   16 1   
    27   15   17 1   
    28   16   33 1   
    29   16   34 1   
    30   16   35 1   
    31   17   18 1   
    32   17   36 1   
    33   18   19 ar  
    34   18   23 ar  
    35   19   20 ar  
    36   19   37 1   
    37   20   21 ar  
    38   20   38 1   
    39   21   22 ar  
    40   21   39 1   
    41   22   23 ar  
    42   22   40 1   
    43   23   41 1   
@<TRIPOS>SUBSTRUCTURE
     1 N16         1 TEMP              0 ****  ****    0 ROOT
