@<TRIPOS>MOLECULE
N16
   41    43     1     0     0
SMALL
bcc


@<TRIPOS>ATOM
      1 CD1        -5.2370    0.9240   -0.0910 ca        1 N16     -0.128000
      2 CE1        -6.4640    0.3900   -0.4790 ca        1 N16     -0.126000
      3 CZ         -6.7030   -0.9790   -0.3570 ca        1 N16     -0.128000
      4 CE2        -5.7100   -1.8130    0.1570 ca        1 N16     -0.126000
      5 CD2        -4.4810   -1.2810    0.5460 ca        1 N16     -0.128000
      6 CG         -4.2360    0.0920    0.4240 ca        1 N16     -0.087300
      7 CB         -2.9280    0.6620    0.8410 c3        1 N16     -0.051100
      8 CA         -1.9420    0.7280   -0.3300 c3        1 N16     -0.010300
      9 C          -0.6090    1.3660    0.1330 c         1 N16      0.599300
     10 O          -0.5250    2.4950    0.6190 o         1 N16     -0.557100
     11 N          -1.5700   -0.5560   -0.9100 n         1 N16     -0.543900
     12 CAR        -0.2070   -0.8210   -0.7020 c         1 N16      0.718700
     13 OAB         0.3320   -1.9040   -1.0030 o         1 N16     -0.669500
     14 CAT         0.4400    0.3840   -0.1300 ce        1 N16     -0.463400
     15 CAQ         1.7950    0.5400    0.1050 c2        1 N16      0.318800
     16 CAA         2.2740    1.8490    0.6540 c3        1 N16     -0.102900
     17 NAO         2.6710   -0.4720   -0.1640 nh        1 N16     -0.625400
     18 CAV         4.0610   -0.4480    0.0790 ca        1 N16      0.124600
     19 CAL         4.5980    0.0040    1.3020 ca        1 N16     -0.146000
     20 CAH         5.9740   -0.0290    1.5140 ca        1 N16     -0.112000
     21 CAE         6.8320   -0.5180    0.5300 ca        1 N16     -0.135000
     22 CAI         6.3080   -0.9800   -0.6760 ca        1 N16     -0.112000
     23 CAM         4.9370   -0.9490   -0.9110 ca        1 N16     -0.146000
     24 HD1        -5.0520    2.0050   -0.1880 ha        1 N16      0.133500
     25 HE1        -7.2460    1.0500   -0.8830 ha        1 N16      0.133000
     26 HZ         -7.6710   -1.4000   -0.6630 ha        1 N16      0.133000
     27 HE2        -5.8950   -2.8930    0.2570 ha        1 N16      0.133000
     28 HD2        -3.7040   -1.9420    0.9590 ha        1 N16      0.133500
     29 HB         -3.0610    1.7110    1.2230 hc        1 N16      0.067700
     30 HBA        -2.4920    0.0520    1.6760 hc        1 N16      0.067700
     31 HA         -2.3880    1.3670   -1.1470 h1        1 N16      0.088700
     32 HN         -2.2380   -1.2880   -0.9300 hn        1 N16      0.321500
     33 HAA         2.0650    1.8840    1.7530 hc        1 N16      0.078700
     34 HAAA        3.3640    2.0200    0.4800 hc        1 N16      0.078700
     35 HAAB        1.7010    2.6850    0.1720 hc        1 N16      0.078700
     36 HNAO        2.3160   -1.2960   -0.6190 hn        1 N16      0.485800
     37 HAL         3.9340    0.3760    2.0980 ha        1 N16      0.144000
     38 HAH         6.3810    0.3290    2.4710 ha        1 N16      0.138500
     39 HAE         7.9170   -0.5420    0.7060 ha        1 N16      0.138000
     40 HAI         6.9810   -1.3710   -1.4540 ha        1 N16      0.138500
     41 HAM         4.5400   -1.3200   -1.8690 ha        1 N16      0.144000
@<TRIPOS>BOND
     1    1    2 ar  
     2    1    6 ar  
     3    1   24 1   
     4    2    3 ar  
     5    2   25 1   
     6    3    4 ar  
     7    3   26 1   
     8    4    5 ar  
     9    4   27 1   
    10    5    6 ar  
    11    5   28 1   
    12    6    7 1   
    13    7    8 1   
    14    7   29 1   
    15    7   30 1   
    16    8    9 1   
    17    8   11 1   
    18    8   31 1   
    19    9   10 2   
    20    9   14 1   
    21   11   12 1   
    22   11   32 1   
    23   12   13 2   
    24   12   14 1   
    25   14   15 2   
    26   15   16 1   
    27   15   17 1   
    28   16   33 1   
    29   16   34 1   
    30   16   35 1   
    31   17   18 1   
    32   17   36 1   
    33   18   19 ar  
    34   18   23 ar  
    35   19   20 ar  
    36   19   37 1   
    37   20   21 ar  
    38   20   38 1   
    39   21   22 ar  
    40   21   39 1   
    41   22   23 ar  
    42   22   40 1   
    43   23   41 1   
@<TRIPOS>SUBSTRUCTURE
     1 N16         1 TEMP              0 ****  ****    0 ROOT
