@<TRIPOS>MOLECULE
N1D
   58    61     1     0     0
SMALL
bcc


@<TRIPOS>ATOM
      1 C01         0.6530    0.4130   -0.6360 c3        1 N1D      0.108700
      2 O05         1.9800   -0.0280   -0.3680 os        1 N1D     -0.300900
      3 C06         2.3870    0.0490    0.9470 ca        1 N1D      0.108100
      4 C07         1.6060    0.5200    2.0020 ca        1 N1D     -0.174000
      5 C09         2.1270    0.5520    3.2970 ca        1 N1D     -0.128000
      6 C11         3.4260    0.1130    3.5570 ca        1 N1D     -0.035800
      7 C12         4.2220   -0.3600    2.4980 ca        1 N1D     -0.176000
      8 C14         3.7140   -0.3950    1.2020 ca        1 N1D      0.108100
      9 O15         4.4040   -0.8490    0.0970 os        1 N1D     -0.301900
     10 C16         5.7740   -1.1710    0.3060 c3        1 N1D      0.109700
     11 C20         3.9630    0.1360    4.9120 cc        1 N1D     -0.090400
     12 C21         4.7230   -0.9130    5.3870 cd        1 N1D      0.035600
     13 N23         5.2700   -0.9590    6.6520 n         1 N1D     -0.348000
     14 C24         6.0400   -2.1180    7.0310 c3        1 N1D      0.060300
     15 C28         5.0840    0.1050    7.5730 c         1 N1D      0.731100
     16 O29         5.5870    0.0330    8.7090 o         1 N1D     -0.624500
     17 C30         4.2870    1.2210    7.0840 cd        1 N1D     -0.227600
     18 C31         3.9800    2.4040    7.8160 cd        1 N1D     -0.013000
     19 C33         3.1860    3.2580    7.0710 cc        1 N1D     -0.220700
     20 S34         2.8620    2.6360    5.5350 ss        1 N1D      0.108200
     21 C35         3.7290    1.2370    5.7920 cc        1 N1D      0.007100
     22 C36         2.7760    4.5830    7.5620 c         1 N1D      0.694700
     23 O37         3.5400    5.2610    8.2750 o         1 N1D     -0.576100
     24 N38         1.5440    5.1150    7.1320 n         1 N1D     -0.445800
     25 C39         0.3990    4.2530    6.9310 c3        1 N1D      0.061500
     26 C42        -0.5880    4.2290    8.1240 c3        1 N1D      0.191800
     27 N45        -0.9270    5.5400    8.6130 n3        1 N1D     -0.821500
     28 C46         0.1880    6.4350    8.7910 c3        1 N1D      0.191800
     29 C49         1.1750    6.4380    7.6010 c3        1 N1D      0.061500
     30 S52        -2.4620    5.9900    8.9090 s6        1 N1D      1.460900
     31 C53        -2.6640    5.6310   10.5610 c3        1 N1D     -0.361300
     32 O57        -2.6020    7.3850    8.7530 o         1 N1D     -0.652800
     33 O58        -3.3540    5.1760    8.1800 o         1 N1D     -0.652800
     34 H011        0.5510    0.2600   -1.7410 h1        1 N1D      0.046033
     35 H012        0.5360    1.4930   -0.3760 h1        1 N1D      0.046033
     36 H013       -0.0910   -0.2080   -0.0810 h1        1 N1D      0.046033
     37 H07         0.5790    0.8690    1.8250 ha        1 N1D      0.144000
     38 H09         1.4950    0.9220    4.1210 ha        1 N1D      0.135000
     39 H12         5.2510   -0.6880    2.7020 ha        1 N1D      0.140000
     40 H161        6.3370   -0.2910    0.7010 h1        1 N1D      0.045033
     41 H162        5.8720   -2.0420    1.0000 h1        1 N1D      0.045033
     42 H163        6.1340   -1.4430   -0.7190 h1        1 N1D      0.045033
     43 H21         4.9260   -1.7940    4.7480 h4        1 N1D      0.159000
     44 H241        5.4030   -3.0400    6.9630 h1        1 N1D      0.061367
     45 H242        6.4040   -2.0000    8.0880 h1        1 N1D      0.061367
     46 H243        6.9240   -2.2310    6.3480 h1        1 N1D      0.061367
     47 H31         4.3430    2.5960    8.8320 ha        1 N1D      0.188000
     48 H391        0.7260    3.1940    6.7370 h1        1 N1D      0.072950
     49 H392       -0.1440    4.6300    6.0170 h1        1 N1D      0.072950
     50 H491        2.0960    7.0050    7.9170 h1        1 N1D      0.072950
     51 H492        0.7020    6.9730    6.7290 h1        1 N1D      0.072950
     52 H421       -0.1270    3.6290    8.9610 h1        1 N1D      0.063700
     53 H422       -1.5260    3.7040    7.7810 h1        1 N1D      0.063700
     54 H461       -0.1980    7.4870    8.9190 h1        1 N1D      0.063700
     55 H462        0.7520    6.1430    9.7250 h1        1 N1D      0.063700
     56 H531       -3.6870    5.9360   10.8990 h1        1 N1D      0.114367
     57 H532       -1.9450    6.1670   11.2270 h1        1 N1D      0.114367
     58 H533       -2.5700    4.5430   10.7950 h1        1 N1D      0.114367
@<TRIPOS>BOND
     1    1    2 1   
     2    1   34 1   
     3    1   35 1   
     4    1   36 1   
     5    2    3 1   
     6    3    4 ar  
     7    3    8 ar  
     8    4    5 ar  
     9    4   37 1   
    10    5    6 ar  
    11    5   38 1   
    12    6    7 ar  
    13    6   11 1   
    14    7    8 ar  
    15    7   39 1   
    16    8    9 1   
    17    9   10 1   
    18   10   40 1   
    19   10   41 1   
    20   10   42 1   
    21   11   12 2   
    22   11   21 1   
    23   12   13 1   
    24   12   43 1   
    25   13   14 1   
    26   13   15 1   
    27   14   44 1   
    28   14   45 1   
    29   14   46 1   
    30   15   16 2   
    31   15   17 1   
    32   17   18 1   
    33   17   21 2   
    34   18   19 2   
    35   18   47 1   
    36   19   20 1   
    37   19   22 1   
    38   20   21 1   
    39   22   23 2   
    40   22   24 1   
    41   24   25 1   
    42   24   29 1   
    43   25   26 1   
    44   25   48 1   
    45   25   49 1   
    46   26   27 1   
    47   26   52 1   
    48   26   53 1   
    49   27   28 1   
    50   27   30 1   
    51   28   29 1   
    52   28   54 1   
    53   28   55 1   
    54   29   50 1   
    55   29   51 1   
    56   30   31 1   
    57   30   32 2   
    58   30   33 2   
    59   31   56 1   
    60   31   57 1   
    61   31   58 1   
@<TRIPOS>SUBSTRUCTURE
     1 N1D         1 TEMP              0 ****  ****    0 ROOT
