@<TRIPOS>MOLECULE
N1D
   58    61     1     0     0
SMALL
bcc


@<TRIPOS>ATOM
      1 C01         0.6720    0.4480   -0.6500 c3        1 N1D      0.108700
      2 O05         1.9980    0.0040   -0.3790 os        1 N1D     -0.300900
      3 C06         2.4000    0.0740    0.9380 ca        1 N1D      0.108100
      4 C07         1.6160    0.5390    1.9920 ca        1 N1D     -0.174000
      5 C09         2.1320    0.5640    3.2890 ca        1 N1D     -0.128000
      6 C11         3.4310    0.1220    3.5510 ca        1 N1D     -0.035800
      7 C12         4.2290   -0.3460    2.4920 ca        1 N1D     -0.176000
      8 C14         3.7260   -0.3730    1.1940 ca        1 N1D      0.108100
      9 O15         4.4200   -0.8210    0.0890 os        1 N1D     -0.301900
     10 C16         5.7890   -1.1450    0.3010 c3        1 N1D      0.109700
     11 C20         3.9630    0.1370    4.9080 cc        1 N1D     -0.090400
     12 C21         4.7210   -0.9150    5.3800 cd        1 N1D      0.035600
     13 N23         5.2640   -0.9690    6.6460 n         1 N1D     -0.348000
     14 C24         6.0310   -2.1310    7.0210 c3        1 N1D      0.060300
     15 C28         5.0750    0.0900    7.5720 c         1 N1D      0.731100
     16 O29         5.5750    0.0110    8.7100 o         1 N1D     -0.624500
     17 C30         4.2810    1.2100    7.0870 cd        1 N1D     -0.227600
     18 C31         3.9730    2.3890    7.8240 cd        1 N1D     -0.013000
     19 C33         3.1820    3.2480    7.0810 cc        1 N1D     -0.220700
     20 S34         2.8630    2.6340    5.5410 ss        1 N1D      0.108200
     21 C35         3.7280    1.2330    5.7930 cc        1 N1D      0.007100
     22 C36         2.7720    4.5700    7.5780 c         1 N1D      0.694700
     23 O37         3.5340    5.2430    8.2980 o         1 N1D     -0.576100
     24 N38         1.5420    5.1060    7.1470 n         1 N1D     -0.445800
     25 C39         0.3970    4.2480    6.9370 c3        1 N1D      0.061500
     26 C42        -0.5940    4.2190    8.1260 c3        1 N1D      0.191800
     27 N45        -0.9340    5.5280    8.6200 n3        1 N1D     -0.821500
     28 C46         0.1820    6.4200    8.8070 c3        1 N1D      0.191800
     29 C49         1.1740    6.4280    7.6210 c3        1 N1D      0.061500
     30 S52        -2.4690    5.9790    8.9120 s6        1 N1D      1.460900
     31 C53        -2.6780    5.6130   10.5620 c3        1 N1D     -0.361300
     32 O57        -2.6060    7.3750    8.7620 o         1 N1D     -0.652800
     33 O58        -3.3600    5.1690    8.1750 o         1 N1D     -0.652800
     34 H011        0.5730    0.3000   -1.7550 h1        1 N1D      0.046033
     35 H012        0.5540    1.5260   -0.3840 h1        1 N1D      0.046033
     36 H013       -0.0740   -0.1760   -0.1000 h1        1 N1D      0.046033
     37 H07         0.5890    0.8900    1.8140 ha        1 N1D      0.144000
     38 H09         1.4990    0.9290    4.1130 ha        1 N1D      0.135000
     39 H12         5.2580   -0.6760    2.6980 ha        1 N1D      0.140000
     40 H161        6.3500   -0.2670    0.7030 h1        1 N1D      0.045033
     41 H162        5.8840   -2.0190    0.9900 h1        1 N1D      0.045033
     42 H163        6.1520   -1.4110   -0.7250 h1        1 N1D      0.045033
     43 H21         4.9250   -1.7940    4.7360 h4        1 N1D      0.159000
     44 H241        5.3940   -3.0520    6.9460 h1        1 N1D      0.061367
     45 H242        6.3920   -2.0190    8.0790 h1        1 N1D      0.061367
     46 H243        6.9170   -2.2410    6.3410 h1        1 N1D      0.061367
     47 H31         4.3330    2.5750    8.8420 ha        1 N1D      0.188000
     48 H391        0.7230    3.1890    6.7380 h1        1 N1D      0.072950
     49 H392       -0.1420    4.6300    6.0220 h1        1 N1D      0.072950
     50 H491        2.0940    6.9910    7.9430 h1        1 N1D      0.072950
     51 H492        0.7050    6.9680    6.7500 h1        1 N1D      0.072950
     52 H421       -0.1380    3.6130    8.9610 h1        1 N1D      0.063700
     53 H422       -1.5320    3.6970    7.7760 h1        1 N1D      0.063700
     54 H461        0.7420    6.1230    9.7410 h1        1 N1D      0.063700
     55 H462       -0.2030    7.4730    8.9390 h1        1 N1D      0.063700
     56 H531       -3.7010    5.9180   10.8980 h1        1 N1D      0.114367
     57 H532       -2.5870    4.5240   10.7910 h1        1 N1D      0.114367
     58 H533       -1.9600    6.1440   11.2330 h1        1 N1D      0.114367
@<TRIPOS>BOND
     1    1    2 1   
     2    1   34 1   
     3    1   35 1   
     4    1   36 1   
     5    2    3 1   
     6    3    4 ar  
     7    3    8 ar  
     8    4    5 ar  
     9    4   37 1   
    10    5    6 ar  
    11    5   38 1   
    12    6    7 ar  
    13    6   11 1   
    14    7    8 ar  
    15    7   39 1   
    16    8    9 1   
    17    9   10 1   
    18   10   40 1   
    19   10   41 1   
    20   10   42 1   
    21   11   12 2   
    22   11   21 1   
    23   12   13 1   
    24   12   43 1   
    25   13   14 1   
    26   13   15 1   
    27   14   44 1   
    28   14   45 1   
    29   14   46 1   
    30   15   16 2   
    31   15   17 1   
    32   17   18 1   
    33   17   21 2   
    34   18   19 2   
    35   18   47 1   
    36   19   20 1   
    37   19   22 1   
    38   20   21 1   
    39   22   23 2   
    40   22   24 1   
    41   24   25 1   
    42   24   29 1   
    43   25   26 1   
    44   25   48 1   
    45   25   49 1   
    46   26   27 1   
    47   26   52 1   
    48   26   53 1   
    49   27   28 1   
    50   27   30 1   
    51   28   29 1   
    52   28   54 1   
    53   28   55 1   
    54   29   50 1   
    55   29   51 1   
    56   30   31 1   
    57   30   32 2   
    58   30   33 2   
    59   31   56 1   
    60   31   57 1   
    61   31   58 1   
@<TRIPOS>SUBSTRUCTURE
     1 N1D         1 TEMP              0 ****  ****    0 ROOT
