@<TRIPOS>MOLECULE
N1H
   45    48     1     0     0
SMALL
bcc


@<TRIPOS>ATOM
      1 C1          6.4620    1.6590   -0.1410 ca        1 N1H      0.572200
      2 C2          6.7510    0.3610    0.4110 ca        1 N1H     -0.270300
      3 C3          5.7360   -0.5530    0.6280 ca        1 N1H     -0.075000
      4 C4          4.4340   -0.1630    0.2860 ca        1 N1H     -0.185500
      5 C5          4.2170    1.1660   -0.2800 ca        1 N1H      0.437100
      6 N6          5.2090    2.0550   -0.4960 nb        1 N1H     -0.689000
      7 N7          7.5360    2.5810   -0.2520 nh        1 N1H     -0.905500
      8 N3          3.2040   -0.8020    0.3910 na        1 N1H     -0.158400
      9 CN4         2.7950    1.2620   -0.5370 cc        1 N1H     -0.344800
     10 C8          2.2180    0.0500   -0.1340 cd        1 N1H      0.040700
     11 C1'         0.8280   -0.3770   -0.1960 ca        1 N1H     -0.151800
     12 C2'         0.5510   -1.6850   -0.6040 ca        1 N1H     -0.055000
     13 C3'        -0.7600   -2.1810   -0.6120 ca        1 N1H     -0.049300
     14 CV'        -0.9900   -3.6010   -0.9640 c3        1 N1H     -0.178100
     15 CW'        -0.0860   -4.5690   -0.1560 c         1 N1H      0.920600
     16 OX'        -0.6520   -5.5230    0.4390 o         1 N1H     -0.837800
     17 OY'         1.1650   -4.3700   -0.1580 o         1 N1H     -0.837800
     18 C4'        -1.8050   -1.3290   -0.2560 ca        1 N1H     -0.089000
     19 C5'        -1.5670   -0.0020    0.1360 cp        1 N1H     -0.110000
     20 C6'        -0.2370    0.4660    0.1850 ca        1 N1H      0.149100
     21 O6'        -0.0480    1.7610    0.6160 oh        1 N1H     -0.520100
     22 C1B        -2.6960    0.8510    0.4990 cp        1 N1H      0.003000
     23 C2B        -2.6430    1.6810    1.6280 ca        1 N1H     -0.065000
     24 C3B        -3.7340    2.4750    1.9800 ca        1 N1H     -0.148000
     25 C4B        -4.8970    2.4630    1.2170 ca        1 N1H     -0.085000
     26 C5B        -4.9510    1.6360    0.0820 ca        1 N1H     -0.180200
     27 N5B        -6.1820    1.6230   -0.7460 no        1 N1H      0.313200
     28 O51        -7.1130    2.3140   -0.4220 o         1 N1H     -0.223000
     29 O52        -6.2290    0.9260   -1.7250 o         1 N1H     -0.223000
     30 C6B        -3.8610    0.8300   -0.2810 ca        1 N1H     -0.068000
     31 H2          7.7850    0.1010    0.6710 ha        1 N1H      0.135000
     32 H3          5.9440   -1.5460    1.0490 ha        1 N1H      0.141000
     33 HN71        8.3480    2.1420   -0.6340 hn        1 N1H      0.377300
     34 HN72        7.3010    3.4130   -0.7550 hn        1 N1H      0.377300
     35 HN3         3.0560   -1.7590    0.6100 hn        1 N1H      0.331700
     36 HN4         2.2880    2.1050   -0.9970 ha        1 N1H      0.165000
     37 H2'         1.3630   -2.3850   -0.8900 ha        1 N1H      0.196000
     38 H311       -2.0590   -3.8850   -0.7950 hc        1 N1H      0.045700
     39 H312       -0.7500   -3.7610   -2.0480 hc        1 N1H      0.045700
     40 H4'        -2.8400   -1.7080   -0.2600 ha        1 N1H      0.136000
     41 H6'         0.9050    1.9130    0.7150 ho        1 N1H      0.432000
     42 H2B        -1.7200    1.7090    2.2310 ha        1 N1H      0.160000
     43 H3B        -3.6770    3.1190    2.8710 ha        1 N1H      0.138000
     44 H4B        -5.7600    3.0890    1.4940 ha        1 N1H      0.159000
     45 H6B        -3.9160    0.1860   -1.1760 ha        1 N1H      0.174000
@<TRIPOS>BOND
     1    1    2 ar  
     2    1    6 ar  
     3    1    7 1   
     4    2    3 ar  
     5    2   31 1   
     6    3    4 ar  
     7    3   32 1   
     8    4    5 ar  
     9    4    8 1   
    10    5    6 ar  
    11    5    9 1   
    12    7   33 1   
    13    7   34 1   
    14    8   10 1   
    15    8   35 1   
    16    9   10 2   
    17    9   36 1   
    18   10   11 1   
    19   11   12 ar  
    20   11   20 ar  
    21   12   13 ar  
    22   12   37 1   
    23   13   14 1   
    24   13   18 ar  
    25   14   15 1   
    26   14   38 1   
    27   14   39 1   
    28   15   16 1   
    29   15   17 1   
    30   18   19 ar  
    31   18   40 1   
    32   19   20 ar  
    33   19   22 1   
    34   20   21 1   
    35   21   41 1   
    36   22   23 ar  
    37   22   30 ar  
    38   23   24 ar  
    39   23   42 1   
    40   24   25 ar  
    41   24   43 1   
    42   25   26 ar  
    43   25   44 1   
    44   26   27 1   
    45   26   30 ar  
    46   27   28 1   
    47   27   29 1   
    48   30   45 1   
@<TRIPOS>SUBSTRUCTURE
     1 N1H         1 TEMP              0 ****  ****    0 ROOT
