@<TRIPOS>MOLECULE
N1H
   45    48     1     0     0
SMALL
bcc


@<TRIPOS>ATOM
      1 C1          0.3060    0.0460   -0.0420 ca        1 N1H      0.572200
      2 C2          1.7350    0.0540    0.1300 ca        1 N1H     -0.270300
      3 C3          2.2910    0.0710    1.3950 ca        1 N1H     -0.075000
      4 C4          1.4110    0.0780    2.4860 ca        1 N1H     -0.185500
      5 C5         -0.0270    0.0580    2.2360 ca        1 N1H      0.437100
      6 N6         -0.5690    0.0350    1.0000 nb        1 N1H     -0.689000
      7 N7         -0.1980    0.1200   -1.3670 nh        1 N1H     -0.905500
      8 N3          1.6190    0.1200    3.8600 na        1 N1H     -0.158400
      9 CN4        -0.6580    0.0550    3.5400 cc        1 N1H     -0.344800
     10 C8          0.3670    0.0780    4.4960 cd        1 N1H      0.040700
     11 C1'         0.2760    0.0640    5.9490 ca        1 N1H     -0.151800
     12 C2'         1.1680   -0.7400    6.6650 ca        1 N1H     -0.055000
     13 C3'         1.1820   -0.7390    8.0660 ca        1 N1H     -0.049300
     14 CV'         2.2080   -1.5360    8.7760 c3        1 N1H     -0.178100
     15 CW'         3.6430   -1.2610    8.2530 c         1 N1H      0.920600
     16 OX'         4.5200   -0.9720    9.1080 o         1 N1H     -0.837800
     17 OY'         3.8640   -1.3690    7.0110 o         1 N1H     -0.837800
     18 C4'         0.2480    0.0410    8.7490 ca        1 N1H     -0.089000
     19 C5'        -0.6790    0.8410    8.0630 cp        1 N1H     -0.110000
     20 C6'        -0.6460    0.8660    6.6530 ca        1 N1H      0.149100
     21 O6'        -1.5470    1.6980    6.0240 oh        1 N1H     -0.520100
     22 C1B        -1.6370    1.6390    8.8250 cp        1 N1H      0.003000
     23 C2B        -1.9100    2.9700    8.4770 ca        1 N1H     -0.065000
     24 C3B        -2.8080    3.7320    9.2230 ca        1 N1H     -0.148000
     25 C4B        -3.4560    3.1860   10.3260 ca        1 N1H     -0.085000
     26 C5B        -3.1900    1.8510   10.6730 ca        1 N1H     -0.180200
     27 N5B        -3.8830    1.2540   11.8410 no        1 N1H      0.313200
     28 O51        -4.6540    1.9300   12.4730 o         1 N1H     -0.223000
     29 O52        -3.6670    0.1080   12.1360 o         1 N1H     -0.223000
     30 C6B        -2.2850    1.0750    9.9330 ca        1 N1H     -0.068000
     31 H2          2.3870    0.0550   -0.7540 ha        1 N1H      0.135000
     32 H3          3.3810    0.0790    1.5390 ha        1 N1H      0.141000
     33 HN71        0.2920   -0.5030   -1.9740 hn        1 N1H      0.377300
     34 HN72       -1.1870   -0.0150   -1.4290 hn        1 N1H      0.377300
     35 HN3         2.4870    0.0040    4.3270 hn        1 N1H      0.331700
     36 HN4        -1.7260    0.0010    3.7290 ha        1 N1H      0.165000
     37 H2'         1.9230   -1.3670    6.1470 ha        1 N1H      0.196000
     38 H311        2.1820   -1.3300    9.8750 hc        1 N1H      0.045700
     39 H312        2.0080   -2.6280    8.6170 hc        1 N1H      0.045700
     40 H4'         0.2500    0.0480    9.8510 ha        1 N1H      0.136000
     41 H6'        -1.3400    1.7100    5.0770 ho        1 N1H      0.432000
     42 H2B        -1.4120    3.4070    7.5950 ha        1 N1H      0.160000
     43 H3B        -3.0090    4.7750    8.9380 ha        1 N1H      0.138000
     44 H4B        -4.1670    3.7850   10.9170 ha        1 N1H      0.159000
     45 H6B        -2.0850    0.0260   10.2160 ha        1 N1H      0.174000
@<TRIPOS>BOND
     1    1    2 ar  
     2    1    6 ar  
     3    1    7 1   
     4    2    3 ar  
     5    2   31 1   
     6    3    4 ar  
     7    3   32 1   
     8    4    5 ar  
     9    4    8 1   
    10    5    6 ar  
    11    5    9 1   
    12    7   33 1   
    13    7   34 1   
    14    8   10 1   
    15    8   35 1   
    16    9   10 2   
    17    9   36 1   
    18   10   11 1   
    19   11   12 ar  
    20   11   20 ar  
    21   12   13 ar  
    22   12   37 1   
    23   13   14 1   
    24   13   18 ar  
    25   14   15 1   
    26   14   38 1   
    27   14   39 1   
    28   15   16 1   
    29   15   17 1   
    30   18   19 ar  
    31   18   40 1   
    32   19   20 ar  
    33   19   22 1   
    34   20   21 1   
    35   21   41 1   
    36   22   23 ar  
    37   22   30 ar  
    38   23   24 ar  
    39   23   42 1   
    40   24   25 ar  
    41   24   43 1   
    42   25   26 ar  
    43   25   44 1   
    44   26   27 1   
    45   26   30 ar  
    46   27   28 1   
    47   27   29 1   
    48   30   45 1   
@<TRIPOS>SUBSTRUCTURE
     1 N1H         1 TEMP              0 ****  ****    0 ROOT
