@<TRIPOS>MOLECULE
N1L
   23    23     1     0     0
SMALL
bcc


@<TRIPOS>ATOM
      1 C1         -1.2810    1.2260    0.5070 c3        1 N1L      0.339900
      2 C2         -1.9300   -0.0250   -0.1530 c3        1 N1L      0.120500
      3 C3         -1.0780   -1.2550    0.2220 c3        1 N1L      0.137100
      4 C4          0.3900   -1.0010   -0.1660 c3        1 N1L      0.108100
      5 C5          0.9090    0.2940    0.4680 c3        1 N1L     -0.009900
      6 C6          2.3550    0.6330   -0.0130 c         1 N1L      0.931600
      7 N2         -3.3140   -0.1710    0.2590 n3        1 N1L     -0.904800
      8 O3         -1.6010   -2.3700   -0.4910 oh        1 N1L     -0.627800
      9 O4          1.1050   -2.1370    0.2880 oh        1 N1L     -0.656800
     10 O5          0.0640    1.3810    0.1000 os        1 N1L     -0.418600
     11 O6A         3.0300   -0.3420   -0.4580 o         1 N1L     -0.819300
     12 O6B         2.7740    1.8070    0.1090 o         1 N1L     -0.819300
     13 O1         -1.8900    2.4020    0.0240 oh        1 N1L     -0.627800
     14 H1         -1.3890    1.2110    1.6250 h2        1 N1L      0.063700
     15 H2         -1.8400    0.1110   -1.2750 h1        1 N1L      0.030700
     16 H1O        -1.2980    2.7950   -0.6350 ho        1 N1L      0.428000
     17 H3         -1.1470   -1.4680    1.3250 h1        1 N1L      0.051700
     18 H21N       -3.8330    0.6320   -0.0400 hn        1 N1L      0.349800
     19 H22N       -3.6990   -0.9970   -0.1550 hn        1 N1L      0.349800
     20 H4          0.4820   -0.9280   -1.2860 h1        1 N1L      0.054700
     21 HA         -0.9140   -3.0490   -0.4650 ho        1 N1L      0.418000
     22 H5          0.9230    0.1920    1.5870 h1        1 N1L      0.036700
     23 HB          2.0470   -1.9580    0.1120 ho        1 N1L      0.463000
@<TRIPOS>BOND
     1    1    2 1   
     2    1   10 1   
     3    1   13 1   
     4    1   14 1   
     5    2    3 1   
     6    2    7 1   
     7    2   15 1   
     8    3    4 1   
     9    3    8 1   
    10    3   17 1   
    11    4    5 1   
    12    4    9 1   
    13    4   20 1   
    14    5    6 1   
    15    5   10 1   
    16    5   22 1   
    17    6   11 1   
    18    6   12 1   
    19    7   18 1   
    20    7   19 1   
    21    8   21 1   
    22    9   23 1   
    23   13   16 1   
@<TRIPOS>SUBSTRUCTURE
     1 N1L         1 TEMP              0 ****  ****    0 ROOT
