@<TRIPOS>MOLECULE
N1M
   20    20     1     0     0
SMALL
bcc


@<TRIPOS>ATOM
      1 I           0.8520   -1.5860    0.5450 i         1 N1M     -0.094900
      2 N           2.1750   -0.6430    3.4470 n4        1 N1M     -0.683800
      3 O           1.9930    1.6560    3.0690 o         1 N1M     -0.384100
      4 C1          2.5560   -0.5160    0.3220 ca        1 N1M      0.042900
      5 C2          3.0430    0.3640    1.3020 ca        1 N1M     -0.180600
      6 C3          4.1940    1.1280    1.0590 ca        1 N1M     -0.062000
      7 C4          4.8780    0.9930   -0.1500 ca        1 N1M     -0.102000
      8 C5          4.4060    0.1110   -1.1190 ca        1 N1M     -0.063000
      9 C6          3.2450   -0.6350   -0.8830 ca        1 N1M     -0.084000
     10 C7          2.3680    0.6010    2.5880 c         1 N1M      0.567700
     11 C8          1.5740   -0.3610    4.7670 c3        1 N1M      0.081100
     12 HN          1.5700   -1.2980    2.9170 hn        1 N1M      0.465800
     13 H3          4.5540    1.8440    1.8180 ha        1 N1M      0.165000
     14 H4          5.7840    1.5940   -0.3350 ha        1 N1M      0.175000
     15 H5          4.9390    0.0030   -2.0790 ha        1 N1M      0.175000
     16 H6          2.8760   -1.3160   -1.6720 ha        1 N1M      0.178000
     17 H8          0.5690    0.1220    4.6260 hx        1 N1M      0.112700
     18 H8A         2.2350    0.3450    5.3400 hx        1 N1M      0.112700
     19 H8B         1.4600   -1.3240    5.3340 hx        1 N1M      0.112700
     20 HN3         3.0930   -1.0860    3.5710 hn        1 N1M      0.465800
@<TRIPOS>BOND
     1    1    4 1   
     2    2   10 1   
     3    2   11 1   
     4    2   12 1   
     5    2   20 1   
     6    3   10 2   
     7    4    5 ar  
     8    4    9 ar  
     9    5    6 ar  
    10    5   10 1   
    11    6    7 ar  
    12    6   13 1   
    13    7    8 ar  
    14    7   14 1   
    15    8    9 ar  
    16    8   15 1   
    17    9   16 1   
    18   11   17 1   
    19   11   18 1   
    20   11   19 1   
@<TRIPOS>SUBSTRUCTURE
     1 N1M         1 TEMP              0 ****  ****    0 ROOT
