@<TRIPOS>MOLECULE
N1M
   19    19     1     0     0
SMALL
bcc


@<TRIPOS>ATOM
      1 I          -0.9880    0.5420    0.9280 i         1 N1M     -0.130900
      2 N           2.4710    1.5360    0.4420 n         1 N1M     -0.562900
      3 O           1.8970    1.2950   -1.7690 o         1 N1M     -0.584100
      4 C1          0.3080   -0.8840    0.3090 ca        1 N1M      0.044900
      5 C2          1.5140   -0.5820   -0.3270 ca        1 N1M     -0.101600
      6 C3          2.3610   -1.6110   -0.7540 ca        1 N1M     -0.097000
      7 C4          2.0080   -2.9420   -0.5380 ca        1 N1M     -0.115000
      8 C5          0.8070   -3.2470    0.1010 ca        1 N1M     -0.120000
      9 C6         -0.0400   -2.2210    0.5190 ca        1 N1M     -0.103000
     10 C7          1.9440    0.8240   -0.6170 c         1 N1M      0.663700
     11 C8          2.8460    2.9100    0.3280 c3        1 N1M      0.075300
     12 HN          2.3940    1.1590    1.3560 hn        1 N1M      0.312500
     13 H3          3.3010   -1.3610   -1.2710 ha        1 N1M      0.151000
     14 H4          2.6750   -3.7490   -0.8760 ha        1 N1M      0.141000
     15 H5          0.5220   -4.2960    0.2720 ha        1 N1M      0.141000
     16 H6         -0.9910   -2.4750    1.0150 ha        1 N1M      0.148000
     17 H8          2.0800    3.5770    0.8090 h1        1 N1M      0.045700
     18 H8A         3.8330    3.0680    0.8400 h1        1 N1M      0.045700
     19 H8B         2.9430    3.1950   -0.7540 h1        1 N1M      0.045700
@<TRIPOS>BOND
     1    1    4 1   
     2    2   10 1   
     3    2   11 1   
     4    2   12 1   
     5    3   10 2   
     6    4    5 ar  
     7    4    9 ar  
     8    5    6 ar  
     9    5   10 1   
    10    6    7 ar  
    11    6   13 1   
    12    7    8 ar  
    13    7   14 1   
    14    8    9 ar  
    15    8   15 1   
    16    9   16 1   
    17   11   17 1   
    18   11   18 1   
    19   11   19 1   
@<TRIPOS>SUBSTRUCTURE
     1 N1M         1 TEMP              0 ****  ****    0 ROOT
