@<TRIPOS>MOLECULE
N1M
   20    20     1     0     0
SMALL
bcc


@<TRIPOS>ATOM
      1 I           0.8030   -1.6860    0.7970 i         1 N1M     -0.094900
      2 N           2.2780   -0.5020    3.5330 n4        1 N1M     -0.683800
      3 O           2.0540    1.7570    2.9780 o         1 N1M     -0.384100
      4 C1          2.4830   -0.6310    0.3910 ca        1 N1M      0.042900
      5 C2          3.0160    0.3290    1.2670 ca        1 N1M     -0.180600
      6 C3          4.1450    1.0750    0.8980 ca        1 N1M     -0.062000
      7 C4          4.7610    0.8440   -0.3320 ca        1 N1M     -0.102000
      8 C5          4.2450   -0.1180   -1.1970 ca        1 N1M     -0.063000
      9 C6          3.1050   -0.8460   -0.8370 ca        1 N1M     -0.084000
     10 C7          2.4110    0.6680    2.5650 c         1 N1M      0.567700
     11 C8          1.7490   -0.1140    4.8570 c3        1 N1M      0.081100
     12 HN          3.2040   -0.9300    3.6400 hn        1 N1M      0.465800
     13 H3          4.5400    1.8520    1.5750 ha        1 N1M      0.165000
     14 H4          5.6510    1.4310   -0.6170 ha        1 N1M      0.175000
     15 H5          4.7240   -0.3020   -2.1740 ha        1 N1M      0.175000
     16 H6          2.6990   -1.5910   -1.5450 ha        1 N1M      0.178000
     17 H8          2.4360    0.6380    5.3320 hx        1 N1M      0.112700
     18 H8A         0.7340    0.3510    4.7350 hx        1 N1M      0.112700
     19 H8B         1.6760   -1.0280    5.5060 hx        1 N1M      0.112700
     20 HN3         1.6490   -1.2000    3.0930 hn        1 N1M      0.465800
@<TRIPOS>BOND
     1    1    4 1   
     2    2   10 1   
     3    2   11 1   
     4    2   12 1   
     5    2   20 1   
     6    3   10 2   
     7    4    5 ar  
     8    4    9 ar  
     9    5    6 ar  
    10    5   10 1   
    11    6    7 ar  
    12    6   13 1   
    13    7    8 ar  
    14    7   14 1   
    15    8    9 ar  
    16    8   15 1   
    17    9   16 1   
    18   11   17 1   
    19   11   18 1   
    20   11   19 1   
@<TRIPOS>SUBSTRUCTURE
     1 N1M         1 TEMP              0 ****  ****    0 ROOT
