@<TRIPOS>MOLECULE
N1M
   20    20     1     0     0
SMALL
bcc


@<TRIPOS>ATOM
      1 I           0.7750    1.5110    0.5840 i         1 N1M     -0.094900
      2 N           2.2060    0.6450    3.4590 ny        1 N1M     -0.683800
      3 O           2.0780   -1.6630    3.1160 o         1 N1M     -0.384100
      4 C1          2.5020    0.4850    0.3260 ca        1 N1M      0.042900
      5 C2          3.0410   -0.3670    1.3030 ca        1 N1M     -0.180600
      6 C3          4.2060   -1.1020    1.0380 ca        1 N1M     -0.062000
      7 C4          4.8510   -0.9650   -0.1920 ca        1 N1M     -0.102000
      8 C5          4.3280   -0.1090   -1.1580 ca        1 N1M     -0.063000
      9 C6          3.1540    0.6070   -0.9000 ca        1 N1M     -0.084000
     10 C7          2.4090   -0.6040    2.6110 c         1 N1M      0.567700
     11 C8          1.6510    0.3660    4.8000 c3        1 N1M      0.081100
     12 HN          1.5680    1.2760    2.9380 hn        1 N1M      0.465800
     13 H3          4.6070   -1.7960    1.7960 ha        1 N1M      0.165000
     14 H4          5.7690   -1.5430   -0.3950 ha        1 N1M      0.175000
     15 H5          4.8300   -0.0000   -2.1350 ha        1 N1M      0.175000
     16 H6          2.7440    1.2660   -1.6860 ha        1 N1M      0.178000
     17 H8          0.6560   -0.1470    4.6940 hx        1 N1M      0.112700
     18 H8A         2.3480   -0.3130    5.3620 hx        1 N1M      0.112700
     19 H8B         1.5260    1.3330    5.3560 hx        1 N1M      0.112700
     20 HN3         3.1140    1.1160    3.5500 hn        1 N1M      0.465800
@<TRIPOS>BOND
     1    1    4 1   
     2    2   10 1   
     3    2   11 1   
     4    2   12 1   
     5    2   20 1   
     6    3   10 2   
     7    4    5 ar  
     8    4    9 ar  
     9    5    6 ar  
    10    5   10 1   
    11    6    7 ar  
    12    6   13 1   
    13    7    8 ar  
    14    7   14 1   
    15    8    9 ar  
    16    8   15 1   
    17    9   16 1   
    18   11   17 1   
    19   11   18 1   
    20   11   19 1   
@<TRIPOS>SUBSTRUCTURE
     1 N1M         1 TEMP              0 ****  ****    0 ROOT
