@<TRIPOS>MOLECULE
N1M
   19    17     1     0     0
SMALL
bcc


@<TRIPOS>ATOM
      1 I          -2.5670    0.3640   -1.5290 i         1 N1M      0.155000
      2 N          -0.9110   -0.8580    1.7340 n         1 N1M     -0.372000
      3 O          -0.8800    1.4390    1.5220 o         1 N1M     -0.345000
      4 C1         -0.4600    0.2710   -1.4990 c2        1 N1M     -0.241000
      5 C2          0.2170    0.3030   -0.2870 c2        1 N1M     -0.081000
      6 C3          1.6040    0.3700   -0.2680 c1        1 N1M     -0.097000
      7 C4          2.3140    0.4040   -1.4600 c1        1 N1M     -0.117500
      8 C5          1.6370    0.3710   -2.6740 c1        1 N1M     -0.117500
      9 C6          0.2520    0.3050   -2.6940 c1        1 N1M     -0.103000
     10 C7         -0.5780    0.3610    1.0400 c2        1 N1M      0.337000
     11 C8         -1.6990   -0.8070    2.9420 c3        1 N1M     -0.080000
     12 HN         -0.5720   -1.6560    1.4440 hn        1 N1M      0.226000
     13 H3          2.0820    0.3930    0.5890 ha        1 N1M      0.151000
     14 H4          3.2860    0.4500   -1.4460 ha        1 N1M      0.141000
     15 H5          2.1390    0.3950   -3.5170 ha        1 N1M      0.141000
     16 H6         -0.2230    0.2820   -3.5460 ha        1 N1M      0.148000
     17 H8         -2.5890   -0.4290    2.7380 h1        1 N1M      0.085000
     18 H8A        -1.2460   -0.2390    3.6070 h1        1 N1M      0.085000
     19 H8B        -1.8040   -1.7180    3.3050 h1        1 N1M      0.085000
@<TRIPOS>BOND
     1    1    4 1   
     2    2   10 1   
     3    2   11 1   
     4    2   12 1   
     5    3   10 1   
     6    4    5 1   
     7    4    9 1   
     8    5    6 1   
     9    5   10 1   
    10    6   13 1   
    11    7    8 1   
    12    7   14 1   
    13    8   15 1   
    14    9   16 1   
    15   11   17 1   
    16   11   18 1   
    17   11   19 1   
@<TRIPOS>SUBSTRUCTURE
     1 N1M         1 TEMP              0 ****  ****    0 ROOT
