@<TRIPOS>MOLECULE
N20
   46    47     1     0     0
SMALL
bcc


@<TRIPOS>ATOM
      1 C2         -0.2050   -0.0110    0.0860 ca        1 N20      0.898900
      2 C8          1.1720    1.3810    4.6500 c1        1 N20      0.303600
      3 C10         4.5450    0.8500   -1.4710 cx        1 N20     -0.153400
      4 C11         5.7760    0.3740   -2.1950 cx        1 N20     -0.118200
      5 C12         6.9350    1.3060   -2.3690 c3        1 N20     -0.052900
      6 C13         7.8960    1.2790   -1.1970 c3        1 N20     -0.076400
      7 C14         7.1640    1.3760    0.1250 c3        1 N20     -0.076400
      8 C15         6.2810    0.1660    0.3550 c3        1 N20     -0.052900
      9 C16         5.4360   -0.1790   -0.8300 cx        1 N20     -0.118200
     10 C19         1.7540    0.0180   -3.9830 ce        1 N20     -0.275000
     11 C20         1.8870   -1.1730   -4.6030 c2        1 N20      0.074100
     12 C21        -1.0010   -2.6150   -3.4800 c1        1 N20     -0.124500
     13 C22        -0.5670   -1.6250   -2.9630 ch        1 N20     -0.189300
     14 N1          1.1740    0.0720    0.1710 nb        1 N20     -0.804000
     15 C6          1.6900    0.1990    1.4170 ca        1 N20      0.675600
     16 O6          3.0500    0.2880    1.5710 oh        1 N20     -0.629300
     17 C5          0.8980    0.2230    2.6070 ca        1 N20     -0.222000
     18 N7          1.4500    0.2540    3.9140 nh        1 N20     -0.464200
     19 N9          0.8880    2.2760    5.3460 n1        1 N20     -0.383800
     20 C4         -0.5020    0.1110    2.3930 ca        1 N20      0.502200
     21 N3         -1.0620   -0.0080    1.1870 nb        1 N20     -0.753000
     22 N2         -0.8100   -0.0230   -1.1850 nh        1 N20     -0.693700
     23 C17        -0.0820   -0.4480   -2.3360 cf        1 N20      0.178300
     24 C18         0.9530    0.2910   -2.8240 ce        1 N20     -0.040000
     25 H23         3.0910   -0.5500   -5.9630 ho        1 N20      0.418000
     26 H8          2.4410    0.0600    3.9060 hn        1 N20      0.429800
     27 H101        3.4900    0.2490    0.6980 ho        1 N20      0.466000
     28 H102        4.5350    1.8770   -1.0620 hc        1 N20      0.077200
     29 H11         3.5500    0.5410   -1.8440 hc        1 N20      0.077200
     30 H121        5.6300   -0.3000   -3.0630 hc        1 N20      0.077200
     31 H122        7.4950    1.0370   -3.3040 hc        1 N20      0.043450
     32 H131        6.5470    2.3520   -2.5060 hc        1 N20      0.043450
     33 H132        8.4920    0.3290   -1.2220 hc        1 N20      0.041950
     34 H141        8.6170    2.1320   -1.2920 hc        1 N20      0.041950
     35 H142        7.9060    1.4560    0.9620 hc        1 N20      0.041950
     36 H151        6.5400    2.3080    0.1380 hc        1 N20      0.041950
     37 H152        5.6200    0.3490    1.2440 hc        1 N20      0.043450
     38 H161        6.9310   -0.7180    0.6000 hc        1 N20      0.043450
     39 H162        5.0570   -1.2210   -0.7840 hc        1 N20      0.077200
     40 H19         2.3180    0.8900   -4.3620 ha        1 N20      0.132000
     41 H21         1.3990   -2.1190   -4.3090 h4        1 N20      0.179000
     42 H22        -1.3790   -3.4910   -3.9440 ha        1 N20      0.172500
     43 H9         -1.2060    0.1160    3.2490 h4        1 N20      0.048100
     44 H2         -1.7730   -0.3000   -1.1850 hn        1 N20      0.446800
     45 H18         1.2380    1.2220   -2.2960 ha        1 N20      0.149000
     46 O23         2.6760   -1.3850   -5.6970 oh        1 N20     -0.498100
@<TRIPOS>BOND
     1    1   14 ar  
     2    1   21 ar  
     3    1   22 1   
     4    2   18 1   
     5    2   19 3   
     6    3    4 1   
     7    3    9 1   
     8    3   28 1   
     9    3   29 1   
    10    4    5 1   
    11    4    9 1   
    12    4   30 1   
    13    5    6 1   
    14    5   31 1   
    15    5   32 1   
    16    6    7 1   
    17    6   33 1   
    18    6   34 1   
    19    7    8 1   
    20    7   35 1   
    21    7   36 1   
    22    8    9 1   
    23    8   37 1   
    24    8   38 1   
    25    9   39 1   
    26   10   11 2   
    27   10   24 1   
    28   10   40 1   
    29   11   41 1   
    30   11   46 1   
    31   12   13 3   
    32   12   42 1   
    33   13   23 1   
    34   14   15 ar  
    35   15   16 1   
    36   15   17 ar  
    37   16   27 1   
    38   17   18 1   
    39   17   20 ar  
    40   18   26 1   
    41   20   21 ar  
    42   20   43 1   
    43   22   23 1   
    44   22   44 1   
    45   23   24 2   
    46   24   45 1   
    47   25   46 1   
@<TRIPOS>SUBSTRUCTURE
     1 N20         1 TEMP              0 ****  ****    0 ROOT
