@<TRIPOS>MOLECULE
N20
   47    49     1     0     0
SMALL
bcc


@<TRIPOS>ATOM
      1 C2          1.1920   -0.3680   -0.8020 c2        1 N20     -0.026000
      2 C8          1.5410    1.4800    3.7880 c1        1 N20     -0.065000
      3 C10         4.9270   -2.4560    0.4180 c3        1 N20     -0.210000
      4 C11         5.9130   -1.3150    0.5250 c3        1 N20     -0.123000
      5 C12         7.1780   -1.6370   -0.2600 c3        1 N20     -0.153000
      6 C13         8.1810   -0.5050   -0.1970 c3        1 N20     -0.164000
      7 C14         7.5770    0.7910   -0.6930 c3        1 N20     -0.156000
      8 C15         6.3240    1.1430    0.0810 c3        1 N20     -0.167000
      9 C16         5.3180   -0.0030    0.0060 c3        1 N20      0.045000
     10 C19        -1.8720    1.3950   -3.4870 c2        1 N20     -0.339000
     11 C20        -1.2440    1.8180   -4.6530 c2        1 N20      0.203000
     12 C21         0.1110    1.3250   -5.0400 c3        1 N20     -0.176000
     13 C22         0.7190    0.3940   -4.1150 c1        1 N20     -0.133000
     14 N1          2.5510   -0.2760   -0.6060 n2        1 N20     -0.193000
     15 C6          2.9440    0.2440    0.5760 c2        1 N20      0.169000
     16 O6          4.2530    0.4030    0.9170 os        1 N20     -0.206000
     17 C5          1.9870    0.6870    1.5830 c2        1 N20      0.029000
     18 N7          2.4070    1.2930    2.7560 nh        1 N20     -0.180000
     19 N9          0.8120    1.6900    4.6760 n1        1 N20      0.015000
     20 C4          0.6210    0.5130    1.2440 c2        1 N20     -0.074000
     21 N3          0.2090   -0.0020    0.0690 n2        1 N20     -0.141000
     22 N2          0.7650   -0.9410   -2.1150 n4        1 N20      0.106000
     23 C17         0.0400    0.0170   -2.9550 c2        1 N20     -0.285000
     24 C18        -1.2360    0.4900   -2.6240 c2        1 N20      0.127000
     25 H23        -2.6660    2.9780   -5.2190 ho        1 N20      0.262000
     26 H8          3.3850    1.2760    2.9750 hn        1 N20      0.288000
     27 H101        4.0110   -2.2340    1.0170 hc        1 N20      0.077333
     28 H102        5.3860   -3.3970    0.8090 hc        1 N20      0.077333
     29 H11         4.6280   -2.6240   -0.6440 hc        1 N20      0.077333
     30 H121        6.1850   -1.1680    1.6080 hc        1 N20      0.109000
     31 H122        7.6370   -2.5700    0.1610 hc        1 N20      0.092000
     32 H131        6.9100   -1.8450   -1.3290 hc        1 N20      0.092000
     33 H132        8.5360   -0.3750    0.8600 hc        1 N20      0.094500
     34 H141        9.0760   -0.7650   -0.8220 hc        1 N20      0.094500
     35 H142        8.3210    1.6230   -0.5810 hc        1 N20      0.093500
     36 H151        7.3340    0.7010   -1.7840 hc        1 N20      0.093500
     37 H152        6.5790    1.3430    1.1550 hc        1 N20      0.098500
     38 H161        5.8600    2.0730   -0.3370 hc        1 N20      0.098500
     39 H162        4.9420   -0.1230   -1.0420 h1        1 N20      0.122000
     40 H19        -2.8760    1.7660   -3.2250 ha        1 N20      0.173000
     41 H21         0.0600    0.8370   -6.0640 hc        1 N20      0.209000
     42 H22         0.8140    2.2060   -5.1750 hc        1 N20      0.209000
     43 H9         -0.1910    0.7990    1.9440 h4        1 N20      0.209000
     44 H2          0.1740   -1.7600   -1.9280 hn        1 N20      0.272000
     45 H18        -1.7710    0.1730   -1.7080 ha        1 N20      0.175000
     46 H221        1.6070   -1.2270   -2.6520 hn        1 N20      0.272000
     47 O23        -1.7840    2.6880   -5.5210 oh        1 N20     -0.192000
@<TRIPOS>BOND
     1    1   14 1   
     2    1   21 1   
     3    1   22 1   
     4    2   18 1   
     5    2   19 1   
     6    3    4 1   
     7    3   27 1   
     8    3   28 1   
     9    3   29 1   
    10    4    5 1   
    11    4    9 1   
    12    4   30 1   
    13    5    6 1   
    14    5   31 1   
    15    5   32 1   
    16    6    7 1   
    17    6   33 1   
    18    6   34 1   
    19    7    8 1   
    20    7   35 1   
    21    7   36 1   
    22    8    9 1   
    23    8   37 1   
    24    8   38 1   
    25    9   16 1   
    26    9   39 1   
    27   10   11 1   
    28   10   24 1   
    29   10   40 1   
    30   11   12 1   
    31   11   47 1   
    32   12   13 1   
    33   12   41 1   
    34   12   42 1   
    35   13   23 1   
    36   14   15 1   
    37   15   16 1   
    38   15   17 1   
    39   17   18 1   
    40   17   20 1   
    41   18   26 1   
    42   20   21 1   
    43   20   43 1   
    44   22   23 1   
    45   22   44 1   
    46   22   46 1   
    47   23   24 1   
    48   24   45 1   
    49   25   47 1   
@<TRIPOS>SUBSTRUCTURE
     1 N20         1 TEMP              0 ****  ****    0 ROOT
