@<TRIPOS>MOLECULE
N20
   46    48     1     0     0
SMALL
bcc


@<TRIPOS>ATOM
      1 C2         -0.2020   -0.1370    0.1230 c2        1 N20      0.179000
      2 C8          1.1250    1.4350    4.6450 c1        1 N20     -0.078000
      3 C10         4.5700    0.8660   -1.4480 cx        1 N20     -0.233000
      4 C11         5.8300    0.3750   -2.1090 cx        1 N20     -0.156000
      5 C12         6.9650    1.3270   -2.3300 c3        1 N20     -0.132000
      6 C13         7.8980    1.4190   -1.1380 c3        1 N20     -0.155000
      7 C14         7.1340    1.5920    0.1570 c3        1 N20     -0.155000
      8 C15         6.2820    0.3760    0.4600 c3        1 N20     -0.132000
      9 C16         5.4760   -0.0840   -0.7130 cx        1 N20     -0.156000
     10 C19         1.7060   -0.1010   -3.9320 c2        1 N20     -0.312000
     11 C20         1.3360   -1.1960   -4.6660 c2        1 N20      0.104000
     12 C21         0.1940   -2.0600   -4.2550 c3        1 N20     -0.173000
     13 C22        -0.4820   -1.6850   -3.0290 c1        1 N20     -0.133000
     14 N1          1.1680    0.0560    0.2090 n2        1 N20     -0.296000
     15 C6          1.6740    0.2290    1.4530 c2        1 N20      0.177000
     16 O6          3.0230    0.4210    1.6050 oh        1 N20     -0.259000
     17 C5          0.8850    0.1990    2.6440 c2        1 N20     -0.181000
     18 N7          1.4310    0.2880    3.9520 nu        1 N20     -0.120000
     19 N9          0.8180    2.3470    5.3070 n1        1 N20     -0.061000
     20 C4         -0.5030   -0.0240    2.4320 c2        1 N20      0.041000
     21 N3         -1.0530   -0.1960    1.2300 n2        1 N20     -0.223000
     22 N2         -0.8100   -0.1950   -1.1450 nu        1 N20     -0.184000
     23 C17        -0.0540   -0.5460   -2.2970 c2        1 N20     -0.108000
     24 C18         1.0010    0.2380   -2.7430 c2        1 N20      0.051000
     25 H23         2.6800   -0.9860   -6.0120 ho        1 N20      0.230000
     26 H8          2.4260    0.1210    3.9510 hn        1 N20      0.222000
     27 H101        3.4670    0.3940    0.7350 ho        1 N20      0.261000
     28 H102        4.5200    1.9200   -1.1180 hc        1 N20      0.113500
     29 H11         3.5930    0.4980   -1.8140 hc        1 N20      0.113500
     30 H121        5.7230   -0.3660   -2.9260 hc        1 N20      0.115500
     31 H122        6.5490    2.3460   -2.5540 hc        1 N20      0.083750
     32 H131        7.5540    1.0060   -3.2290 hc        1 N20      0.083750
     33 H132        8.5230    0.4890   -1.0790 hc        1 N20      0.082000
     34 H141        8.5950    2.2850   -1.2830 hc        1 N20      0.082000
     35 H142        7.8530    1.7580    1.0000 hc        1 N20      0.082000
     36 H151        6.4820    2.5030    0.0870 hc        1 N20      0.082000
     37 H152        5.5940    0.6050    1.3180 hc        1 N20      0.083750
     38 H161        6.9520   -0.4660    0.7860 hc        1 N20      0.083750
     39 H162        5.1260   -1.1310   -0.5950 hc        1 N20      0.115500
     40 H19         2.5480    0.5370   -4.2390 ha        1 N20      0.144000
     41 H21        -0.5780   -2.0810   -5.0820 hc        1 N20      0.179500
     42 H22         0.5500   -3.1280   -4.1420 hc        1 N20      0.179500
     43 H9         -1.2030   -0.0710    3.2900 h4        1 N20      0.184000
     44 H2         -1.7200   -0.6260   -1.1430 hn        1 N20      0.251000
     45 H18         1.3330    1.1410   -2.2010 ha        1 N20      0.155000
     46 O23         1.9520   -1.5970   -5.8100 oh        1 N20     -0.236000
@<TRIPOS>BOND
     1    1   14 1   
     2    1   21 1   
     3    1   22 1   
     4    2   18 1   
     5    2   19 1   
     6    3    4 1   
     7    3    9 1   
     8    3   28 1   
     9    3   29 1   
    10    4    5 1   
    11    4    9 1   
    12    4   30 1   
    13    5    6 1   
    14    5   31 1   
    15    5   32 1   
    16    6    7 1   
    17    6   33 1   
    18    6   34 1   
    19    7    8 1   
    20    7   35 1   
    21    7   36 1   
    22    8    9 1   
    23    8   37 1   
    24    8   38 1   
    25    9   39 1   
    26   10   11 1   
    27   10   24 1   
    28   10   40 1   
    29   11   12 1   
    30   11   46 1   
    31   12   13 1   
    32   12   41 1   
    33   12   42 1   
    34   13   23 1   
    35   14   15 1   
    36   15   16 1   
    37   15   17 1   
    38   16   27 1   
    39   17   18 1   
    40   17   20 1   
    41   18   26 1   
    42   20   21 1   
    43   20   43 1   
    44   22   23 1   
    45   22   44 1   
    46   23   24 1   
    47   24   45 1   
    48   25   46 1   
@<TRIPOS>SUBSTRUCTURE
     1 N20         1 TEMP              0 ****  ****    0 ROOT
