@<TRIPOS>MOLECULE
N20
   46    49     1     0     0
SMALL
bcc


@<TRIPOS>ATOM
      1 C2          1.4640   -0.2120   -2.0120 ca        1 N20      0.911900
      2 C8         -2.1880    0.0900   -4.5720 cc        1 N20      0.389700
      3 C10        -1.3430   -0.3250    1.0430 c3        1 N20      0.136400
      4 C11        -2.6360   -0.3490    1.8510 c3        1 N20     -0.071700
      5 C12        -2.3400   -0.8420    3.2600 c3        1 N20     -0.074400
      6 C13        -3.5960   -0.8430    4.1080 c3        1 N20     -0.075400
      7 C14        -4.2480    0.5240    4.1350 c3        1 N20     -0.078400
      8 C15        -4.5330    1.0250    2.7340 c3        1 N20     -0.075400
      9 C16        -3.2780    1.0300    1.8860 c3        1 N20     -0.074400
     10 C19         4.8270    1.1790    1.0390 ca        1 N20     -0.176500
     11 C20         4.4300    0.3930    2.1330 ca        1 N20      0.119100
     12 C21         3.4880   -0.6310    1.9710 ca        1 N20     -0.176500
     13 C22         2.9390   -0.8750    0.7160 ca        1 N20     -0.094500
     14 N1          0.5370   -0.2570   -0.9700 nb        1 N20     -0.820000
     15 C6         -0.7720   -0.1970   -1.2890 ca        1 N20      0.754600
     16 O6         -1.7530   -0.2350   -0.3370 os        1 N20     -0.419100
     17 C5         -1.2120   -0.0860   -2.6360 ca        1 N20     -0.213200
     18 N7         -2.4630   -0.0080   -3.2640 nd        1 N20     -0.501100
     19 N9         -0.8040    0.0830   -4.8660 na        1 N20     -0.385000
     20 C4         -0.1460   -0.0310   -3.6370 ca        1 N20      0.473800
     21 N3          1.1850   -0.0750   -3.3600 nb        1 N20     -0.776000
     22 N2          2.8320   -0.3860   -1.6910 nh        1 N20     -0.696300
     23 C17         3.3210   -0.0930   -0.3920 ca        1 N20      0.086600
     24 C18         4.2700    0.9390   -0.2090 ca        1 N20     -0.094500
     25 H23         4.6560    0.0720    4.0030 ho        1 N20      0.420000
     26 H8         -2.9340    0.1710   -5.3720 h5        1 N20      0.073800
     27 H101       -0.7580   -1.2700    1.1920 h1        1 N20      0.055200
     28 H102       -0.7110    0.5620    1.3040 h1        1 N20      0.055200
     29 H11        -3.3530   -1.0630    1.3550 hc        1 N20      0.070700
     30 H121       -1.9170   -1.8790    3.2150 hc        1 N20      0.044450
     31 H122       -1.5680   -0.1800    3.7320 hc        1 N20      0.044450
     32 H131       -4.3210   -1.5940    3.6980 hc        1 N20      0.040950
     33 H132       -3.3390   -1.1580    5.1520 hc        1 N20      0.040950
     34 H141       -5.2050    0.4710    4.7170 hc        1 N20      0.039200
     35 H142       -3.5730    1.2490    4.6610 hc        1 N20      0.039200
     36 H151       -5.3060    0.3700    2.2520 hc        1 N20      0.040950
     37 H152       -4.9530    2.0630    2.7830 hc        1 N20      0.040950
     38 H161       -2.5470    1.7730    2.3010 hc        1 N20      0.044450
     39 H162       -3.5240    1.3440    0.8380 hc        1 N20      0.044450
     40 H19         5.5680    1.9770    1.1850 ha        1 N20      0.144500
     41 H21         3.1830   -1.2440    2.8310 ha        1 N20      0.144500
     42 H22         2.2020   -1.6850    0.5990 ha        1 N20      0.145000
     43 H9         -0.3780    0.1400   -5.7530 hn        1 N20      0.317700
     44 H2          3.4590   -0.1130   -2.4240 hn        1 N20      0.434800
     45 H18         4.5850    1.5630   -1.0600 ha        1 N20      0.145000
     46 O23         5.0140    0.6850    3.3440 oh        1 N20     -0.496100
@<TRIPOS>BOND
     1    1   14 ar  
     2    1   21 ar  
     3    1   22 1   
     4    2   18 2   
     5    2   19 1   
     6    2   26 1   
     7    3    4 1   
     8    3   16 1   
     9    3   27 1   
    10    3   28 1   
    11    4    5 1   
    12    4    9 1   
    13    4   29 1   
    14    5    6 1   
    15    5   30 1   
    16    5   31 1   
    17    6    7 1   
    18    6   32 1   
    19    6   33 1   
    20    7    8 1   
    21    7   34 1   
    22    7   35 1   
    23    8    9 1   
    24    8   36 1   
    25    8   37 1   
    26    9   38 1   
    27    9   39 1   
    28   10   11 ar  
    29   10   24 ar  
    30   10   40 1   
    31   11   12 ar  
    32   11   46 1   
    33   12   13 ar  
    34   12   41 1   
    35   13   23 ar  
    36   13   42 1   
    37   14   15 ar  
    38   15   16 1   
    39   15   17 ar  
    40   17   18 1   
    41   17   20 ar  
    42   19   20 1   
    43   19   43 1   
    44   20   21 ar  
    45   22   23 1   
    46   22   44 1   
    47   23   24 ar  
    48   24   45 1   
    49   25   46 1   
@<TRIPOS>SUBSTRUCTURE
     1 N20         1 TEMP              0 ****  ****    0 ROOT
