@<TRIPOS>MOLECULE
N21
   53    55     1     0     0
SMALL
bcc


@<TRIPOS>ATOM
      1 OE1        -1.4600   -2.2680   -0.6340 o         1 N21     -0.888800
      2 CD         -1.7170   -1.8950    0.5560 c         1 N21      0.896600
      3 OE2        -0.7850   -1.3930    1.2660 o         1 N21     -0.888800
      4 CG         -3.1100   -2.0450    1.1540 c3        1 N21     -0.160400
      5 CB         -4.1790   -1.3310    0.3480 c3        1 N21     -0.071400
      6 C          -6.2780   -1.3880    1.7600 c         1 N21      0.921600
      7 OXT        -6.1600   -1.8320    2.9320 o         1 N21     -0.839300
      8 O          -7.2630   -1.6110    0.9980 o         1 N21     -0.839300
      9 N          -5.6900    0.6590    0.5040 n3        1 N21     -0.915100
     10 OBC        -4.7560    2.7660    1.5260 o         1 N21     -0.695800
     11 CAT        -3.6560    1.7340   -1.9410 ca        1 N21     -0.024000
     12 CAQ        -2.5490    1.2350   -2.6160 ca        1 N21     -0.138000
     13 CAS        -3.6520    1.8500   -0.5460 ca        1 N21     -0.355500
     14 CAR        -2.4670    1.5790    0.1440 ca        1 N21     -0.024000
     15 CAP        -1.3570    1.0590   -0.5190 ca        1 N21     -0.138000
     16 CAO        -1.4190    0.8230   -1.8950 ca        1 N21     -0.046300
     17 CAN        -0.3930   -0.0270   -2.5670 c3        1 N21      0.144700
     18 CAA         1.8280    0.0540   -1.6220 ca        1 N21      0.183100
     19 CAB         3.1470    0.5240   -1.8240 ca        1 N21     -0.203000
     20 CAG         4.1630    0.1020   -0.9830 ca        1 N21     -0.046000
     21 CAC         1.5460   -0.8290   -0.5680 ca        1 N21     -0.203000
     22 CAE         2.5760   -1.2310    0.2690 ca        1 N21     -0.046000
     23 CAF         3.9040   -0.7880    0.0760 ca        1 N21     -0.196800
     24 CAH         4.9180   -1.2620    0.9710 ce        1 N21      0.108800
     25 SBG         7.1490   -0.1050   -0.2030 ss        1 N21     -0.103200
     26 CAL         8.6940   -0.4390    0.5720 c         1 N21      0.692100
     27 NAX         8.5020   -1.2560    1.6910 n         1 N21     -0.621500
     28 CA         -5.1190   -0.4710    1.2160 c3        1 N21      0.105500
     29 CAK         7.1590   -1.6190    1.9380 c         1 N21      0.716700
     30 CAI         6.2510   -1.0340    0.9280 cd        1 N21     -0.223600
     31 SAU        -5.0940    2.1100    0.3140 sy        1 N21      1.503200
     32 OBD        -5.9720    2.8810   -0.5150 o         1 N21     -0.695800
     33 OAY         0.9200    0.5520   -2.5190 os        1 N21     -0.337900
     34 HG1C       -3.3470   -3.1390    1.2010 hc        1 N21      0.042700
     35 HG2C       -3.0880   -1.6650    2.2080 hc        1 N21      0.042700
     36 HB1C       -3.6760   -0.7000   -0.4330 hc        1 N21      0.036200
     37 HB2C       -4.8040   -2.0830   -0.2010 hc        1 N21      0.036200
     38 HA         -4.5500   -0.0680    2.1030 h1        1 N21      0.052700
     39 H          -6.5510    0.3880    0.0690 hn        1 N21      0.474800
     40 HAT        -4.5670    2.0110   -2.4980 ha        1 N21      0.147000
     41 HAQ        -2.5810    1.1080   -3.7070 ha        1 N21      0.144000
     42 HAR        -2.4350    1.7100    1.2400 ha        1 N21      0.147000
     43 HAP        -0.4820    0.7220    0.0650 ha        1 N21      0.144000
     44 HAN1       -0.4350   -1.0600   -2.1040 h1        1 N21      0.097700
     45 HAN2       -0.5880   -0.0940   -3.6740 h1        1 N21      0.097700
     46 HAB         3.3470    1.2250   -2.6460 ha        1 N21      0.202000
     47 HAC         0.5080   -1.2050   -0.3500 ha        1 N21      0.202000
     48 HAG         5.1810    0.4870   -1.1580 ha        1 N21      0.139000
     49 HAE         2.3320   -1.9050    1.1070 ha        1 N21      0.139000
     50 HAH         4.5520   -1.9070    1.8020 ha        1 N21      0.157000
     51 HAX         9.2450   -1.5580    2.2710 hn        1 N21      0.337500
     52 OBE         6.8590   -2.3440    2.8980 o         1 N21     -0.605500
     53 OBH         9.8150   -0.0370    0.2250 o         1 N21     -0.608500
@<TRIPOS>BOND
     1    1    2 1   
     2    2    3 1   
     3    2    4 1   
     4    4    5 1   
     5    4   34 1   
     6    4   35 1   
     7    5   28 1   
     8    5   36 1   
     9    5   37 1   
    10    6    7 1   
    11    6    8 1   
    12    6   28 1   
    13    9   28 1   
    14    9   31 1   
    15    9   39 1   
    16   10   31 2   
    17   11   12 ar  
    18   11   13 ar  
    19   11   40 1   
    20   12   16 ar  
    21   12   41 1   
    22   13   14 ar  
    23   13   31 1   
    24   14   15 ar  
    25   14   42 1   
    26   15   16 ar  
    27   15   43 1   
    28   16   17 1   
    29   17   33 1   
    30   17   44 1   
    31   17   45 1   
    32   18   19 ar  
    33   18   21 ar  
    34   18   33 1   
    35   19   20 ar  
    36   19   46 1   
    37   20   23 ar  
    38   20   48 1   
    39   21   22 ar  
    40   21   47 1   
    41   22   23 ar  
    42   22   49 1   
    43   23   24 1   
    44   24   30 2   
    45   24   50 1   
    46   25   26 1   
    47   25   30 1   
    48   26   27 1   
    49   26   53 2   
    50   27   29 1   
    51   27   51 1   
    52   28   38 1   
    53   29   30 1   
    54   29   52 2   
    55   31   32 2   
@<TRIPOS>SUBSTRUCTURE
     1 N21         1 TEMP              0 ****  ****    0 ROOT
