@<TRIPOS>MOLECULE
N21
   53    47     1     0     0
SMALL
bcc


@<TRIPOS>ATOM
      1 OE1        -8.1010   -5.9660    2.0130 o         1 N21     -0.584000
      2 CD         -8.3430   -4.7680    1.8200 c1        1 N21      0.326000
      3 OE2        -8.9190   -4.0810    2.7250 os        1 N21     -0.596500
      4 CG         -7.9850   -4.1200    0.4860 c3        1 N21     -0.228000
      5 CB         -6.6500   -3.4360    0.6030 c3        1 N21     -0.154000
      6 C          -5.8640   -4.2050   -1.6010 c1        1 N21      0.337000
      7 OXT        -6.6120   -4.5070   -2.6270 os        1 N21     -0.596500
      8 O          -4.9070   -4.9670   -1.2700 o         1 N21     -0.588000
      9 N          -5.0050   -2.1430   -0.6100 n3        1 N21     -0.892000
     10 OBC        -4.7590   -1.1660   -2.9290 o         1 N21     -0.967500
     11 CAT        -1.6000   -1.5200   -0.4990 c1        1 N21     -0.043000
     12 CAQ        -0.5250   -0.7720    0.0030 c1        1 N21     -0.161000
     13 CAS        -2.5010   -0.9370   -1.3760 c1        1 N21     -0.779000
     14 CAR        -2.3370    0.3840   -1.7540 c1        1 N21     -0.092000
     15 CAP        -1.2690    1.1290   -1.2560 c1        1 N21     -0.092000
     16 CAO        -0.3650    0.5420   -0.3740 c1        1 N21     -0.085000
     17 CAN         0.8060    1.4000    0.2360 c3        1 N21      0.019000
     18 CAA         3.1420    1.8730   -0.0180 c1        1 N21      0.150000
     19 CAB         4.1360    1.0400    0.5100 c1        1 N21     -0.092000
     20 CAG         5.2760    1.5900    1.0630 c1        1 N21     -0.092000
     21 CAC         3.3010    3.2320    0.0150 c1        1 N21     -0.227000
     22 CAE         4.4630    3.7930    0.5790 c1        1 N21     -0.044000
     23 CAF         5.4370    2.9770    1.0960 c1        1 N21     -0.162000
     24 CAH         6.6940    3.5960    1.7690 c2        1 N21      0.063000
     25 SBG         8.0990    3.1410   -0.3930 ss        1 N21      0.326000
     26 CAL         9.6490    3.4390   -0.7700 c2        1 N21      0.173000
     27 NAX        10.3120    4.0760    0.4390 n         1 N21     -0.397000
     28 CA         -6.1970   -2.9900   -0.7490 c3        1 N21     -0.042000
     29 CAK         9.1930    4.2350    1.6170 c2        1 N21      0.352000
     30 CAI         7.8560    3.6560    1.0930 c2        1 N21     -0.413000
     31 OBE         9.3990    4.6630    2.7550 o         1 N21     -0.323000
     32 SAU        -4.0500   -1.8700   -1.8960 s6        1 N21      2.839000
     33 OBD        -3.7210   -3.0980   -2.5720 o         1 N21     -0.967500
     34 OBH        10.1830    3.1820   -1.8160 o         1 N21     -0.305000
     35 OAY         1.9600    1.3030   -0.6010 os        1 N21     -0.189000
     36 HG1C       -7.9360   -4.8350   -0.2380 hc        1 N21      0.070000
     37 HG2C       -8.6700   -3.4620    0.2500 hc        1 N21      0.070000
     38 HB1C       -6.0120   -4.0480    0.9700 hc        1 N21      0.090500
     39 HB2C       -6.7300   -2.6710    1.1830 hc        1 N21      0.090500
     40 HA         -6.9240   -2.4700   -1.1860 h1        1 N21      0.094000
     41 H          -4.8300   -1.7320    0.1810 hn        1 N21      0.271000
     42 HAT        -1.7100   -2.4290   -0.2370 ha        1 N21      0.148000
     43 HAQ         0.1020   -1.1790    0.6150 ha        1 N21      0.119000
     44 HAR        -2.9360    0.7760   -2.4000 ha        1 N21      0.174250
     45 HAP        -1.1290    2.0550   -1.5600 ha        1 N21      0.174250
     46 HAN1        1.0300    1.0600    1.1530 h1        1 N21      0.090000
     47 HAN2        0.5350    2.3040    0.2940 h1        1 N21      0.090000
     48 HAB         4.0510    0.1010    0.4410 ha        1 N21      0.174250
     49 HAC         2.6160    3.8060   -0.3490 ha        1 N21      0.156000
     50 HAG         5.9520    1.0250    1.4180 ha        1 N21      0.174250
     51 HAE         4.5910    4.7150    0.5600 ha        1 N21      0.133000
     52 HAH         6.6400    3.9480    2.7040 ha        1 N21      0.152000
     53 HAX        11.1630    4.3330    0.4890 hn        1 N21      0.259000
@<TRIPOS>BOND
     1    1    2 1   
     2    2    4 1   
     3    4    5 1   
     4    4   36 1   
     5    4   37 1   
     6    5   28 1   
     7    5   38 1   
     8    5   39 1   
     9    6    8 1   
    10    6   28 1   
    11    9   28 1   
    12    9   32 1   
    13    9   41 1   
    14   10   32 1   
    15   11   13 1   
    16   11   42 1   
    17   12   16 1   
    18   12   43 1   
    19   13   32 1   
    20   14   15 1   
    21   14   44 1   
    22   15   45 1   
    23   16   17 1   
    24   17   35 1   
    25   17   46 1   
    26   17   47 1   
    27   18   21 1   
    28   18   35 1   
    29   19   20 1   
    30   19   48 1   
    31   20   50 1   
    32   21   49 1   
    33   22   23 1   
    34   22   51 1   
    35   23   24 1   
    36   24   30 1   
    37   24   52 1   
    38   25   26 1   
    39   25   30 1   
    40   26   27 1   
    41   26   34 1   
    42   27   29 1   
    43   27   53 1   
    44   28   40 1   
    45   29   30 1   
    46   29   31 1   
    47   32   33 1   
@<TRIPOS>SUBSTRUCTURE
     1 N21         1 TEMP              0 ****  ****    0 ROOT
