@<TRIPOS>MOLECULE
N21
   54    52     1     0     0
SMALL
bcc


@<TRIPOS>ATOM
      1 OE1         3.4150   -1.4360   -0.3960 os        1 N21     -0.475900
      2 CD          4.1200   -0.5000   -1.1140 c         1 N21      0.689600
      3 OE2         5.1850    0.0300   -0.8690 o         1 N21     -0.586500
      4 CG          2.8630   -0.9290   -1.6860 cx        1 N21      0.045400
      5 CB         -2.3320   -1.0590   -4.4840 c1        1 N21     -0.236500
      6 C           0.0870   -0.5880   -3.4880 c         1 N21      0.921800
      7 OXT         0.2390    0.3560   -2.6570 o         1 N21     -0.842300
      8 O           1.0580   -1.3180   -3.8600 o         1 N21     -0.842300
      9 N           1.7840   -0.8320   -6.6940 n3        1 N21     -1.032700
     10 OBC         2.4640   -0.0730   -8.9250 o         1 N21     -0.677800
     11 CAT         9.2600    1.1070    2.9570 c1        1 N21     -0.193500
     12 CAQ         8.5650    1.0950    1.9800 cg        1 N21     -0.139300
     13 CAS         2.8650    1.5820   -7.0480 c3        1 N21     -0.195500
     14 CAR         2.2810    1.7980   -5.7720 c1        1 N21     -0.209100
     15 CAP         1.7800    1.9560   -4.6970 c1        1 N21     -0.074500
     16 CAO         7.6990    1.0150    0.8860 ce        1 N21     -0.166700
     17 CAN         7.6990    1.7140   -0.2610 c2        1 N21      0.072100
     18 CAA         9.6200    3.1470    0.0760 c3        1 N21      0.173500
     19 CAB        10.7920    2.2330   -0.0970 c2        1 N21     -0.117200
     20 CAG        12.0380    2.6890   -0.2810 ce        1 N21     -0.145500
     21 CAC         9.9120    4.5560   -0.3350 c2        1 N21     -0.117200
     22 CAE        11.1620    5.0050   -0.5140 ce        1 N21     -0.145500
     23 CAF        12.3180    4.1180   -0.4010 ce        1 N21      0.010900
     24 CAH        13.5490    4.5820   -0.4260 c1        1 N21      0.057200
     25 SBG        15.7060    5.2520   -1.8930 ss        1 N21     -0.122200
     26 CAL        17.1060    5.8710   -1.0100 c         1 N21      0.709100
     27 NAX        16.8320    5.9040    0.3630 n         1 N21     -0.618500
     28 CA         -1.2420   -0.8460   -4.0360 cg        1 N21     -0.106200
     29 CAK        15.5490    5.4570    0.7380 c         1 N21      0.713700
     30 CAI        14.7640    5.0390   -0.4620 cc        1 N21     -0.114700
     31 SAU         2.8640   -0.0950   -7.5600 s6        1 N21      1.454900
     32 OBD         4.1740   -0.5750   -7.3330 o         1 N21     -0.677800
     33 OAY         8.5110    2.7130   -0.7260 os        1 N21     -0.319900
     34 HG1C        5.4990   -1.4500    1.7700 ha        1 N21      0.001000
     35 HG2C        5.1880   -1.2860    1.1900 ha        1 N21      0.001000
     36 HB1C        2.8180   -1.6760   -2.5050 h1        1 N21      0.157700
     37 HB2C        1.9370   -0.3140   -1.6060 h1        1 N21      0.157700
     38 HA         -3.2960   -1.2460   -4.8780 ha        1 N21      0.137500
     39 H           0.8830   -1.0730   -7.0300 hn        1 N21      0.482300
     40 HAT         3.9300    1.9510   -7.0380 h1        1 N21      0.111700
     41 HAQ         9.8770    1.1210    3.8170 ha        1 N21      0.161500
     42 HAR         2.3320    2.2070   -7.8180 h1        1 N21      0.111700
     43 HAP         6.8890    0.2560    0.9920 ha        1 N21      0.183000
     44 HAN1        1.3050    1.9880   -3.7380 ha        1 N21      0.207500
     45 HAN2        6.9310    1.5320   -1.0480 h4        1 N21      0.205000
     46 HAB         9.3230    3.1540    1.1700 h1        1 N21      0.095700
     47 HAC         9.0310    5.2030   -0.4660 ha        1 N21      0.155500
     48 HAG        10.5610    1.1570   -0.0370 ha        1 N21      0.155500
     49 HAE        11.3660    6.0580   -0.7650 ha        1 N21      0.143000
     50 HAH        12.8980    2.0050   -0.3610 ha        1 N21      0.143000
     51 HAX        17.4930    6.2210    1.0320 hn        1 N21      0.350500
     52 OBH        18.1870    6.2320   -1.4880 o         1 N21     -0.566500
     53 H2          1.8520   -1.0150   -5.7080 hn        1 N21      0.482300
     54 OBE        15.1830    5.4370    1.9170 o         1 N21     -0.565500
@<TRIPOS>BOND
     1    1    2 1   
     2    1    4 1   
     3    2    3 2   
     4    2    4 1   
     5    4   36 1   
     6    4   37 1   
     7    5   28 3   
     8    5   38 1   
     9    6    7 1   
    10    6    8 1   
    11    6   28 1   
    12    9   31 1   
    13    9   39 1   
    14    9   53 1   
    15   10   31 2   
    16   11   12 3   
    17   11   41 1   
    18   12   16 1   
    19   13   14 1   
    20   13   31 1   
    21   13   40 1   
    22   13   42 1   
    23   14   15 3   
    24   15   44 1   
    25   16   17 2   
    26   16   43 1   
    27   17   33 1   
    28   17   45 1   
    29   18   19 1   
    30   18   21 1   
    31   18   33 1   
    32   18   46 1   
    33   19   20 2   
    34   19   48 1   
    35   20   23 1   
    36   20   50 1   
    37   21   22 2   
    38   21   47 1   
    39   22   23 1   
    40   22   49 1   
    41   23   24 2   
    42   24   30 2   
    43   25   26 1   
    44   25   30 1   
    45   26   27 1   
    46   26   52 2   
    47   27   29 1   
    48   27   51 1   
    49   29   30 1   
    50   29   54 2   
    51   31   32 2   
    52   34   35 1   
@<TRIPOS>SUBSTRUCTURE
     1 N21         1 TEMP              0 ****  ****    0 ROOT
