@<TRIPOS>MOLECULE
N21
   54    52     1     0     0
SMALL
bcc


@<TRIPOS>ATOM
      1 OE1         2.7440    4.0940    0.8540 os        1 N21     -0.470900
      2 CD          4.0880    3.9240    0.6130 c         1 N21      0.688600
      3 OE2         5.0600    4.4050    1.1540 o         1 N21     -0.554500
      4 CG          3.1820    3.1800   -0.2350 cx        1 N21      0.057400
      5 CB          0.0800   -0.4000   -3.2450 c1        1 N21     -0.218500
      6 C           2.5810    0.1800   -2.5730 c         1 N21      0.925800
      7 OXT         2.8750    1.3710   -2.2380 o         1 N21     -0.852800
      8 O           3.4610   -0.7320   -2.5870 o         1 N21     -0.852800
      9 N           5.6110   -1.1390   -4.4650 n3        1 N21     -1.027700
     10 OBC         5.6850   -1.8610   -6.8350 o         1 N21     -0.676300
     11 CAT         8.4520   -1.5400   -0.1670 c1        1 N21     -0.211500
     12 CAQ         7.4690   -1.0370   -0.6370 cg        1 N21     -0.130300
     13 CAS         5.8700    0.6360   -6.4490 c3        1 N21     -0.202500
     14 CAR         5.0180    1.3710   -5.5840 c1        1 N21     -0.194100
     15 CAP         4.2990    1.9670   -4.8350 c1        1 N21     -0.085500
     16 CAO         6.2870   -0.5360   -1.1860 ce        1 N21     -0.201700
     17 CAN         5.9520    0.7270   -1.5080 c2        1 N21      0.064100
     18 CAA         7.9110    1.9320   -0.7520 c3        1 N21      0.164500
     19 CAB         9.0200    1.6500   -1.7150 c2        1 N21     -0.108700
     20 CAG        10.1480    2.3740   -1.7450 ce        1 N21     -0.158500
     21 CAC         8.0230    3.2790   -0.1060 c2        1 N21     -0.108700
     22 CAE         9.1570    3.9930   -0.1360 ce        1 N21     -0.158500
     23 CAF        10.3290    3.5390   -0.8820 ce        1 N21      0.022900
     24 CAH        11.4840    4.1650   -0.8000 c1        1 N21      0.050200
     25 SBG        13.0890    6.1030   -1.7560 ss        1 N21     -0.130200
     26 CAL        14.6620    6.2910   -0.9760 c         1 N21      0.709100
     27 NAX        14.8040    5.3520    0.0520 n         1 N21     -0.620500
     28 CA          1.2080   -0.1380   -2.9420 cg        1 N21     -0.112200
     29 CAK        13.7060    4.4880    0.2430 c         1 N21      0.714700
     30 CAI        12.6190    4.7920   -0.7310 cc        1 N21     -0.115700
     31 SAU         6.2580   -0.9820   -5.8830 s6        1 N21      1.451900
     32 OBD         7.6760   -1.0230   -5.8000 o         1 N21     -0.676300
     33 OAY         6.6410    1.9030   -1.4200 os        1 N21     -0.316900
     34 HG1C        3.4500   -0.0820    0.4020 ha        1 N21      0.000500
     35 HG2C        3.6200   -0.1170   -0.2550 ha        1 N21      0.000500
     36 HB1C        2.9780    2.1020   -0.0650 h1        1 N21      0.137700
     37 HB2C        2.9340    3.5180   -1.2600 h1        1 N21      0.137700
     38 HA         -0.9160   -0.6330   -3.5140 ha        1 N21      0.140500
     39 H           4.6350   -1.2750   -4.2820 hn        1 N21      0.483300
     40 HAT         6.8300    1.2060   -6.6030 h1        1 N21      0.114200
     41 HAQ         9.3230   -1.9780    0.2430 ha        1 N21      0.157500
     42 HAR         5.3930    0.5580   -7.4660 h1        1 N21      0.114200
     43 HAP         5.4910   -1.2950   -1.3700 ha        1 N21      0.193000
     44 HAN1        3.6550    2.4090   -4.1070 ha        1 N21      0.199500
     45 HAN2        4.9400    0.9610   -1.9480 h4        1 N21      0.252000
     46 HAB         7.9370    1.1490    0.0670 h1        1 N21      0.096700
     47 HAC         7.1130    3.6380    0.4080 ha        1 N21      0.168500
     48 HAG         8.8570    0.7910   -2.3860 ha        1 N21      0.168500
     49 HAE         9.2430    4.9560    0.3890 ha        1 N21      0.143000
     50 HAH        10.9750    2.1250   -2.4280 ha        1 N21      0.143000
     51 HAX        15.6210    5.2940    0.6120 hn        1 N21      0.347500
     52 OBH        15.5400    7.1140   -1.2590 o         1 N21     -0.576500
     53 H2          6.0830   -0.9510   -3.6070 hn        1 N21      0.483300
     54 OBE        13.7120    3.6170    1.1190 o         1 N21     -0.568500
@<TRIPOS>BOND
     1    1    2 1   
     2    1    4 1   
     3    2    3 2   
     4    2    4 1   
     5    4   36 1   
     6    4   37 1   
     7    5   28 3   
     8    5   38 1   
     9    6    7 1   
    10    6    8 1   
    11    6   28 1   
    12    9   31 1   
    13    9   39 1   
    14    9   53 1   
    15   10   31 2   
    16   11   12 3   
    17   11   41 1   
    18   12   16 1   
    19   13   14 1   
    20   13   31 1   
    21   13   40 1   
    22   13   42 1   
    23   14   15 3   
    24   15   44 1   
    25   16   17 2   
    26   16   43 1   
    27   17   33 1   
    28   17   45 1   
    29   18   19 1   
    30   18   21 1   
    31   18   33 1   
    32   18   46 1   
    33   19   20 2   
    34   19   48 1   
    35   20   23 1   
    36   20   50 1   
    37   21   22 2   
    38   21   47 1   
    39   22   23 1   
    40   22   49 1   
    41   23   24 2   
    42   24   30 2   
    43   25   26 1   
    44   25   30 1   
    45   26   27 1   
    46   26   52 2   
    47   27   29 1   
    48   27   51 1   
    49   29   30 1   
    50   29   54 2   
    51   31   32 2   
    52   34   35 1   
@<TRIPOS>SUBSTRUCTURE
     1 N21         1 TEMP              0 ****  ****    0 ROOT
