@<TRIPOS>MOLECULE
N21
   54    53     1     0     0
SMALL
bcc


@<TRIPOS>ATOM
      1 OE1         4.0530    2.6880   -2.5580 o         1 N21     -0.553000
      2 CD          3.3320    1.6840   -2.5020 c         1 N21      0.638100
      3 OE2         3.8780    0.6950   -1.7330 oh        1 N21     -0.614100
      4 CG          2.0090    1.5020   -3.1860 c3        1 N21     -0.136200
      5 CB          1.2900    0.2960   -2.7410 c2        1 N21     -0.332200
      6 C           0.1130   -1.8930   -2.5870 c         1 N21      0.912800
      7 OXT         0.2840   -1.8760   -1.3440 o         1 N21     -0.795800
      8 O          -0.6040   -2.6910   -3.2430 o         1 N21     -0.795800
      9 N           1.1020   -1.1420   -4.7520 nu        1 N21     -0.786900
     10 OBC         2.3110    0.5480   -6.1770 o         1 N21     -0.655800
     11 CAT         8.9920   -0.3510    0.0990 c1        1 N21     -0.194500
     12 CAQ         8.1420    0.3380   -0.3920 cg        1 N21     -0.139300
     13 CAS         3.7060   -1.1910   -4.9140 c3        1 N21     -0.204500
     14 CAR         4.8890   -1.0040   -5.6780 c1        1 N21     -0.109100
     15 CAP         5.9010   -0.8540   -6.2990 c1        1 N21     -0.143500
     16 CAO         7.0880    1.0680   -0.9470 ce        1 N21     -0.169700
     17 CAN         7.0930    2.2860   -1.5150 c2        1 N21      0.065100
     18 CAA         9.4350    2.8640   -1.3320 c3        1 N21      0.171500
     19 CAB        10.3470    3.6430   -2.2280 c2        1 N21     -0.115200
     20 CAG        11.4240    4.2930   -1.7650 ce        1 N21     -0.148500
     21 CAC         9.6420    3.1640    0.1180 c2        1 N21     -0.115200
     22 CAE        10.7180    3.8200    0.5730 ce        1 N21     -0.148500
     23 CAF        11.7300    4.3510   -0.3370 ce        1 N21      0.012900
     24 CAH        12.8530    4.8750    0.1070 c1        1 N21      0.055200
     25 SBG        14.1670    7.0700    0.9460 ss        1 N21     -0.126200
     26 CAL        15.8580    6.8540    1.4120 c         1 N21      0.710100
     27 NAX        16.2330    5.5150    1.2540 ns        1 N21     -0.618500
     28 CA          0.9060   -0.8110   -3.4090 ce        1 N21      0.081800
     29 CAK        15.2250    4.6540    0.7760 c         1 N21      0.713700
     30 CAI        13.9550    5.4040    0.5450 cc        1 N21     -0.113700
     31 SAU         2.2530   -0.8130   -5.8190 s6        1 N21      1.432900
     32 OBD         2.1430   -1.7130   -6.9040 o         1 N21     -0.655800
     33 OAY         8.0980    3.1890   -1.7350 os        1 N21     -0.318900
     34 HG1C        4.1360    2.4860    0.1140 ha        1 N21      0.000000
     35 HG2C        4.7450    2.3200   -0.1320 ha        1 N21      0.000000
     36 HB1C        2.1930    1.5360   -4.2950 hc        1 N21      0.096200
     37 HB2C        1.3860    2.4100   -2.9450 hc        1 N21      0.096200
     38 HA          0.9840    0.3200   -1.6740 ha        1 N21      0.166000
     39 H           0.4400   -1.8730   -4.9910 hn        1 N21      0.495800
     40 HAT         3.7680   -0.5540   -3.9830 h1        1 N21      0.123700
     41 HAQ         9.7450   -0.9580    0.5310 ha        1 N21      0.161500
     42 HAR         3.6770   -2.2570   -4.5480 h1        1 N21      0.123700
     43 HAP         6.1010    0.5530   -0.9130 ha        1 N21      0.183000
     44 HAN1        6.7850   -0.7130   -6.8640 ha        1 N21      0.161500
     45 HAN2        6.1540    2.7400   -1.9190 h4        1 N21      0.218000
     46 HAB         9.6320    1.7610   -1.5050 h1        1 N21      0.097700
     47 HAC         8.8560    2.7860    0.7920 ha        1 N21      0.155000
     48 HAG        10.0800    3.6350   -3.2960 ha        1 N21      0.155000
     49 HAE        10.8770    3.9920    1.6490 ha        1 N21      0.142500
     50 HAH        12.1150    4.8180   -2.4430 ha        1 N21      0.142500
     51 HAX        17.1460    5.1880    1.4640 hn        1 N21      0.350500
     52 OBH        16.6330    7.7250    1.8210 o         1 N21     -0.567500
     53 H2          3.2560   -0.0450   -1.6370 ho        1 N21      0.456000
     54 OBE        15.4280    3.4500    0.5920 o         1 N21     -0.564500
@<TRIPOS>BOND
     1    1    2 2   
     2    2    3 1   
     3    2    4 1   
     4    3   53 1   
     5    4    5 1   
     6    4   36 1   
     7    4   37 1   
     8    5   28 2   
     9    5   38 1   
    10    6    7 1   
    11    6    8 1   
    12    6   28 1   
    13    9   28 1   
    14    9   31 1   
    15    9   39 1   
    16   10   31 2   
    17   11   12 3   
    18   11   41 1   
    19   12   16 1   
    20   13   14 1   
    21   13   31 1   
    22   13   40 1   
    23   13   42 1   
    24   14   15 3   
    25   15   44 1   
    26   16   17 2   
    27   16   43 1   
    28   17   33 1   
    29   17   45 1   
    30   18   19 1   
    31   18   21 1   
    32   18   33 1   
    33   18   46 1   
    34   19   20 2   
    35   19   48 1   
    36   20   23 1   
    37   20   50 1   
    38   21   22 2   
    39   21   47 1   
    40   22   23 1   
    41   22   49 1   
    42   23   24 2   
    43   24   30 2   
    44   25   26 1   
    45   25   30 1   
    46   26   27 1   
    47   26   52 2   
    48   27   29 1   
    49   27   51 1   
    50   29   30 1   
    51   29   54 2   
    52   31   32 2   
    53   34   35 1   
@<TRIPOS>SUBSTRUCTURE
     1 N21         1 TEMP              0 ****  ****    0 ROOT
