@<TRIPOS>MOLECULE
N22
   45    46     1     0     0
SMALL
bcc


@<TRIPOS>ATOM
      1 C8          0.6040   -1.3650   -0.3150 c3        1 N22     -0.101100
      2 C7          0.9010    0.0560    0.0860 c3        1 N22     -0.147700
      3 C5          1.7480    0.2180    1.3120 ca        1 N22      0.532600
      4 N4          2.2070   -0.8460    1.9910 nb        1 N22     -0.634000
      5 C3          2.9800   -0.5910    3.1070 ca        1 N22      0.722900
      6 N8          3.4710   -1.7970    3.8360 n4        1 N22     -0.813300
      7 N2          3.3380    0.6200    3.6080 nb        1 N22     -0.659000
      8 C1          2.8620    1.6950    2.9050 ca        1 N22      0.474200
      9 N7          3.2080    3.0420    3.3940 n4        1 N22     -0.821300
     10 C6          2.0560    1.5680    1.7430 ca        1 N22     -0.019600
     11 C9          1.6080    2.7000    1.0840 cg        1 N22     -0.326000
     12 C10         1.2520    3.7290    0.5640 c1        1 N22      0.163900
     13 C11         0.8890    5.0080    0.0350 c3        1 N22     -0.001000
     14 C13         0.7830    6.0370    1.1150 ca        1 N22     -0.082300
     15 C18        -0.4080    6.7430    1.2610 ca        1 N22     -0.134000
     16 C17        -0.5110    7.7550    2.2410 ca        1 N22      0.161100
     17 O2         -1.7310    8.3760    2.2890 os        1 N22     -0.307900
     18 C4         -1.8590    9.4800    3.1880 c3        1 N22      0.104700
     19 C16         0.5740    8.0530    3.0780 ca        1 N22     -0.176000
     20 C15         1.7610    7.3400    2.9370 ca        1 N22     -0.099000
     21 C14         1.8610    6.3320    1.9720 ca        1 N22      0.013100
     22 O10         3.0350    5.5780    1.8930 os        1 N22     -0.447900
     23 C2          4.1190    6.2880    1.2770 c3        1 N22      0.118700
     24 H8         -0.0320   -1.3570   -1.2360 hc        1 N22      0.066367
     25 H8A         1.5410   -1.9280   -0.5450 hc        1 N22      0.066367
     26 H8B         0.0470   -1.9070    0.4870 hc        1 N22      0.066367
     27 H7          1.4320    0.5870   -0.7550 hc        1 N22      0.102200
     28 H7A        -0.0640    0.6090    0.2750 hc        1 N22      0.102200
     29 HN8         2.6600   -2.3550    4.1450 hn        1 N22      0.495800
     30 HN8A        4.0350   -1.5260    4.6550 hn        1 N22      0.495800
     31 HN7         2.4690    3.3730    4.0300 hn        1 N22      0.495800
     32 HN7A        3.2590    3.6950    2.5820 hn        1 N22      0.495800
     33 H11         1.6780    5.3320   -0.7110 hc        1 N22      0.122700
     34 H11A       -0.0860    4.9240   -0.5320 hc        1 N22      0.122700
     35 H18        -1.2760    6.5430    0.6140 ha        1 N22      0.172000
     36 H4         -2.9060    9.8350    3.0010 h1        1 N22      0.063700
     37 H4A        -1.7370    9.1380    4.2430 h1        1 N22      0.063700
     38 H4B        -1.1190   10.2780    2.9370 h1        1 N22      0.063700
     39 H16         0.5010    8.8490    3.8350 ha        1 N22      0.169000
     40 H15         2.6270    7.5770    3.5750 ha        1 N22      0.152000
     41 H2          3.8610    6.5310    0.2190 h1        1 N22      0.057033
     42 H2A         4.3410    7.2210    1.8500 h1        1 N22      0.057033
     43 H2B         4.9770    5.5730    1.3260 h1        1 N22      0.057033
     44 H83         4.0470   -2.3650    3.1950 hn        1 N22      0.495800
     45 H73         4.1070    3.0450    3.8930 hn        1 N22      0.495800
@<TRIPOS>BOND
     1    1    2 1   
     2    1   24 1   
     3    1   25 1   
     4    1   26 1   
     5    2    3 1   
     6    2   27 1   
     7    2   28 1   
     8    3    4 ar  
     9    3   10 ar  
    10    4    5 ar  
    11    5    6 1   
    12    5    7 ar  
    13    6   29 1   
    14    6   30 1   
    15    6   44 1   
    16    7    8 ar  
    17    8    9 1   
    18    8   10 ar  
    19    9   31 1   
    20    9   32 1   
    21    9   45 1   
    22   10   11 1   
    23   11   12 3   
    24   12   13 1   
    25   13   14 1   
    26   13   33 1   
    27   13   34 1   
    28   14   15 ar  
    29   14   21 ar  
    30   15   16 ar  
    31   15   35 1   
    32   16   17 1   
    33   16   19 ar  
    34   17   18 1   
    35   18   36 1   
    36   18   37 1   
    37   18   38 1   
    38   19   20 ar  
    39   19   39 1   
    40   20   21 ar  
    41   20   40 1   
    42   21   22 1   
    43   22   23 1   
    44   23   41 1   
    45   23   42 1   
    46   23   43 1   
@<TRIPOS>SUBSTRUCTURE
     1 N22         1 TEMP              0 ****  ****    0 ROOT
