@<TRIPOS>MOLECULE
N22
   43    44     1     0     0
SMALL
bcc


@<TRIPOS>ATOM
      1 C8          0.8800   -0.1490   -0.7080 c3        1 N22     -0.087100
      2 C7          2.1070   -0.0760    0.1680 c3        1 N22     -0.138700
      3 C5          1.7640   -0.2720    1.6230 ca        1 N22      0.537600
      4 N4          1.3410   -1.4920    2.0080 nb        1 N22     -0.792000
      5 C3          1.0170   -1.6470    3.3520 ca        1 N22      0.911900
      6 N8          0.4650   -2.8720    3.7400 nh        1 N22     -0.929500
      7 N2          1.1410   -0.6760    4.3260 nb        1 N22     -0.831000
      8 C1          1.5900    0.5510    3.9130 ca        1 N22      0.744200
      9 N7          1.7860    1.5340    4.8600 nh        1 N22     -0.955500
     10 C6          1.9040    0.8100    2.5260 ca        1 N22     -0.333600
     11 C9          2.3300    2.0780    2.1240 cg        1 N22     -0.089000
     12 C10         2.6900    3.1750    1.7970 c1        1 N22     -0.151100
     13 C11         3.1410    4.4680    1.3810 c3        1 N22      0.056000
     14 C13         2.7920    5.5750    2.3180 ca        1 N22     -0.062300
     15 C18         1.8500    5.4220    3.3290 ca        1 N22     -0.123000
     16 C17         1.5520    6.4990    4.1850 ca        1 N22      0.094100
     17 O2          0.6120    6.2130    5.1600 os        1 N22     -0.330900
     18 C4          0.2280    7.3000    5.9940 c3        1 N22      0.114700
     19 C16         2.1850    7.7330    4.0310 ca        1 N22     -0.172000
     20 C15         3.1270    7.8970    3.0130 ca        1 N22     -0.165000
     21 C14         3.4290    6.8310    2.1650 ca        1 N22      0.089100
     22 O10         4.3420    6.8990    1.1250 os        1 N22     -0.330900
     23 C2          5.0520    8.1240    0.9950 c3        1 N22      0.114700
     24 H8          0.1300    0.6200   -0.4030 hc        1 N22      0.040700
     25 H8A         0.4010   -1.1550   -0.6410 hc        1 N22      0.040700
     26 H8B         1.1660    0.0390   -1.7710 hc        1 N22      0.040700
     27 H7          2.6080    0.9190    0.0380 hc        1 N22      0.062200
     28 H7A         2.8420   -0.8660   -0.1460 hc        1 N22      0.062200
     29 HN8         0.6010   -3.6380    3.1230 hn        1 N22      0.427800
     30 HN8A        0.4670   -3.0780    4.7110 hn        1 N22      0.427800
     31 HN7         1.9370    2.4590    4.5370 hn        1 N22      0.438300
     32 HN7A        1.4370    1.4080    5.7790 hn        1 N22      0.438300
     33 H11         2.7040    4.7120    0.3680 hc        1 N22      0.079200
     34 H11A        4.2640    4.4480    1.2510 hc        1 N22      0.079200
     35 H18         1.3280    4.4630    3.4670 ha        1 N22      0.153000
     36 H4         -0.2030    8.1330    5.3870 h1        1 N22      0.043700
     37 H4A         1.0980    7.6630    6.5930 h1        1 N22      0.043700
     38 H4B        -0.5520    6.8540    6.6620 h1        1 N22      0.043700
     39 H16         1.9560    8.5790    4.6940 ha        1 N22      0.139000
     40 H15         3.6210    8.8710    2.8950 ha        1 N22      0.139000
     41 H2          5.6320    8.3480    1.9230 h1        1 N22      0.044367
     42 H2A         4.3510    8.9620    0.7590 h1        1 N22      0.044367
     43 H2B         5.7420    7.9340    0.1340 h1        1 N22      0.044367
@<TRIPOS>BOND
     1    1    2 1   
     2    1   24 1   
     3    1   25 1   
     4    1   26 1   
     5    2    3 1   
     6    2   27 1   
     7    2   28 1   
     8    3    4 ar  
     9    3   10 ar  
    10    4    5 ar  
    11    5    6 1   
    12    5    7 ar  
    13    6   29 1   
    14    6   30 1   
    15    7    8 ar  
    16    8    9 1   
    17    8   10 ar  
    18    9   31 1   
    19    9   32 1   
    20   10   11 1   
    21   11   12 3   
    22   12   13 1   
    23   13   14 1   
    24   13   33 1   
    25   13   34 1   
    26   14   15 ar  
    27   14   21 ar  
    28   15   16 ar  
    29   15   35 1   
    30   16   17 1   
    31   16   19 ar  
    32   17   18 1   
    33   18   36 1   
    34   18   37 1   
    35   18   38 1   
    36   19   20 ar  
    37   19   39 1   
    38   20   21 ar  
    39   20   40 1   
    40   21   22 1   
    41   22   23 1   
    42   23   41 1   
    43   23   42 1   
    44   23   43 1   
@<TRIPOS>SUBSTRUCTURE
     1 N22         1 TEMP              0 ****  ****    0 ROOT
