@<TRIPOS>MOLECULE
N22
   43    44     1     0     0
SMALL
bcc


@<TRIPOS>ATOM
      1 C8          0.0090    0.3310   -0.2230 c3        1 N22     -0.087100
      2 C7          1.4810    0.2550    0.1000 c3        1 N22     -0.138700
      3 C5          1.7190    0.1050    1.5800 ca        1 N22      0.537600
      4 N4          1.3440   -1.0520    2.1610 nb        1 N22     -0.791000
      5 C3          1.5590   -1.1650    3.5300 ca        1 N22      0.912900
      6 N8          1.0670   -2.3090    4.1630 nv        1 N22     -0.930500
      7 N2          2.1680   -0.2160    4.3300 nb        1 N22     -0.830000
      8 C1          2.5580    0.9430    3.7120 ca        1 N22      0.741200
      9 N7          3.2300    1.8920    4.4570 nv        1 N22     -0.952500
     10 C6          2.3290    1.1610    2.3030 ca        1 N22     -0.332600
     11 C9          2.7070    2.3640    1.7020 cg        1 N22     -0.091000
     12 C10         3.0340    3.4030    1.1990 c1        1 N22     -0.150100
     13 C11         3.4570    4.6200    0.5750 c3        1 N22      0.055000
     14 C13         2.7630    5.8480    1.0610 ca        1 N22     -0.067300
     15 C18         1.6210    5.7950    1.8510 ca        1 N22     -0.120000
     16 C17         1.0010    6.9870    2.2730 ca        1 N22      0.095100
     17 O2         -0.1200    6.8020    3.0630 os        1 N22     -0.325900
     18 C4         -0.8050    7.9820    3.4610 c3        1 N22      0.113700
     19 C16         1.5160    8.2310    1.9060 ca        1 N22     -0.174000
     20 C15         2.6610    8.2920    1.1090 ca        1 N22     -0.167000
     21 C14         3.2800    7.1140    0.6900 ca        1 N22      0.087100
     22 O10         4.4140    7.0710   -0.1040 os        1 N22     -0.331900
     23 C2          4.9790    8.3270   -0.4560 c3        1 N22      0.114700
     24 H8         -0.4700    1.1860    0.3120 hc        1 N22      0.041033
     25 H8A        -0.5130   -0.6100    0.0730 hc        1 N22      0.041033
     26 H8B        -0.1260    0.4810   -1.3220 hc        1 N22      0.041033
     27 H7          1.9980    1.1830   -0.2650 hc        1 N22      0.062700
     28 H7A         1.9410   -0.6180   -0.4370 hc        1 N22      0.062700
     29 HN8         0.8560   -3.0860    3.5820 hn        1 N22      0.428300
     30 HN8A        1.4250   -2.5140    5.0670 hn        1 N22      0.428300
     31 HN7         3.3250    2.7950    4.0580 hn        1 N22      0.435800
     32 HN7A        3.2440    1.8150    5.4450 hn        1 N22      0.435800
     33 H11         3.2960    4.5420   -0.5400 hc        1 N22      0.078700
     34 H11A        4.5690    4.7510    0.7300 hc        1 N22      0.078700
     35 H18         1.1900    4.8270    2.1510 ha        1 N22      0.162000
     36 H4         -0.1480    8.6220    4.1010 h1        1 N22      0.043367
     37 H4A        -1.6730    7.5940    4.0520 h1        1 N22      0.043367
     38 H4B        -1.1600    8.5550    2.5710 h1        1 N22      0.043367
     39 H16         1.0370    9.1650    2.2310 ha        1 N22      0.138000
     40 H15         3.0600    9.2740    0.8220 ha        1 N22      0.138000
     41 H2          5.8760    8.0470   -1.0650 h1        1 N22      0.043700
     42 H2A         5.2850    8.8950    0.4560 h1        1 N22      0.043700
     43 H2B         4.2610    8.9260   -1.0670 h1        1 N22      0.043700
@<TRIPOS>BOND
     1    1    2 1   
     2    1   24 1   
     3    1   25 1   
     4    1   26 1   
     5    2    3 1   
     6    2   27 1   
     7    2   28 1   
     8    3    4 ar  
     9    3   10 ar  
    10    4    5 ar  
    11    5    6 1   
    12    5    7 ar  
    13    6   29 1   
    14    6   30 1   
    15    7    8 ar  
    16    8    9 1   
    17    8   10 ar  
    18    9   31 1   
    19    9   32 1   
    20   10   11 1   
    21   11   12 3   
    22   12   13 1   
    23   13   14 1   
    24   13   33 1   
    25   13   34 1   
    26   14   15 ar  
    27   14   21 ar  
    28   15   16 ar  
    29   15   35 1   
    30   16   17 1   
    31   16   19 ar  
    32   17   18 1   
    33   18   36 1   
    34   18   37 1   
    35   18   38 1   
    36   19   20 ar  
    37   19   39 1   
    38   20   21 ar  
    39   20   40 1   
    40   21   22 1   
    41   22   23 1   
    42   23   41 1   
    43   23   42 1   
    44   23   43 1   
@<TRIPOS>SUBSTRUCTURE
     1 N22         1 TEMP              0 ****  ****    0 ROOT
