@<TRIPOS>MOLECULE
N22
   43    44     1     0     0
SMALL
bcc


@<TRIPOS>ATOM
      1 C8         -4.6160    2.1960    2.1000 c3        1 N22     -0.083100
      2 C7         -3.4660    1.6850    1.2740 c3        1 N22     -0.137700
      3 C5         -3.5280    0.2270    0.9110 ca        1 N22      0.539600
      4 N4         -4.6570   -0.4710    1.1250 nb        1 N22     -0.790000
      5 C3         -4.6440   -1.8120    0.7470 ca        1 N22      0.915900
      6 N8         -5.8410   -2.5210    0.8720 nh        1 N22     -0.932500
      7 N2         -3.5640   -2.4900    0.2160 nb        1 N22     -0.835000
      8 C1         -2.4310   -1.7510   -0.0110 ca        1 N22      0.752200
      9 N7         -1.3520   -2.3660   -0.6020 nh        1 N22     -0.962500
     10 C6         -2.3650   -0.3520    0.3380 ca        1 N22     -0.347600
     11 C9         -1.2010    0.3880    0.1200 cg        1 N22     -0.089000
     12 C10        -0.1910    1.0070   -0.0730 c1        1 N22     -0.153100
     13 C11         0.9910    1.7780   -0.3100 c3        1 N22      0.056000
     14 C13         2.2380    0.9700   -0.4490 ca        1 N22     -0.062300
     15 C18         2.2980   -0.3700   -0.0900 ca        1 N22     -0.123000
     16 C17         3.5010   -1.0870   -0.2370 ca        1 N22      0.094100
     17 O2          3.4260   -2.4180    0.1400 os        1 N22     -0.330900
     18 C4          4.6400   -3.1550    0.0700 c3        1 N22      0.114700
     19 C16         4.6480   -0.4670   -0.7350 ca        1 N22     -0.172000
     20 C15         4.5970    0.8820   -1.0910 ca        1 N22     -0.165000
     21 C14         3.4060    1.5950   -0.9510 ca        1 N22      0.088100
     22 O10         3.2600    2.9350   -1.2710 os        1 N22     -0.329900
     23 C2          4.3950    3.5690   -1.8460 c3        1 N22      0.114700
     24 H8         -4.4490    3.2720    2.3480 hc        1 N22      0.039367
     25 H8A        -5.5810    2.1060    1.5450 hc        1 N22      0.039367
     26 H8B        -4.7070    1.6230    3.0550 hc        1 N22      0.039367
     27 H7         -3.4060    2.2630    0.3100 hc        1 N22      0.063700
     28 H7A        -2.5010    1.8560    1.8260 hc        1 N22      0.063700
     29 HN8        -6.5340   -2.1310    1.4660 hn        1 N22      0.429300
     30 HN8A       -5.7880   -3.5110    0.8330 hn        1 N22      0.429300
     31 HN7        -1.3510   -3.3450   -0.7500 hn        1 N22      0.441800
     32 HN7A       -0.4940   -1.8730   -0.6390 hn        1 N22      0.441800
     33 H11         0.8550    2.3920   -1.2490 hc        1 N22      0.078200
     34 H11A        1.1380    2.5120    0.5360 hc        1 N22      0.078200
     35 H18         1.4120   -0.8830    0.3150 ha        1 N22      0.153000
     36 H4          4.3520   -4.1680    0.4470 h1        1 N22      0.043700
     37 H4A         5.0040   -3.2160   -0.9850 h1        1 N22      0.043700
     38 H4B         5.4200   -2.6970    0.7260 h1        1 N22      0.043700
     39 H16         5.5900   -1.0190   -0.8510 ha        1 N22      0.139000
     40 H15         5.5040    1.3660   -1.4810 ha        1 N22      0.139000
     41 H2          5.2470    3.5830   -1.1240 h1        1 N22      0.044033
     42 H2A         4.6940    3.0620   -2.7960 h1        1 N22      0.044033
     43 H2B         4.0350    4.6100   -2.0510 h1        1 N22      0.044033
@<TRIPOS>BOND
     1    1    2 1   
     2    1   24 1   
     3    1   25 1   
     4    1   26 1   
     5    2    3 1   
     6    2   27 1   
     7    2   28 1   
     8    3    4 ar  
     9    3   10 ar  
    10    4    5 ar  
    11    5    6 1   
    12    5    7 ar  
    13    6   29 1   
    14    6   30 1   
    15    7    8 ar  
    16    8    9 1   
    17    8   10 ar  
    18    9   31 1   
    19    9   32 1   
    20   10   11 1   
    21   11   12 3   
    22   12   13 1   
    23   13   14 1   
    24   13   33 1   
    25   13   34 1   
    26   14   15 ar  
    27   14   21 ar  
    28   15   16 ar  
    29   15   35 1   
    30   16   17 1   
    31   16   19 ar  
    32   17   18 1   
    33   18   36 1   
    34   18   37 1   
    35   18   38 1   
    36   19   20 ar  
    37   19   39 1   
    38   20   21 ar  
    39   20   40 1   
    40   21   22 1   
    41   22   23 1   
    42   23   41 1   
    43   23   42 1   
    44   23   43 1   
@<TRIPOS>SUBSTRUCTURE
     1 N22         1 TEMP              0 ****  ****    0 ROOT
