@<TRIPOS>MOLECULE
N22
   43    39     1     0     0
SMALL
bcc


@<TRIPOS>ATOM
      1 C8          1.3270   -2.0380    3.3760 c3        1 N22     -0.201000
      2 C7          0.8350   -1.7010    2.0010 c3        1 N22     -0.122000
      3 C5          1.1630   -2.8820    1.0280 c2        1 N22      0.118000
      4 N4          1.3620   -4.1210    1.5180 n1        1 N22     -0.263000
      5 C3          1.6920   -5.1520    0.6740 c1        1 N22      0.196000
      6 N8          1.7680   -6.4580    1.1690 n3        1 N22     -0.328000
      7 N2          1.8200   -4.9240   -0.6720 n1        1 N22     -0.307000
      8 C1          1.6240   -3.6960   -1.1680 c1        1 N22      0.229000
      9 N7          1.6160   -3.4990   -2.5700 n3        1 N22     -0.358000
     10 C6          1.2910   -2.6520   -0.3180 c2        1 N22     -0.212000
     11 C9          1.0140   -1.2540   -0.8880 c1        1 N22     -0.096000
     12 C10         0.7890   -0.1310   -1.3490 c1        1 N22     -0.179000
     13 C11         0.5050    1.2670   -1.9270 c2        1 N22     -0.003000
     14 C13        -0.3880    2.0620   -0.9400 c2        1 N22     -0.061000
     15 C18        -1.6360    1.5390   -0.5440 c2        1 N22     -0.119000
     16 C17        -2.4770    2.2910    0.2740 c1        1 N22      0.050000
     17 O2         -3.7420    1.8140    0.5960 o         1 N22     -0.208000
     18 C4         -4.7820    2.3680   -0.1870 c3        1 N22     -0.076000
     19 C16        -2.0800    3.5680    0.7020 c2        1 N22     -0.174000
     20 C15        -0.8370    4.0860    0.3060 c1        1 N22     -0.167000
     21 C14         0.0050    3.3320   -0.5130 c1        1 N22      0.041000
     22 O10         1.2300    3.8810   -0.9700 os        1 N22     -0.215000
     23 C2          1.1290    5.1980   -1.4080 c3        1 N22     -0.075000
     24 H8          2.0310   -2.7290    3.3130 hc        1 N22      0.079000
     25 H8A         0.5690   -2.3830    3.9250 hc        1 N22      0.079000
     26 H8B         1.6870   -1.2520    3.7900 hc        1 N22      0.079000
     27 H7          1.2720   -0.8950    1.6930 hc        1 N22      0.103500
     28 H7A        -0.1580   -1.5550    2.0260 hc        1 N22      0.103500
     29 HN8         1.6690   -6.6120    2.0620 hn        1 N22      0.224000
     30 HN8A        1.9630   -7.1640    0.5940 hn        1 N22      0.224000
     31 HN7         1.7510   -2.6690   -2.9130 hn        1 N22      0.235000
     32 HN7A        1.5340   -4.2250   -3.1370 hn        1 N22      0.235000
     33 H11         0.0290    1.1760   -2.8120 ha        1 N22      0.117000
     34 H11A        1.3830    1.7600   -2.0640 ha        1 N22      0.117000
     35 H18        -1.9550    0.6430   -0.9200 ha        1 N22      0.164000
     36 H4         -4.4080    2.8490   -0.9210 h1        1 N22      0.082333
     37 H4A        -5.3030    2.9610    0.3480 h1        1 N22      0.082333
     38 H4B        -5.3760    1.6180   -0.5390 h1        1 N22      0.082333
     39 H16        -2.6830    4.1090    1.2900 ha        1 N22      0.138000
     40 H15        -0.5680    4.9540    0.5960 ha        1 N22      0.138000
     41 H2          1.5870    5.7880   -0.7740 h1        1 N22      0.083000
     42 H2A         0.2070    5.4450   -1.4660 h1        1 N22      0.083000
     43 H2B         1.5400    5.2810   -2.2790 h1        1 N22      0.083000
@<TRIPOS>BOND
     1    1    2 1   
     2    1   24 1   
     3    1   25 1   
     4    1   26 1   
     5    2    3 1   
     6    2   27 1   
     7    2   28 1   
     8    3    4 1   
     9    3   10 1   
    10    5    6 1   
    11    5    7 1   
    12    6   29 1   
    13    6   30 1   
    14    8    9 1   
    15    8   10 1   
    16    9   31 1   
    17    9   32 1   
    18   10   11 1   
    19   11   12 1   
    20   13   14 1   
    21   13   33 1   
    22   13   34 1   
    23   14   15 1   
    24   14   21 1   
    25   15   16 1   
    26   15   35 1   
    27   16   19 1   
    28   17   18 1   
    29   18   36 1   
    30   18   37 1   
    31   18   38 1   
    32   19   20 1   
    33   19   39 1   
    34   20   40 1   
    35   21   22 1   
    36   22   23 1   
    37   23   41 1   
    38   23   42 1   
    39   23   43 1   
@<TRIPOS>SUBSTRUCTURE
     1 N22         1 TEMP              0 ****  ****    0 ROOT
