@<TRIPOS>MOLECULE
N23
   36    38     1     0     0
SMALL
bcc


@<TRIPOS>ATOM
      1 CAO         1.5100    2.5040   -0.9810 c3        1 N23     -0.060900
      2 CAB         2.3950    1.4350   -0.4770 cc        1 N23     -0.037300
      3 NAA         3.7920    1.4900   -0.6080 na        1 N23     -0.192400
      4 CAE         4.3400    0.3440   -0.0310 ca        1 N23     -0.043200
      5 CAR         5.6750   -0.0700    0.0970 ca        1 N23     -0.145000
      6 CAT         5.9170   -1.2790    0.7310 ca        1 N23     -0.116000
      7 CAS         4.8680   -2.0700    1.2330 ca        1 N23     -0.158000
      8 CAQ         3.5450   -1.6740    1.1130 ca        1 N23     -0.088000
      9 CAD         3.2550   -0.4640    0.4800 ca        1 N23     -0.083800
     10 CAC         2.0330    0.2520    0.1820 cd        1 N23     -0.148400
     11 CAN         0.6710   -0.1730    0.5290 c3        1 N23     -0.031200
     12 CAP        -0.0930   -0.6350   -0.7210 c3        1 N23      0.082000
     13 NAM        -1.5150   -0.7660   -0.5510 n         1 N23     -0.556900
     14 CAG        -2.3420    0.3500   -0.6240 c         1 N23      0.698700
     15 OAK        -1.8980    1.4590   -0.9870 o         1 N23     -0.604100
     16 CAF        -3.7650    0.1550   -0.3070 cc        1 N23     -0.197700
     17 CAI        -4.6470    1.2100   -0.1320 cd        1 N23     -0.083000
     18 CAL        -5.9660    0.7490    0.1600 cd        1 N23     -0.169000
     19 CAJ        -6.0250   -0.6290    0.1870 cc        1 N23     -0.152100
     20 SAH        -4.5470   -1.3240   -0.1300 ss        1 N23      0.045200
     21 HAO         1.6650    2.6680   -2.0770 hc        1 N23      0.062367
     22 HAOA        0.4380    2.2180   -0.8150 hc        1 N23      0.062367
     23 HAOB        1.7100    3.4670   -0.4470 hc        1 N23      0.062367
     24 HNAA        4.2970    2.2200   -1.0320 hn        1 N23      0.297700
     25 HAR         6.4980    0.5430   -0.2910 ha        1 N23      0.131000
     26 HAT         6.9530   -1.6300    0.8470 ha        1 N23      0.128000
     27 HAS         5.1110   -3.0210    1.7300 ha        1 N23      0.127000
     28 HAQ         2.7300   -2.2970    1.5100 ha        1 N23      0.129000
     29 HAN         0.7120   -1.0070    1.2780 hc        1 N23      0.050700
     30 HANA        0.1240    0.6860    1.0070 hc        1 N23      0.050700
     31 HAP         0.0930    0.1080   -1.5510 h1        1 N23      0.066200
     32 HAPA        0.3060   -1.6370   -1.0460 h1        1 N23      0.066200
     33 HNAM       -1.8290   -1.5400   -0.0140 hn        1 N23      0.297500
     34 HAI        -4.3660    2.2640   -0.2130 ha        1 N23      0.175000
     35 HAL        -6.8090    1.4200    0.3350 ha        1 N23      0.160000
     36 HAJ        -6.9220   -1.2170    0.3850 h4        1 N23      0.175000
@<TRIPOS>BOND
     1    1    2 1   
     2    1   21 1   
     3    1   22 1   
     4    1   23 1   
     5    2    3 1   
     6    2   10 2   
     7    3    4 1   
     8    3   24 1   
     9    4    5 ar  
    10    4    9 ar  
    11    5    6 ar  
    12    5   25 1   
    13    6    7 ar  
    14    6   26 1   
    15    7    8 ar  
    16    7   27 1   
    17    8    9 ar  
    18    8   28 1   
    19    9   10 1   
    20   10   11 1   
    21   11   12 1   
    22   11   29 1   
    23   11   30 1   
    24   12   13 1   
    25   12   31 1   
    26   12   32 1   
    27   13   14 1   
    28   13   33 1   
    29   14   15 2   
    30   14   16 1   
    31   16   17 2   
    32   16   20 1   
    33   17   18 1   
    34   17   34 1   
    35   18   19 2   
    36   18   35 1   
    37   19   20 1   
    38   19   36 1   
@<TRIPOS>SUBSTRUCTURE
     1 N23         1 TEMP              0 ****  ****    0 ROOT
