@<TRIPOS>MOLECULE
N23
   36    29     1     0     0
SMALL
bcc


@<TRIPOS>ATOM
      1 CAO        -3.0340   -0.8060    1.9700 c3        1 N23     -0.183000
      2 CAB        -1.6000   -0.3340    2.0890 c2        1 N23     -0.006000
      3 NAA        -1.5710   -0.2310    3.4510 n2        1 N23     -0.215000
      4 CAE        -0.4020    0.4200    3.8070 c1        1 N23      0.002000
      5 CAR         0.1260    0.7890    5.0560 c1        1 N23     -0.126750
      6 CAT         1.3430    1.4520    5.1260 c1        1 N23     -0.126750
      7 CAS         2.0390    1.7500    3.9620 c1        1 N23     -0.126750
      8 CAQ         1.5180    1.3860    2.7290 c1        1 N23     -0.126750
      9 CAD         0.2850    0.7150    2.6570 c1        1 N23     -0.072000
     10 CAC        -0.4530    0.2500    1.5910 c1        1 N23     -0.156000
     11 CAN         0.3750   -0.0600    0.3630 c2        1 N23     -0.114000
     12 CAP        -0.3830    0.3620   -0.8760 c3        1 N23     -0.034000
     13 NAM         0.1930   -0.2600   -2.0190 n         1 N23     -0.366000
     14 CAG        -0.2970    0.0460   -3.3150 c2        1 N23      0.372000
     15 OAK        -1.2860    0.7410   -3.4420 o         1 N23     -0.365000
     16 CAF         0.4310   -0.4640   -4.5390 c2        1 N23     -0.447000
     17 CAI        -0.0070   -1.5420   -5.4040 c1        1 N23     -0.083000
     18 CAL         1.0120   -1.6530   -6.6220 c1        1 N23     -0.169000
     19 CAJ         2.0350   -0.6380   -6.4540 c1        1 N23     -0.422000
     20 SAH         1.7200    0.1460   -5.1520 ss        1 N23      0.585000
     21 HAO        -3.1030   -1.7260    2.3030 hc        1 N23      0.101667
     22 HAOA       -3.6150   -0.2220    2.5010 hc        1 N23      0.101667
     23 HAOB       -3.3110   -0.7770    1.0300 hc        1 N23      0.101667
     24 HNAA       -2.2100   -0.5350    4.0260 DU        1 N23      0.189500
     25 HAR        -0.3630    0.5790    5.8740 ha        1 N23      0.128750
     26 HAT         1.7100    1.7080    5.9930 ha        1 N23      0.128750
     27 HAS         2.8950    2.2170    4.0110 ha        1 N23      0.128750
     28 HAQ         2.0070    1.5960    1.9110 ha        1 N23      0.128750
     29 HAN         0.5530   -1.0210    0.3240 ha        1 N23      0.090000
     30 HANA        1.2220    0.4270    0.4090 ha        1 N23      0.090000
     31 HAP        -0.3330    1.3350   -0.9730 h1        1 N23      0.105500
     32 HAPA       -1.3200    0.0900   -0.7940 h1        1 N23      0.105500
     33 HNAM        0.8690   -0.8630   -1.9170 hn        1 N23      0.211000
     34 HAI        -0.7930   -2.1040   -5.2640 DU        1 N23      0.189500
     35 HAL         0.9590   -2.2940   -7.3560 DU        1 N23      0.189500
     36 HAJ         2.7880   -0.4770   -7.0530 DU        1 N23      0.189500
@<TRIPOS>BOND
     1    1    2 1   
     2    1   21 1   
     3    1   22 1   
     4    1   23 1   
     5    2    3 1   
     6    2   10 1   
     7    3    4 1   
     8    4    9 1   
     9    5    6 1   
    10    5   25 1   
    11    6   26 1   
    12    7    8 1   
    13    7   27 1   
    14    8   28 1   
    15   11   12 1   
    16   11   29 1   
    17   11   30 1   
    18   12   13 1   
    19   12   31 1   
    20   12   32 1   
    21   13   14 1   
    22   13   33 1   
    23   14   15 1   
    24   14   16 1   
    25   16   17 1   
    26   16   20 1   
    27   17   18 1   
    28   18   19 1   
    29   19   20 1   
@<TRIPOS>SUBSTRUCTURE
     1 N23         1 TEMP              0 ****  ****    0 ROOT
