@<TRIPOS>MOLECULE
N23
   37    39     1     0     0
SMALL
bcc


@<TRIPOS>ATOM
      1 CAO         0.3040    0.5660    0.8930 c3        1 N23     -0.059900
      2 CAB         1.6030    0.3820    0.2160 cc        1 N23      0.001700
      3 NAA         2.8200    0.5390    0.8820 na        1 N23     -0.171400
      4 CAE         3.8620    0.2680   -0.0100 ca        1 N23     -0.042200
      5 CAR         5.2540    0.2780    0.1770 ca        1 N23     -0.121000
      6 CAT         6.0500   -0.0450   -0.9100 ca        1 N23     -0.107000
      7 CAS         5.4940   -0.3740   -2.1600 ca        1 N23     -0.132000
      8 CAQ         4.1220   -0.3850   -2.3580 ca        1 N23     -0.115000
      9 CAD         3.2820   -0.0600   -1.2910 ca        1 N23     -0.084800
     10 CAC         1.8470    0.0250   -1.1220 cd        1 N23     -0.217400
     11 CAN         0.8600   -0.2560   -2.1660 c3        1 N23     -0.002200
     12 CAP         0.7110    0.9860   -3.0530 c3        1 N23      0.097800
     13 NAM        -0.1570    0.7450   -4.2450 n4        1 N23     -0.681800
     14 CAG        -0.3750    2.0180   -5.0520 c         1 N23      0.616700
     15 OAK        -1.4880    2.5110   -4.9070 o         1 N23     -0.436100
     16 CAF         0.7120    2.4540   -5.8740 cc        1 N23     -0.303700
     17 CAI         0.5540    3.5350   -6.7590 cd        1 N23     -0.007000
     18 CAL         1.7480    3.8030   -7.4710 cd        1 N23     -0.165000
     19 CAJ         2.7640    2.9310   -7.1060 cc        1 N23     -0.085100
     20 SAH         2.2820    1.8470   -5.9550 ss        1 N23      0.109200
     21 HAO         0.2850    1.5150    1.4880 hc        1 N23      0.063033
     22 HAOA       -0.5190    0.6060    0.1390 hc        1 N23      0.063033
     23 HAOB        0.1050   -0.2890    1.5900 hc        1 N23      0.063033
     24 HNAA        2.9240    0.7470    1.8420 hn        1 N23      0.313700
     25 HAR         5.6940    0.5270    1.1530 ha        1 N23      0.149000
     26 HAT         7.1460   -0.0500   -0.7950 ha        1 N23      0.147000
     27 HAS         6.1690   -0.6350   -2.9890 ha        1 N23      0.139000
     28 HAQ         3.6970   -0.6590   -3.3330 ha        1 N23      0.113000
     29 HAN        -0.1330   -0.5250   -1.7160 hc        1 N23      0.064200
     30 HANA        1.2100   -1.1290   -2.7830 hc        1 N23      0.064200
     31 HAP         0.2540    1.8280   -2.4590 hx        1 N23      0.110200
     32 HAPA        1.7270    1.3120   -3.4230 hx        1 N23      0.110200
     33 HNAM        0.2660    0.0260   -4.8380 hn        1 N23      0.454800
     34 HAI        -0.3790    4.0990   -6.8810 ha        1 N23      0.193000
     35 HAL         1.8450    4.6020   -8.2130 ha        1 N23      0.195000
     36 HAJ         3.7770    2.9490   -7.5210 h4        1 N23      0.209000
     37 HAM2       -1.0730    0.4020   -3.9250 hn        1 N23      0.454800
@<TRIPOS>BOND
     1    1    2 1   
     2    1   21 1   
     3    1   22 1   
     4    1   23 1   
     5    2    3 1   
     6    2   10 2   
     7    3    4 1   
     8    3   24 1   
     9    4    5 ar  
    10    4    9 ar  
    11    5    6 ar  
    12    5   25 1   
    13    6    7 ar  
    14    6   26 1   
    15    7    8 ar  
    16    7   27 1   
    17    8    9 ar  
    18    8   28 1   
    19    9   10 1   
    20   10   11 1   
    21   11   12 1   
    22   11   29 1   
    23   11   30 1   
    24   12   13 1   
    25   12   31 1   
    26   12   32 1   
    27   13   14 1   
    28   13   33 1   
    29   13   37 1   
    30   14   15 2   
    31   14   16 1   
    32   16   17 2   
    33   16   20 1   
    34   17   18 1   
    35   17   34 1   
    36   18   19 2   
    37   18   35 1   
    38   19   20 1   
    39   19   36 1   
@<TRIPOS>SUBSTRUCTURE
     1 N23         1 TEMP              0 ****  ****    0 ROOT
