@<TRIPOS>MOLECULE
N23
   37    39     1     0     0
SMALL
bcc


@<TRIPOS>ATOM
      1 CAO         0.2430    0.4850    0.8470 c3        1 N23     -0.059900
      2 CAB         1.5670    0.3660    0.2040 cc        1 N23      0.001700
      3 NAA         2.7570    0.5890    0.8990 na        1 N23     -0.170400
      4 CAE         3.8340    0.3680    0.0350 ca        1 N23     -0.042200
      5 CAR         5.2180    0.4510    0.2570 ca        1 N23     -0.121000
      6 CAT         6.0570    0.1660   -0.8090 ca        1 N23     -0.107000
      7 CAS         5.5500   -0.1960   -2.0710 ca        1 N23     -0.132000
      8 CAQ         4.1860   -0.2780   -2.3030 ca        1 N23     -0.115000
      9 CAD         3.3040    0.0060   -1.2580 ca        1 N23     -0.083800
     10 CAC         1.8630    0.0180   -1.1260 cd        1 N23     -0.217400
     11 CAN         0.9170   -0.3170   -2.1930 c3        1 N23     -0.002200
     12 CAP         0.7220    0.9140   -3.0850 c3        1 N23      0.097800
     13 NAM        -0.1020    0.6250   -4.2970 n4        1 N23     -0.681800
     14 CAG        -0.3710    1.8840   -5.1110 c         1 N23      0.616700
     15 OAK        -1.5120    2.3140   -4.9950 o         1 N23     -0.436100
     16 CAF         0.7100    2.3800   -5.9070 cc        1 N23     -0.303700
     17 CAI         0.5140    3.4500   -6.7980 cd        1 N23     -0.007000
     18 CAL         1.7090    3.7830   -7.4800 cd        1 N23     -0.165000
     19 CAJ         2.7620    2.9700   -7.0880 cc        1 N23     -0.085100
     20 SAH         2.3130    1.8610   -5.9480 ss        1 N23      0.109200
     21 HAO         0.1630    1.4290    1.4430 hc        1 N23      0.063033
     22 HAOA       -0.5600    0.4870    0.0710 hc        1 N23      0.063033
     23 HAOB        0.0680   -0.3810    1.5360 hc        1 N23      0.063033
     24 HNAA        2.8260    0.8040    1.8600 hn        1 N23      0.313700
     25 HAR         5.6200    0.7260    1.2410 ha        1 N23      0.149000
     26 HAT         7.1490    0.2180   -0.6670 ha        1 N23      0.147000
     27 HAS         6.2590   -0.4240   -2.8820 ha        1 N23      0.139000
     28 HAQ         3.8000   -0.5780   -3.2870 ha        1 N23      0.113000
     29 HAN         1.3290   -1.1710   -2.7990 hc        1 N23      0.064200
     30 HANA       -0.0700   -0.6400   -1.7660 hc        1 N23      0.064200
     31 HAP         0.2040    1.7300   -2.5040 hx        1 N23      0.110200
     32 HAPA        1.7270    1.2960   -3.4310 hx        1 N23      0.110200
     33 HNAM        0.3740   -0.0690   -4.8790 hn        1 N23      0.454800
     34 HAI        -0.4460    3.9600   -6.9440 ha        1 N23      0.193000
     35 HAL         1.7790    4.5870   -8.2220 ha        1 N23      0.195000
     36 HAJ         3.7830    3.0440   -7.4780 h4        1 N23      0.209000
     37 HAM2       -1.0050    0.2320   -3.9990 hn        1 N23      0.454800
@<TRIPOS>BOND
     1    1    2 1   
     2    1   21 1   
     3    1   22 1   
     4    1   23 1   
     5    2    3 1   
     6    2   10 2   
     7    3    4 1   
     8    3   24 1   
     9    4    5 ar  
    10    4    9 ar  
    11    5    6 ar  
    12    5   25 1   
    13    6    7 ar  
    14    6   26 1   
    15    7    8 ar  
    16    7   27 1   
    17    8    9 ar  
    18    8   28 1   
    19    9   10 1   
    20   10   11 1   
    21   11   12 1   
    22   11   29 1   
    23   11   30 1   
    24   12   13 1   
    25   12   31 1   
    26   12   32 1   
    27   13   14 1   
    28   13   33 1   
    29   13   37 1   
    30   14   15 2   
    31   14   16 1   
    32   16   17 2   
    33   16   20 1   
    34   17   18 1   
    35   17   34 1   
    36   18   19 2   
    37   18   35 1   
    38   19   20 1   
    39   19   36 1   
@<TRIPOS>SUBSTRUCTURE
     1 N23         1 TEMP              0 ****  ****    0 ROOT
