@<TRIPOS>MOLECULE
N23
   37    39     1     0     0
SMALL
bcc


@<TRIPOS>ATOM
      1 CAO         0.2380    0.4930    0.8530 c3        1 N23     -0.059900
      2 CAB         1.5600    0.3670    0.2070 cc        1 N23      0.001700
      3 NAA         2.7520    0.5790    0.9020 na        1 N23     -0.170400
      4 CAE         3.8260    0.3530    0.0350 ca        1 N23     -0.042200
      5 CAR         5.2120    0.4240    0.2550 ca        1 N23     -0.121000
      6 CAT         6.0470    0.1370   -0.8120 ca        1 N23     -0.107000
      7 CAS         5.5360   -0.2180   -2.0750 ca        1 N23     -0.132000
      8 CAQ         4.1710   -0.2890   -2.3050 ca        1 N23     -0.115000
      9 CAD         3.2920   -0.0020   -1.2580 ca        1 N23     -0.083800
     10 CAC         1.8520    0.0200   -1.1240 cd        1 N23     -0.217400
     11 CAN         0.9020   -0.3050   -2.1910 c3        1 N23     -0.002200
     12 CAP         0.7210    0.9280   -3.0840 c3        1 N23      0.097800
     13 NAM        -0.1070    0.6480   -4.2950 ny        1 N23     -0.681800
     14 CAG        -0.3610    1.9090   -5.1110 c         1 N23      0.616700
     15 OAK        -1.4960    2.3540   -4.9930 o         1 N23     -0.436100
     16 CAF         0.7260    2.3900   -5.9090 cc        1 N23     -0.303700
     17 CAI         0.5420    3.4620   -6.8000 cd        1 N23     -0.007000
     18 CAL         1.7410    3.7790   -7.4840 cd        1 N23     -0.165000
     19 CAJ         2.7840    2.9520   -7.0930 cc        1 N23     -0.085100
     20 SAH         2.3220    1.8510   -5.9520 ss        1 N23      0.109200
     21 HAO         0.1660    1.4360    1.4530 hc        1 N23      0.063033
     22 HAOA       -0.5670    0.5070    0.0770 hc        1 N23      0.063033
     23 HAOB        0.0570   -0.3740    1.5380 hc        1 N23      0.063033
     24 HNAA        2.8250    0.7910    1.8630 hn        1 N23      0.313700
     25 HAR         5.6170    0.6940    1.2400 ha        1 N23      0.149000
     26 HAT         7.1390    0.1800   -0.6710 ha        1 N23      0.147000
     27 HAS         6.2420   -0.4490   -2.8870 ha        1 N23      0.139000
     28 HAQ         3.7820   -0.5830   -3.2890 ha        1 N23      0.113000
     29 HAN         1.3050   -1.1630   -2.7970 hc        1 N23      0.064200
     30 HANA       -0.0880   -0.6160   -1.7630 hc        1 N23      0.064200
     31 HAP         0.2140    1.7500   -2.5030 hx        1 N23      0.110200
     32 HAPA        1.7310    1.2960   -3.4310 hx        1 N23      0.110200
     33 HNAM        0.3610   -0.0530   -4.8770 hn        1 N23      0.454800
     34 HAI        -0.4110    3.9850   -6.9450 ha        1 N23      0.193000
     35 HAL         1.8200    4.5810   -8.2260 ha        1 N23      0.195000
     36 HAJ         3.8050    3.0130   -7.4840 h4        1 N23      0.209000
     37 HAM2       -1.0150    0.2660   -3.9960 hn        1 N23      0.454800
@<TRIPOS>BOND
     1    1    2 1   
     2    1   21 1   
     3    1   22 1   
     4    1   23 1   
     5    2    3 1   
     6    2   10 2   
     7    3    4 1   
     8    3   24 1   
     9    4    5 ar  
    10    4    9 ar  
    11    5    6 ar  
    12    5   25 1   
    13    6    7 ar  
    14    6   26 1   
    15    7    8 ar  
    16    7   27 1   
    17    8    9 ar  
    18    8   28 1   
    19    9   10 1   
    20   10   11 1   
    21   11   12 1   
    22   11   29 1   
    23   11   30 1   
    24   12   13 1   
    25   12   31 1   
    26   12   32 1   
    27   13   14 1   
    28   13   33 1   
    29   13   37 1   
    30   14   15 2   
    31   14   16 1   
    32   16   17 2   
    33   16   20 1   
    34   17   18 1   
    35   17   34 1   
    36   18   19 2   
    37   18   35 1   
    38   19   20 1   
    39   19   36 1   
@<TRIPOS>SUBSTRUCTURE
     1 N23         1 TEMP              0 ****  ****    0 ROOT
