@<TRIPOS>MOLECULE
N24
   32    34     1     0     0
SMALL
bcc


@<TRIPOS>ATOM
      1 CAJ        -0.1550    0.1050   -0.1310 ca        1 N24     -0.086000
      2 CAN         1.2120    0.3560   -0.2730 ca        1 N24     -0.028900
      3 BRAR        1.9600    0.4920   -1.9850 br        1 N24     -0.085100
      4 CAU         2.0200    0.5020    0.8580 ca        1 N24     -0.093000
      5 CAT         1.4550    0.3980    2.1280 ca        1 N24     -0.131000
      6 CAS         0.0920    0.1520    2.2760 ca        1 N24     -0.084000
      7 CAF        -0.7210    0.0060    1.1470 ca        1 N24     -0.098300
      8 CAB        -2.1950   -0.2360    1.2520 c3        1 N24      0.257100
      9 SAD        -3.0130    1.3610    1.6320 ss        1 N24     -0.288200
     10 CAH        -3.8460    0.7650    3.0700 c3        1 N24     -0.096300
     11 CAE        -3.4680   -0.6870    3.2660 c         1 N24      0.709500
     12 OAK        -3.8650   -1.3710    4.2190 o         1 N24     -0.592500
     13 NAA        -2.6180   -1.1790    2.2650 n         1 N24     -0.388000
     14 CAC        -2.2380   -2.5380    2.1910 ca        1 N24      0.046600
     15 CAG        -1.7220   -3.1840    3.3340 ca        1 N24     -0.087000
     16 CAM        -1.3400   -4.5250    3.2810 ca        1 N24     -0.004600
     17 CAO        -1.4560   -5.2610    2.0990 ca        1 N24     -0.089000
     18 CAL        -1.9710   -4.6470    0.9640 ca        1 N24     -0.195000
     19 CAI        -2.3740   -3.3050    1.0010 ca        1 N24      0.116100
     20 OAQ        -2.9030   -2.6920   -0.1130 oh        1 N24     -0.501100
     21 CL         -0.7210   -5.2700    4.6780 cl        1 N24     -0.084400
     22 HAJ        -0.7930   -0.0160   -1.0210 ha        1 N24      0.150000
     23 HAU         3.0990    0.6990    0.7530 ha        1 N24      0.149000
     24 HAT         2.0910    0.5120    3.0190 ha        1 N24      0.142000
     25 HAS        -0.3410    0.0790    3.2860 ha        1 N24      0.142000
     26 HAB        -2.5950   -0.5660    0.2470 h2        1 N24      0.111700
     27 HAH        -4.9540    0.8430    2.9470 h1        1 N24      0.110200
     28 HAHA       -3.5500    1.3520    3.9730 h1        1 N24      0.110200
     29 HAG        -1.6470   -2.6280    4.2850 ha        1 N24      0.168000
     30 HAO        -1.1480   -6.3170    2.0640 ha        1 N24      0.153000
     31 HAL        -2.0740   -5.2190    0.0290 ha        1 N24      0.142000
     32 HOAQ       -2.9150   -3.3390   -0.8340 ho        1 N24      0.426000
@<TRIPOS>BOND
     1    1    2 ar  
     2    1    7 ar  
     3    1   22 1   
     4    2    3 1   
     5    2    4 ar  
     6    4    5 ar  
     7    4   23 1   
     8    5    6 ar  
     9    5   24 1   
    10    6    7 ar  
    11    6   25 1   
    12    7    8 1   
    13    8    9 1   
    14    8   13 1   
    15    8   26 1   
    16    9   10 1   
    17   10   11 1   
    18   10   27 1   
    19   10   28 1   
    20   11   12 2   
    21   11   13 1   
    22   13   14 1   
    23   14   15 ar  
    24   14   19 ar  
    25   15   16 ar  
    26   15   29 1   
    27   16   17 ar  
    28   16   21 1   
    29   17   18 ar  
    30   17   30 1   
    31   18   19 ar  
    32   18   31 1   
    33   19   20 1   
    34   20   32 1   
@<TRIPOS>SUBSTRUCTURE
     1 N24         1 TEMP              0 ****  ****    0 ROOT
