@<TRIPOS>MOLECULE
N24
   32    34     1     0     0
SMALL
bcc


@<TRIPOS>ATOM
      1 CAJ        -0.1230    0.0930   -0.1240 ca        1 N24     -0.086000
      2 CAN         1.2460    0.3470   -0.2450 ca        1 N24     -0.028900
      3 BrAR        2.0230    0.4740   -1.9440 br        1 N24     -0.085100
      4 CAU         2.0340    0.5040    0.8990 ca        1 N24     -0.093000
      5 CAT         1.4470    0.4060    2.1600 ca        1 N24     -0.131000
      6 CAS         0.0820    0.1580    2.2870 ca        1 N24     -0.084000
      7 CAF        -0.7110    0.0020    1.1440 ca        1 N24     -0.098300
      8 CAB        -2.1860   -0.2440    1.2250 c3        1 N24      0.257100
      9 SAD        -3.0140    1.3530    1.5810 ss        1 N24     -0.288200
     10 CAH        -3.8700    0.7630    3.0090 c3        1 N24     -0.096300
     11 CAE        -3.4920   -0.6860    3.2190 c         1 N24      0.709500
     12 OAK        -3.9040   -1.3660    4.1700 o         1 N24     -0.592500
     13 NAA        -2.6230   -1.1820    2.2370 n         1 N24     -0.388000
     14 CAC        -2.2390   -2.5410    2.1770 ca        1 N24      0.046600
     15 CAG        -1.7410   -3.1780    3.3330 ca        1 N24     -0.087000
     16 CAM        -1.3550   -4.5180    3.2940 ca        1 N24     -0.004600
     17 CAO        -1.4480   -5.2610    2.1150 ca        1 N24     -0.089000
     18 CAL        -1.9440   -4.6560    0.9670 ca        1 N24     -0.195000
     19 CAI        -2.3510   -3.3150    0.9890 ca        1 N24      0.116100
     20 OAQ        -2.8630   -2.7090   -0.1370 oh        1 N24     -0.501100
     21 Cl         -0.7580   -5.2530    4.7060 cl        1 N24     -0.084400
     22 HAJ        -0.7450   -0.0350   -1.0250 ha        1 N24      0.150000
     23 HAU         3.1130    0.7020    0.8120 ha        1 N24      0.149000
     24 HAT         2.0670    0.5270    3.0610 ha        1 N24      0.142000
     25 HAS        -0.3680    0.0900    3.2890 ha        1 N24      0.142000
     26 HAB        -2.5670   -0.5810    0.2160 h2        1 N24      0.111700
     27 HAH        -3.5910    1.3570    3.9130 h1        1 N24      0.110200
     28 HAHA       -4.9760    0.8370    2.8660 h1        1 N24      0.110200
     29 HAG        -1.6840   -2.6160    4.2810 ha        1 N24      0.168000
     30 HAO        -1.1360   -6.3160    2.0920 ha        1 N24      0.153000
     31 HAL        -2.0300   -5.2340    0.0350 ha        1 N24      0.142000
     32 HOAQ       -2.8600   -3.3610   -0.8550 ho        1 N24      0.426000
@<TRIPOS>BOND
     1    1    2 ar  
     2    1    7 ar  
     3    1   22 1   
     4    2    3 1   
     5    2    4 ar  
     6    4    5 ar  
     7    4   23 1   
     8    5    6 ar  
     9    5   24 1   
    10    6    7 ar  
    11    6   25 1   
    12    7    8 1   
    13    8    9 1   
    14    8   13 1   
    15    8   26 1   
    16    9   10 1   
    17   10   11 1   
    18   10   27 1   
    19   10   28 1   
    20   11   12 2   
    21   11   13 1   
    22   13   14 1   
    23   14   15 ar  
    24   14   19 ar  
    25   15   16 ar  
    26   15   29 1   
    27   16   17 ar  
    28   16   21 1   
    29   17   18 ar  
    30   17   30 1   
    31   18   19 ar  
    32   18   31 1   
    33   19   20 1   
    34   20   32 1   
@<TRIPOS>SUBSTRUCTURE
     1 N24         1 TEMP              0 ****  ****    0 ROOT
