@<TRIPOS>MOLECULE
N24
   32    34     1     0     0
SMALL
bcc


@<TRIPOS>ATOM
      1 CAJ        -1.7840   -0.8870   -0.2840 ca        1 N24     -0.082000
      2 CAN        -2.8580   -0.3400    0.4210 ca        1 N24     -0.026900
      3 BRAR       -4.5220   -0.1500   -0.4160 br        1 N24     -0.080100
      4 CAU        -2.6910    0.0690    1.7470 ca        1 N24     -0.091000
      5 CAT        -1.4490   -0.0750    2.3630 ca        1 N24     -0.128000
      6 CAS        -0.3760   -0.6260    1.6670 ca        1 N24     -0.088000
      7 CAF        -0.5380   -1.0380    0.3400 ca        1 N24     -0.105300
      8 CAB         0.5770   -1.6600   -0.4410 c3        1 N24      0.249100
      9 SAD         0.7670   -3.4040    0.0890 ss        1 N24     -0.280200
     10 CAH         2.4210   -3.2000    0.6790 c3        1 N24     -0.099300
     11 CAE         2.8540   -1.7810    0.3820 c         1 N24      0.701500
     12 OAK         3.9620   -1.3250    0.6920 o         1 N24     -0.580500
     13 NAA         1.8860   -1.0470   -0.3240 n         1 N24     -0.401000
     14 CAC         2.0440    0.3230   -0.6450 ca        1 N24     -0.002400
     15 CAG         2.4180    1.2620    0.3370 ca        1 N24     -0.090000
     16 CAM         2.5530    2.6090    0.0030 ca        1 N24      0.001400
     17 CAO         2.3230    3.0550   -1.3030 ca        1 N24     -0.097000
     18 CAL         1.9800    2.1410   -2.2900 ca        1 N24     -0.135000
     19 CAI         1.8540    0.7780   -1.9760 ca        1 N24      0.117100
     20 OAQ         1.4720   -0.0460   -3.0120 oh        1 N24     -0.502100
     21 CL          2.9970    3.7250    1.2060 cl        1 N24     -0.085400
     22 HAJ        -1.9120   -1.2020   -1.3330 ha        1 N24      0.151000
     23 HAU        -3.5330    0.5030    2.3090 ha        1 N24      0.150000
     24 HAT        -1.3160    0.2500    3.4070 ha        1 N24      0.143000
     25 HAS         0.5990   -0.7350    2.1660 ha        1 N24      0.137000
     26 HAB         0.2970   -1.6840   -1.5350 h2        1 N24      0.098700
     27 HAH         2.4780   -3.3840    1.7790 h1        1 N24      0.111700
     28 HAHA        3.1110   -3.9140    0.1670 h1        1 N24      0.111700
     29 HAG         2.6200    0.9240    1.3670 ha        1 N24      0.160000
     30 HAO         2.4230    4.1230   -1.5520 ha        1 N24      0.154000
     31 HAL         1.8050    2.4650   -3.3260 ha        1 N24      0.159000
     32 HOAQ        1.9230   -0.8960   -2.9000 ho        1 N24      0.427000
@<TRIPOS>BOND
     1    1    2 ar  
     2    1    7 ar  
     3    1   22 1   
     4    2    3 1   
     5    2    4 ar  
     6    4    5 ar  
     7    4   23 1   
     8    5    6 ar  
     9    5   24 1   
    10    6    7 ar  
    11    6   25 1   
    12    7    8 1   
    13    8    9 1   
    14    8   13 1   
    15    8   26 1   
    16    9   10 1   
    17   10   11 1   
    18   10   27 1   
    19   10   28 1   
    20   11   12 2   
    21   11   13 1   
    22   13   14 1   
    23   14   15 ar  
    24   14   19 ar  
    25   15   16 ar  
    26   15   29 1   
    27   16   17 ar  
    28   16   21 1   
    29   17   18 ar  
    30   17   30 1   
    31   18   19 ar  
    32   18   31 1   
    33   19   20 1   
    34   20   32 1   
@<TRIPOS>SUBSTRUCTURE
     1 N24         1 TEMP              0 ****  ****    0 ROOT
