@<TRIPOS>MOLECULE
N2A
   80    85     1     0     0
SMALL
bcc


@<TRIPOS>ATOM
      1 C1         -0.3120    0.1040    0.4300 ca        1 N2A      0.016400
      2 C2          1.0760    0.3030    0.3440 ca        1 N2A     -0.125000
      3 C3          1.7680    0.5230    1.5270 ca        1 N2A      0.005600
      4 C4          1.0670    0.5430    2.7980 ca        1 N2A      0.000600
      5 C5         -0.3070    0.3480    2.8490 ca        1 N2A     -0.118000
      6 C6         -0.9910    0.1270    1.6490 ca        1 N2A     -0.119000
      7 N13         2.0210    0.7270    3.8230 n         1 N2A     -0.348000
      8 C14         3.2970    0.9210    3.1970 c         1 N2A      0.783500
      9 N15         3.1310    0.8180    1.7730 n         1 N2A     -0.345000
     10 C20         4.2080    0.4670    0.8730 c3        1 N2A      0.126700
     11 C22         1.7200    1.2090    5.1320 c3        1 N2A      0.088300
     12 CL24       -1.1810   -0.1730   -1.0050 cl        1 N2A     -0.087400
     13 C26         5.3000    1.5480    0.8340 c3        1 N2A     -0.100400
     14 C27         6.3670    1.1750   -0.1920 c3        1 N2A      0.174800
     15 N28         6.9560   -0.1380    0.0410 n3        1 N2A     -0.736600
     16 C29         5.9590   -1.1900    0.1700 c3        1 N2A      0.174800
     17 C30         4.8780   -0.8770    1.2000 c3        1 N2A     -0.100400
     18 C37         7.9920   -0.4570   -0.9300 c3        1 N2A      0.178800
     19 C39         8.9780   -1.5080   -0.4130 c3        1 N2A     -0.102400
     20 C41        10.1530   -1.5910   -1.3870 c3        1 N2A      0.066000
     21 N43        11.1840   -2.5350   -0.9900 n         1 N2A     -0.362300
     22 C45        11.3650   -3.7560   -1.7000 c         1 N2A      0.701700
     23 C46        12.4460   -4.6280   -1.2070 cc        1 N2A     -0.239400
     24 C47        13.1640   -4.2310   -0.0950 cd        1 N2A      0.165600
     25 N48        12.9440   -3.0530    0.5730 nd        1 N2A     -0.637300
     26 C49        11.9790   -2.2660    0.1080 cc        1 N2A      0.520800
     27 O56        10.6290   -4.0100   -2.6710 o         1 N2A     -0.622500
     28 O58         4.3630    1.1370    3.7970 o         1 N2A     -0.621500
     29 C60        12.7270   -5.8750   -1.8990 ca        1 N2A      0.010200
     30 C62        11.7030   -6.6240   -2.5010 ca        1 N2A     -0.061000
     31 C63        11.9880   -7.8240   -3.1510 ca        1 N2A     -0.102000
     32 C64        13.3020   -8.2870   -3.2120 ca        1 N2A      0.010400
     33 C65        14.3440   -7.5460   -2.6300 ca        1 N2A     -0.174300
     34 C66        14.0470   -6.3490   -1.9740 ca        1 N2A     -0.093000
     35 CL73       13.6280   -9.7620   -4.0080 cl        1 N2A     -0.096400
     36 C75        15.7690   -7.9620   -2.7670 c3        1 N2A      0.175100
     37 N77        16.0240   -9.2810   -2.1010 n4        1 N2A     -0.682800
     38 C79        17.4740   -9.7130   -2.1600 c         1 N2A      0.573700
     39 O81        18.2820   -8.8410   -2.4550 o         1 N2A     -0.431100
     40 C83        17.7460  -11.1190   -1.8730 ca        1 N2A     -0.232600
     41 C85        19.0270  -11.5940   -2.2160 ca        1 N2A     -0.036000
     42 C86        19.3770  -12.9150   -1.9760 ca        1 N2A     -0.170500
     43 C87        18.4420  -13.7840   -1.3770 ca        1 N2A      0.219900
     44 C88        17.1580  -13.3090   -1.0210 ca        1 N2A     -0.170500
     45 C89        16.8200  -11.9880   -1.2700 ca        1 N2A     -0.036000
     46 F96        18.7680  -15.0670   -1.1400 f         1 N2A     -0.092900
     47 H2          1.5860    0.2890   -0.6300 ha        1 N2A      0.154000
     48 H5         -0.8500    0.3670    3.8050 ha        1 N2A      0.150000
     49 H6         -2.0810   -0.0280    1.6750 ha        1 N2A      0.154000
     50 H20         3.7450    0.3930   -0.1580 h1        1 N2A      0.060700
     51 H22         0.9880    0.5080    5.6150 h1        1 N2A      0.056033
     52 H22A        2.6690    1.2370    5.7320 h1        1 N2A      0.056033
     53 H22B        1.2710    2.2390    5.1020 h1        1 N2A      0.056033
     54 H26         5.7570    1.6570    1.8530 hc        1 N2A      0.071700
     55 H26A        4.8620    2.5360    0.5400 hc        1 N2A      0.071700
     56 H27         7.1950    1.9370   -0.1270 h1        1 N2A      0.032700
     57 H27A        5.9160    1.2450   -1.2260 h1        1 N2A      0.032700
     58 H29         6.4940   -2.1270    0.4930 h1        1 N2A      0.032700
     59 H29A        5.4590   -1.4080   -0.8210 h1        1 N2A      0.032700
     60 H30         4.1260   -1.7060    1.1820 hc        1 N2A      0.071700
     61 H30A        5.3240   -0.8290    2.2290 hc        1 N2A      0.071700
     62 H37         7.5570   -0.8260   -1.9060 h1        1 N2A      0.036200
     63 H37A        8.5660    0.4870   -1.1540 h1        1 N2A      0.036200
     64 H39         8.4720   -2.5050   -0.3360 hc        1 N2A      0.061200
     65 H39A        9.3380   -1.2280    0.6110 hc        1 N2A      0.061200
     66 H41        10.6340   -0.5750   -1.4820 h1        1 N2A      0.082700
     67 H41A        9.7720   -1.8980   -2.4050 h1        1 N2A      0.082700
     68 H47        13.9690   -4.8540    0.3370 h4        1 N2A      0.162000
     69 H49        11.7920   -1.3060    0.6430 h5        1 N2A      0.076800
     70 H62        10.6620   -6.2520   -2.4770 ha        1 N2A      0.189000
     71 H63        11.1720   -8.3990   -3.6220 ha        1 N2A      0.173000
     72 H66        14.8630   -5.7530   -1.5320 ha        1 N2A      0.147000
     73 H75        16.0460   -8.0750   -3.8570 hx        1 N2A      0.119700
     74 H75A       16.4640   -7.2000   -2.3060 hx        1 N2A      0.119700
     75 HN77       15.4390   -9.9980   -2.5630 hn        1 N2A      0.461800
     76 H85        19.7590  -10.9060   -2.6790 ha        1 N2A      0.155000
     77 H86        20.3780  -13.2910   -2.2470 ha        1 N2A      0.183500
     78 H88        16.4400  -13.9960   -0.5450 ha        1 N2A      0.183500
     79 H89        15.8190  -11.6490   -0.9640 ha        1 N2A      0.155000
     80 H772       15.7400   -9.2220   -1.1170 hn        1 N2A      0.461800
@<TRIPOS>BOND
     1    1    2 ar  
     2    1    6 ar  
     3    1   12 1   
     4    2    3 ar  
     5    2   47 1   
     6    3    4 ar  
     7    3    9 1   
     8    4    5 ar  
     9    4    7 1   
    10    5    6 ar  
    11    5   48 1   
    12    6   49 1   
    13    7    8 1   
    14    7   11 1   
    15    8    9 1   
    16    8   28 2   
    17    9   10 1   
    18   10   13 1   
    19   10   17 1   
    20   10   50 1   
    21   11   51 1   
    22   11   52 1   
    23   11   53 1   
    24   13   14 1   
    25   13   54 1   
    26   13   55 1   
    27   14   15 1   
    28   14   56 1   
    29   14   57 1   
    30   15   16 1   
    31   15   18 1   
    32   16   17 1   
    33   16   58 1   
    34   16   59 1   
    35   17   60 1   
    36   17   61 1   
    37   18   19 1   
    38   18   62 1   
    39   18   63 1   
    40   19   20 1   
    41   19   64 1   
    42   19   65 1   
    43   20   21 1   
    44   20   66 1   
    45   20   67 1   
    46   21   22 1   
    47   21   26 1   
    48   22   23 1   
    49   22   27 2   
    50   23   24 2   
    51   23   29 1   
    52   24   25 1   
    53   24   68 1   
    54   25   26 2   
    55   26   69 1   
    56   29   30 ar  
    57   29   34 ar  
    58   30   31 ar  
    59   30   70 1   
    60   31   32 ar  
    61   31   71 1   
    62   32   33 ar  
    63   32   35 1   
    64   33   34 ar  
    65   33   36 1   
    66   34   72 1   
    67   36   37 1   
    68   36   73 1   
    69   36   74 1   
    70   37   38 1   
    71   37   75 1   
    72   37   80 1   
    73   38   39 2   
    74   38   40 1   
    75   40   41 ar  
    76   40   45 ar  
    77   41   42 ar  
    78   41   76 1   
    79   42   43 ar  
    80   42   77 1   
    81   43   44 ar  
    82   43   46 1   
    83   44   45 ar  
    84   44   78 1   
    85   45   79 1   
@<TRIPOS>SUBSTRUCTURE
     1 N2A         1 TEMP              0 ****  ****    0 ROOT
