@<TRIPOS>MOLECULE
N2A
   80    85     1     0     0
SMALL
bcc


@<TRIPOS>ATOM
      1 C1         -0.3000    0.0740    0.4550 ca        1 N2A      0.015400
      2 C2          1.0790    0.3120    0.3450 ca        1 N2A     -0.123000
      3 C3          1.7770    0.6040    1.5090 ca        1 N2A      0.000600
      4 C4          1.0880    0.6620    2.7850 ca        1 N2A      0.000600
      5 C5         -0.2790    0.4220    2.8610 ca        1 N2A     -0.118000
      6 C6         -0.9670    0.1270    1.6810 ca        1 N2A     -0.119000
      7 N13         2.0270    1.0230    3.7750 n         1 N2A     -0.345000
      8 C14         3.3160    1.0820    3.1470 c         1 N2A      0.781500
      9 N15         3.1350    0.9390    1.7260 n         1 N2A     -0.336000
     10 C20         4.2070    0.5530    0.8330 c3        1 N2A      0.122700
     11 C22         1.8540    0.8090    5.1750 c3        1 N2A      0.087300
     12 CL24       -1.1770   -0.2890   -0.9560 cl        1 N2A     -0.087400
     13 C26         5.3040    1.6280    0.7550 c3        1 N2A     -0.099900
     14 C27         6.3620    1.2200   -0.2650 c3        1 N2A      0.174300
     15 N28         6.9480   -0.0880    0.0020 n3        1 N2A     -0.736600
     16 C29         5.9470   -1.1320    0.1700 c3        1 N2A      0.174300
     17 C30         4.8750   -0.7830    1.1970 c3        1 N2A     -0.099900
     18 C37         7.9730   -0.4410   -0.9690 c3        1 N2A      0.178800
     19 C39         8.9560   -1.4860   -0.4350 c3        1 N2A     -0.102400
     20 C41        10.1280   -1.5920   -1.4100 c3        1 N2A      0.066000
     21 N43        11.1560   -2.5340   -1.0000 n         1 N2A     -0.362300
     22 C45        11.3380   -3.7610   -1.7000 c         1 N2A      0.701700
     23 C46        12.4200   -4.6280   -1.1990 cc        1 N2A     -0.239400
     24 C47        13.1350   -4.2210   -0.0880 cd        1 N2A      0.165600
     25 N48        12.9120   -3.0380    0.5700 nd        1 N2A     -0.637300
     26 C49        11.9480   -2.2560    0.0970 cc        1 N2A      0.520800
     27 O56        10.6030   -4.0240   -2.6690 o         1 N2A     -0.622500
     28 O58         4.3870    1.3130    3.7320 o         1 N2A     -0.620500
     29 C60        12.7050   -5.8780   -1.8820 ca        1 N2A      0.010200
     30 C62        11.6840   -6.6340   -2.4800 ca        1 N2A     -0.061000
     31 C63        11.9730   -7.8370   -3.1230 ca        1 N2A     -0.102000
     32 C64        13.2890   -8.2960   -3.1810 ca        1 N2A      0.010400
     33 C65        14.3280   -7.5480   -2.6030 ca        1 N2A     -0.174300
     34 C66        14.0270   -6.3480   -1.9540 ca        1 N2A     -0.093000
     35 CL73       13.6200   -9.7730   -3.9690 cl        1 N2A     -0.096400
     36 C75        15.7550   -7.9590   -2.7380 c3        1 N2A      0.175100
     37 N77        16.0150   -9.2740   -2.0660 n4        1 N2A     -0.682800
     38 C79        17.4680   -9.6990   -2.1230 c         1 N2A      0.573700
     39 O81        18.2730   -8.8210   -2.4050 o         1 N2A     -0.431100
     40 C83        17.7430  -11.1070   -1.8510 ca        1 N2A     -0.232600
     41 C85        19.0240  -11.5760   -2.2040 ca        1 N2A     -0.036000
     42 C86        19.3770  -12.8990   -1.9770 ca        1 N2A     -0.170500
     43 C87        18.4460  -13.7750   -1.3820 ca        1 N2A      0.219900
     44 C88        17.1630  -13.3050   -1.0160 ca        1 N2A     -0.170500
     45 C89        16.8220  -11.9830   -1.2500 ca        1 N2A     -0.036000
     46 F96        18.7760  -15.0600   -1.1570 f         1 N2A     -0.092900
     47 H2          1.5790    0.2730   -0.6340 ha        1 N2A      0.154000
     48 H5         -0.8120    0.4680    3.8210 ha        1 N2A      0.150000
     49 H6         -2.0510   -0.0620    1.7260 ha        1 N2A      0.154000
     50 H20         3.7390    0.4490   -0.1930 h1        1 N2A      0.061700
     51 H22         2.7480    1.2210    5.7150 h1        1 N2A      0.055700
     52 H22A        0.9280    1.3470    5.5110 h1        1 N2A      0.055700
     53 H22B        1.7470   -0.2840    5.4170 h1        1 N2A      0.055700
     54 H26         4.8680    2.6080    0.4350 hc        1 N2A      0.071450
     55 H26A        5.7670    1.7660    1.7680 hc        1 N2A      0.071450
     56 H27         7.1950    1.9790   -0.2280 h1        1 N2A      0.032700
     57 H27A        5.9060    1.2620   -1.2980 h1        1 N2A      0.032700
     58 H29         6.4810   -2.0610    0.5170 h1        1 N2A      0.032700
     59 H29A        5.4390   -1.3780   -0.8110 h1        1 N2A      0.032700
     60 H30         5.3280   -0.7060    2.2200 hc        1 N2A      0.071450
     61 H30A        4.1190   -1.6100    1.2090 hc        1 N2A      0.071450
     62 H37         8.5520    0.4940   -1.2210 h1        1 N2A      0.036700
     63 H37A        7.5270   -0.8300   -1.9320 h1        1 N2A      0.036700
     64 H39         8.4460   -2.4790   -0.3370 hc        1 N2A      0.061200
     65 H39A        9.3190   -1.1880    0.5840 hc        1 N2A      0.061200
     66 H41         9.7420   -1.9140   -2.4210 h1        1 N2A      0.082700
     67 H41A       10.6140   -0.5800   -1.5230 h1        1 N2A      0.082700
     68 H47        13.9400   -4.8400    0.3500 h4        1 N2A      0.162000
     69 H49        11.7600   -1.2920    0.6240 h5        1 N2A      0.076800
     70 H62        10.6420   -6.2650   -2.4580 ha        1 N2A      0.189000
     71 H63        11.1600   -8.4170   -3.5900 ha        1 N2A      0.173000
     72 H66        14.8400   -5.7470   -1.5150 ha        1 N2A      0.147000
     73 H75        16.4470   -7.1920   -2.2800 hx        1 N2A      0.120200
     74 H75A       16.0320   -8.0750   -3.8270 hx        1 N2A      0.120200
     75 HN77       15.7300   -9.2120   -1.0830 hn        1 N2A      0.461800
     76 H85        19.7520  -10.8840   -2.6630 ha        1 N2A      0.155000
     77 H86        20.3770  -13.2710   -2.2550 ha        1 N2A      0.183500
     78 H88        16.4480  -13.9980   -0.5420 ha        1 N2A      0.183500
     79 H89        15.8210  -11.6480   -0.9360 ha        1 N2A      0.155000
     80 H772       15.4330   -9.9950   -2.5250 hn        1 N2A      0.461800
@<TRIPOS>BOND
     1    1    2 ar  
     2    1    6 ar  
     3    1   12 1   
     4    2    3 ar  
     5    2   47 1   
     6    3    4 ar  
     7    3    9 1   
     8    4    5 ar  
     9    4    7 1   
    10    5    6 ar  
    11    5   48 1   
    12    6   49 1   
    13    7    8 1   
    14    7   11 1   
    15    8    9 1   
    16    8   28 2   
    17    9   10 1   
    18   10   13 1   
    19   10   17 1   
    20   10   50 1   
    21   11   51 1   
    22   11   52 1   
    23   11   53 1   
    24   13   14 1   
    25   13   54 1   
    26   13   55 1   
    27   14   15 1   
    28   14   56 1   
    29   14   57 1   
    30   15   16 1   
    31   15   18 1   
    32   16   17 1   
    33   16   58 1   
    34   16   59 1   
    35   17   60 1   
    36   17   61 1   
    37   18   19 1   
    38   18   62 1   
    39   18   63 1   
    40   19   20 1   
    41   19   64 1   
    42   19   65 1   
    43   20   21 1   
    44   20   66 1   
    45   20   67 1   
    46   21   22 1   
    47   21   26 1   
    48   22   23 1   
    49   22   27 2   
    50   23   24 2   
    51   23   29 1   
    52   24   25 1   
    53   24   68 1   
    54   25   26 2   
    55   26   69 1   
    56   29   30 ar  
    57   29   34 ar  
    58   30   31 ar  
    59   30   70 1   
    60   31   32 ar  
    61   31   71 1   
    62   32   33 ar  
    63   32   35 1   
    64   33   34 ar  
    65   33   36 1   
    66   34   72 1   
    67   36   37 1   
    68   36   73 1   
    69   36   74 1   
    70   37   38 1   
    71   37   75 1   
    72   37   80 1   
    73   38   39 2   
    74   38   40 1   
    75   40   41 ar  
    76   40   45 ar  
    77   41   42 ar  
    78   41   76 1   
    79   42   43 ar  
    80   42   77 1   
    81   43   44 ar  
    82   43   46 1   
    83   44   45 ar  
    84   44   78 1   
    85   45   79 1   
@<TRIPOS>SUBSTRUCTURE
     1 N2A         1 TEMP              0 ****  ****    0 ROOT
