@<TRIPOS>MOLECULE
N2A
   80    85     1     0     0
SMALL
bcc


@<TRIPOS>ATOM
      1 C1         -0.3220    0.0520    0.4580 ca        1 N2A      0.016400
      2 C2          1.0640    0.2600    0.3610 ca        1 N2A     -0.125000
      3 C3          1.7600    0.5060    1.5360 ca        1 N2A      0.005600
      4 C4          1.0660    0.5440    2.8090 ca        1 N2A      0.000600
      5 C5         -0.3060    0.3400    2.8720 ca        1 N2A     -0.118000
      6 C6         -0.9950    0.0920    1.6800 ca        1 N2A     -0.119000
      7 N13         2.0250    0.7540    3.8260 n         1 N2A     -0.348000
      8 C14         3.2950    0.9450    3.1890 c         1 N2A      0.783500
      9 N15         3.1220    0.8150    1.7690 n         1 N2A     -0.345000
     10 C20         4.1970    0.4570    0.8690 c3        1 N2A      0.126700
     11 C22         1.7270    1.2580    5.1270 c3        1 N2A      0.088300
     12 Cl24       -1.1980   -0.2580   -0.9670 cl        1 N2A     -0.087400
     13 C26         5.2810    1.5450    0.8040 c3        1 N2A     -0.100400
     14 C27         6.3440    1.1620   -0.2210 c3        1 N2A      0.174800
     15 N28         6.9450   -0.1420    0.0300 n3        1 N2A     -0.736600
     16 C29         5.9560   -1.1990    0.1840 c3        1 N2A      0.174800
     17 C30         4.8790   -0.8760    1.2150 c3        1 N2A     -0.100400
     18 C37         7.9750   -0.4700   -0.9430 c3        1 N2A      0.178800
     19 C39         8.9670   -1.5130   -0.4200 c3        1 N2A     -0.102400
     20 C41        10.1410   -1.5980   -1.3960 c3        1 N2A      0.066000
     21 N43        11.1750   -2.5370   -0.9970 n         1 N2A     -0.362300
     22 C45        11.3600   -3.7600   -1.7030 c         1 N2A      0.701700
     23 C46        12.4450   -4.6260   -1.2080 cc        1 N2A     -0.239400
     24 C47        13.1620   -4.2230   -0.0980 cd        1 N2A      0.165600
     25 N48        12.9370   -3.0440    0.5670 nd        1 N2A     -0.637300
     26 C49        11.9690   -2.2620    0.1010 cc        1 N2A      0.520800
     27 O56        10.6240   -4.0180   -2.6730 o         1 N2A     -0.622500
     28 O58         4.3630    1.1800    3.7790 o         1 N2A     -0.621500
     29 C60        12.7290   -5.8730   -1.8970 ca        1 N2A      0.010200
     30 C62        11.7090   -6.6280   -2.4970 ca        1 N2A     -0.061000
     31 C63        11.9970   -7.8280   -3.1440 ca        1 N2A     -0.102000
     32 C64        13.3140   -8.2860   -3.2040 ca        1 N2A      0.010400
     33 C65        14.3520   -7.5400   -2.6250 ca        1 N2A     -0.174300
     34 C66        14.0520   -6.3430   -1.9710 ca        1 N2A     -0.093000
     35 Cl73       13.6450   -9.7610   -3.9980 cl        1 N2A     -0.096400
     36 C75        15.7790   -7.9510   -2.7610 c3        1 N2A      0.175100
     37 N77        16.0400   -9.2680   -2.0930 ny        1 N2A     -0.682800
     38 C79        17.4920   -9.6940   -2.1510 c         1 N2A      0.573700
     39 O81        18.2970   -8.8170   -2.4380 o         1 N2A     -0.431100
     40 C83        17.7670  -11.1010   -1.8750 ca        1 N2A     -0.232600
     41 C85        19.0480  -11.5710   -2.2260 ca        1 N2A     -0.036000
     42 C86        19.4010  -12.8930   -1.9960 ca        1 N2A     -0.170500
     43 C87        18.4710  -13.7680   -1.3990 ca        1 N2A      0.219900
     44 C88        17.1870  -13.2970   -1.0350 ca        1 N2A     -0.170500
     45 C89        16.8460  -11.9760   -1.2740 ca        1 N2A     -0.036000
     46 F96        18.8000  -15.0520   -1.1710 f         1 N2A     -0.092900
     47 H2          1.5680    0.2310   -0.6160 ha        1 N2A      0.154000
     48 H5         -0.8440    0.3720    3.8300 ha        1 N2A      0.150000
     49 H6         -2.0840   -0.0700    1.7150 ha        1 N2A      0.154000
     50 H20         3.7290    0.3620   -0.1590 h1        1 N2A      0.060700
     51 H22         2.6790    1.3030    5.7210 h1        1 N2A      0.056033
     52 H22A        1.2710    2.2840    5.0800 h1        1 N2A      0.056033
     53 H22B        1.0020    0.5610    5.6270 h1        1 N2A      0.056033
     54 H26         4.8340    2.5250    0.4970 hc        1 N2A      0.071700
     55 H26A        5.7420    1.6750    1.8190 hc        1 N2A      0.071700
     56 H27         5.8870    1.2120   -1.2530 h1        1 N2A      0.032700
     57 H27A        7.1670    1.9310   -0.1740 h1        1 N2A      0.032700
     58 H29         5.4520   -1.4380   -0.8010 h1        1 N2A      0.032700
     59 H29A        6.5000   -2.1260    0.5200 h1        1 N2A      0.032700
     60 H30         5.3300   -0.8070    2.2400 hc        1 N2A      0.071700
     61 H30A        4.1330   -1.7110    1.2160 hc        1 N2A      0.071700
     62 H37         7.5360   -0.8500   -1.9120 h1        1 N2A      0.036200
     63 H37A        8.5460    0.4740   -1.1800 h1        1 N2A      0.036200
     64 H39         8.4660   -2.5110   -0.3350 hc        1 N2A      0.061200
     65 H39A        9.3280   -1.2240    0.6010 hc        1 N2A      0.061200
     66 H41         9.7590   -1.9110   -2.4110 h1        1 N2A      0.082700
     67 H41A       10.6190   -0.5810   -1.4970 h1        1 N2A      0.082700
     68 H47        13.9690   -4.8430    0.3360 h4        1 N2A      0.162000
     69 H49        11.7790   -1.3020    0.6330 h5        1 N2A      0.076800
     70 H62        10.6660   -6.2600   -2.4730 ha        1 N2A      0.189000
     71 H63        11.1840   -8.4070   -3.6140 ha        1 N2A      0.173000
     72 H66        14.8650   -5.7430   -1.5310 ha        1 N2A      0.147000
     73 H75        16.4720   -7.1860   -2.3020 hx        1 N2A      0.119700
     74 H75A       16.0570   -8.0650   -3.8510 hx        1 N2A      0.119700
     75 HN77       15.4570   -9.9870   -2.5530 hn        1 N2A      0.461800
     76 H85        19.7770  -10.8790   -2.6860 ha        1 N2A      0.155000
     77 H86        20.4020  -13.2650   -2.2720 ha        1 N2A      0.183500
     78 H88        16.4720  -13.9900   -0.5610 ha        1 N2A      0.183500
     79 H89        15.8450  -11.6410   -0.9610 ha        1 N2A      0.155000
     80 H772       15.7550   -9.2080   -1.1090 hn        1 N2A      0.461800
@<TRIPOS>BOND
     1    1    2 ar  
     2    1    6 ar  
     3    1   12 1   
     4    2    3 ar  
     5    2   47 1   
     6    3    4 ar  
     7    3    9 1   
     8    4    5 ar  
     9    4    7 1   
    10    5    6 ar  
    11    5   48 1   
    12    6   49 1   
    13    7    8 1   
    14    7   11 1   
    15    8    9 1   
    16    8   28 2   
    17    9   10 1   
    18   10   13 1   
    19   10   17 1   
    20   10   50 1   
    21   11   51 1   
    22   11   52 1   
    23   11   53 1   
    24   13   14 1   
    25   13   54 1   
    26   13   55 1   
    27   14   15 1   
    28   14   56 1   
    29   14   57 1   
    30   15   16 1   
    31   15   18 1   
    32   16   17 1   
    33   16   58 1   
    34   16   59 1   
    35   17   60 1   
    36   17   61 1   
    37   18   19 1   
    38   18   62 1   
    39   18   63 1   
    40   19   20 1   
    41   19   64 1   
    42   19   65 1   
    43   20   21 1   
    44   20   66 1   
    45   20   67 1   
    46   21   22 1   
    47   21   26 1   
    48   22   23 1   
    49   22   27 2   
    50   23   24 2   
    51   23   29 1   
    52   24   25 1   
    53   24   68 1   
    54   25   26 2   
    55   26   69 1   
    56   29   30 ar  
    57   29   34 ar  
    58   30   31 ar  
    59   30   70 1   
    60   31   32 ar  
    61   31   71 1   
    62   32   33 ar  
    63   32   35 1   
    64   33   34 ar  
    65   33   36 1   
    66   34   72 1   
    67   36   37 1   
    68   36   73 1   
    69   36   74 1   
    70   37   38 1   
    71   37   75 1   
    72   37   80 1   
    73   38   39 2   
    74   38   40 1   
    75   40   41 ar  
    76   40   45 ar  
    77   41   42 ar  
    78   41   76 1   
    79   42   43 ar  
    80   42   77 1   
    81   43   44 ar  
    82   43   46 1   
    83   44   45 ar  
    84   44   78 1   
    85   45   79 1   
@<TRIPOS>SUBSTRUCTURE
     1 N2A         1 TEMP              0 ****  ****    0 ROOT
