@<TRIPOS>MOLECULE
N2A
   79    84     1     0     0
SMALL
bcc


@<TRIPOS>ATOM
      1 C1          9.6500    2.7310    0.4280 ca        1 N2A      0.015400
      2 C2          8.8440    1.6440    0.0560 ca        1 N2A     -0.121000
      3 C3          8.7780    0.5640    0.9270 ca        1 N2A     -0.001400
      4 C4          9.5250    0.5750    2.1700 ca        1 N2A     -0.002400
      5 C5         10.3140    1.6680    2.5110 ca        1 N2A     -0.120000
      6 C6         10.3690    2.7480    1.6250 ca        1 N2A     -0.121000
      7 N13         9.3170   -0.6600    2.8210 n         1 N2A     -0.342000
      8 C14         8.3490   -1.3930    2.0490 c         1 N2A      0.776500
      9 N15         8.1160   -0.6840    0.8150 n         1 N2A     -0.328000
     10 C20         6.9080   -0.8630    0.0330 c3        1 N2A      0.115700
     11 C22         9.4940   -0.8680    4.2220 c3        1 N2A      0.084300
     12 CL24        9.7480    4.0680   -0.6200 cl        1 N2A     -0.090400
     13 C26         6.7940   -2.2860   -0.5360 c3        1 N2A     -0.098900
     14 C27         5.5670   -2.3860   -1.4370 c3        1 N2A      0.171300
     15 N28         4.3260   -2.0010   -0.7760 n3        1 N2A     -0.730600
     16 C29         4.4090   -0.6970   -0.1330 c3        1 N2A      0.171300
     17 C30         5.6110   -0.5510    0.7940 c3        1 N2A     -0.098900
     18 C37         3.1860   -2.1180   -1.6750 c3        1 N2A      0.174800
     19 C39         1.8360   -2.0120   -0.9650 c3        1 N2A     -0.102400
     20 C41         0.7410   -2.4540   -1.9380 c3        1 N2A      0.073000
     21 N43        -0.6020   -2.3620   -1.4010 n         1 N2A     -0.379300
     22 C45        -1.4900   -1.3350   -1.8300 c         1 N2A      0.697700
     23 C46        -2.8330   -1.3580   -1.2210 cc        1 N2A     -0.189400
     24 C47        -3.1170   -2.3170   -0.2730 cd        1 N2A      0.136600
     25 N48        -2.2170   -3.2800    0.1320 nd        1 N2A     -0.630300
     26 C49        -1.0220   -3.2640   -0.4350 cc        1 N2A      0.493800
     27 O56        -1.0880   -0.5100   -2.6720 o         1 N2A     -0.629500
     28 O58         7.8860   -2.5010    2.3600 o         1 N2A     -0.613500
     29 C60        -3.8230   -0.3730   -1.6320 ca        1 N2A     -0.030800
     30 C62        -3.4570    0.9420   -1.9540 ca        1 N2A     -0.088000
     31 C63        -4.4250    1.8760   -2.3100 ca        1 N2A     -0.128000
     32 C64        -5.7720    1.5040   -2.3530 ca        1 N2A      0.024400
     33 C65        -6.1570    0.1900   -2.0550 ca        1 N2A     -0.115300
     34 C66        -5.1770   -0.7370   -1.6920 ca        1 N2A     -0.097000
     35 CL73       -6.9320    2.6780   -2.7810 cl        1 N2A     -0.104400
     36 C75        -7.5930   -0.2570   -2.1390 c3        1 N2A      0.131300
     37 N77        -8.4470    0.2740   -1.1130 n         1 N2A     -0.553900
     38 C79        -8.7360   -0.4400    0.0380 c         1 N2A      0.669700
     39 O81        -8.4260   -1.6440    0.1500 o         1 N2A     -0.605100
     40 C83        -9.5030    0.2650    1.1060 ca        1 N2A     -0.156600
     41 C85       -10.4940   -0.4540    1.7870 ca        1 N2A     -0.066500
     42 C86       -11.2310    0.1500    2.7990 ca        1 N2A     -0.175000
     43 C87       -10.9660    1.4900    3.1420 ca        1 N2A      0.146900
     44 C88        -9.9600    2.2100    2.4710 ca        1 N2A     -0.175000
     45 C89        -9.2360    1.5920    1.4560 ca        1 N2A     -0.066500
     46 F96       -11.6790    2.0870    4.1260 f         1 N2A     -0.135900
     47 H2          8.2930    1.6530   -0.8950 ha        1 N2A      0.156000
     48 H5         10.8860    1.6860    3.4490 ha        1 N2A      0.148000
     49 H6         10.9920    3.6190    1.8820 ha        1 N2A      0.152000
     50 H20         6.9930   -0.1400   -0.8360 h1        1 N2A      0.061700
     51 H22         8.8240   -0.2020    4.8320 h1        1 N2A      0.054700
     52 H22A        9.2600   -1.9410    4.4580 h1        1 N2A      0.054700
     53 H22B       10.5620   -0.6470    4.4870 h1        1 N2A      0.054700
     54 H26         7.7000   -2.5370   -1.1450 hc        1 N2A      0.068950
     55 H26A        6.7250   -3.0240    0.3070 hc        1 N2A      0.068950
     56 H27         5.7490   -1.7660   -2.3650 h1        1 N2A      0.034450
     57 H27A        5.4580   -3.4600   -1.7610 h1        1 N2A      0.034450
     58 H29         4.4380    0.1390   -0.8950 h1        1 N2A      0.034450
     59 H29A        3.4740   -0.5640    0.4820 h1        1 N2A      0.034450
     60 H30         5.5140   -1.2500    1.6670 hc        1 N2A      0.068950
     61 H30A        5.6260    0.4990    1.1850 hc        1 N2A      0.068950
     62 H37         3.2170   -1.3400   -2.4950 h1        1 N2A      0.035200
     63 H37A        3.2520   -3.1310   -2.1680 h1        1 N2A      0.035200
     64 H39         1.8240   -2.6570   -0.0490 hc        1 N2A      0.059700
     65 H39A        1.6540   -0.9540   -0.6420 hc        1 N2A      0.059700
     66 H41         0.7890   -1.8120   -2.8650 h1        1 N2A      0.075700
     67 H41A        0.9250   -3.5250   -2.2400 h1        1 N2A      0.075700
     68 H47        -4.1010   -2.3690    0.2330 h4        1 N2A      0.179000
     69 H49        -0.2860   -4.0370   -0.1210 h5        1 N2A      0.060800
     70 H62        -2.3940    1.2350   -1.9380 ha        1 N2A      0.162000
     71 H63        -4.1260    2.9060   -2.5590 ha        1 N2A      0.150000
     72 H66        -5.4800   -1.7700   -1.4550 ha        1 N2A      0.149000
     73 H75        -8.0110    0.0690   -3.1370 h1        1 N2A      0.076700
     74 H75A       -7.6360   -1.3850   -2.0910 h1        1 N2A      0.076700
     75 HN77       -8.5950    1.2560   -1.1140 hn        1 N2A      0.312500
     76 H85       -10.6760   -1.5070    1.5180 ha        1 N2A      0.151500
     77 H86       -12.0130   -0.4060    3.3350 ha        1 N2A      0.154000
     78 H88        -9.7550    3.2520    2.7550 ha        1 N2A      0.154000
     79 H89        -8.4400    2.1600    0.9490 ha        1 N2A      0.151500
@<TRIPOS>BOND
     1    1    2 ar  
     2    1    6 ar  
     3    1   12 1   
     4    2    3 ar  
     5    2   47 1   
     6    3    4 ar  
     7    3    9 1   
     8    4    5 ar  
     9    4    7 1   
    10    5    6 ar  
    11    5   48 1   
    12    6   49 1   
    13    7    8 1   
    14    7   11 1   
    15    8    9 1   
    16    8   28 2   
    17    9   10 1   
    18   10   13 1   
    19   10   17 1   
    20   10   50 1   
    21   11   51 1   
    22   11   52 1   
    23   11   53 1   
    24   13   14 1   
    25   13   54 1   
    26   13   55 1   
    27   14   15 1   
    28   14   56 1   
    29   14   57 1   
    30   15   16 1   
    31   15   18 1   
    32   16   17 1   
    33   16   58 1   
    34   16   59 1   
    35   17   60 1   
    36   17   61 1   
    37   18   19 1   
    38   18   62 1   
    39   18   63 1   
    40   19   20 1   
    41   19   64 1   
    42   19   65 1   
    43   20   21 1   
    44   20   66 1   
    45   20   67 1   
    46   21   22 1   
    47   21   26 1   
    48   22   23 1   
    49   22   27 2   
    50   23   24 2   
    51   23   29 1   
    52   24   25 1   
    53   24   68 1   
    54   25   26 2   
    55   26   69 1   
    56   29   30 ar  
    57   29   34 ar  
    58   30   31 ar  
    59   30   70 1   
    60   31   32 ar  
    61   31   71 1   
    62   32   33 ar  
    63   32   35 1   
    64   33   34 ar  
    65   33   36 1   
    66   34   72 1   
    67   36   37 1   
    68   36   73 1   
    69   36   74 1   
    70   37   38 1   
    71   37   75 1   
    72   38   39 2   
    73   38   40 1   
    74   40   41 ar  
    75   40   45 ar  
    76   41   42 ar  
    77   41   76 1   
    78   42   43 ar  
    79   42   77 1   
    80   43   44 ar  
    81   43   46 1   
    82   44   45 ar  
    83   44   78 1   
    84   45   79 1   
@<TRIPOS>SUBSTRUCTURE
     1 N2A         1 TEMP              0 ****  ****    0 ROOT
