@<TRIPOS>MOLECULE
N2B
   18    18     1     0     0
SMALL
bcc


@<TRIPOS>ATOM
      1 C1          0.0770    0.2780    0.4930 ca        1 N2B     -0.077300
      2 C2         -1.1460    0.0420   -0.1470 ca        1 N2B     -0.128000
      3 C3         -1.1870   -0.2020   -1.5180 ca        1 N2B     -0.128000
      4 C4         -0.0070   -0.2110   -2.2630 ca        1 N2B     -0.134000
      5 C5          1.2130    0.0240   -1.6320 ca        1 N2B     -0.128000
      6 C6          1.2560    0.2680   -0.2600 ca        1 N2B     -0.128000
      7 C1'         0.1140    0.5460    1.9580 c3        1 N2B     -0.038100
      8 C2'        -0.1670   -0.6960    2.7690 c3        1 N2B     -0.089100
      9 H2         -2.0760    0.0490    0.4400 ha        1 N2B      0.130000
     10 H3         -2.1510   -0.3870   -2.0140 ha        1 N2B      0.130000
     11 H4         -0.0410   -0.4030   -3.3450 ha        1 N2B      0.130000
     12 H5          2.1450    0.0180   -2.2160 ha        1 N2B      0.130000
     13 H6          2.2220    0.4540    0.2330 ha        1 N2B      0.130000
     14 H1'1       -0.6490    1.3330    2.2060 hc        1 N2B      0.046700
     15 H1'2        1.1180    0.9580    2.2450 hc        1 N2B      0.046700
     16 H2'1       -0.1590   -0.4520    3.8590 hc        1 N2B      0.036033
     17 H2'2       -1.1670   -1.1190    2.5060 hc        1 N2B      0.036033
     18 H2'3        0.6060   -1.4780    2.5750 hc        1 N2B      0.036033
@<TRIPOS>BOND
     1    1    2 ar  
     2    1    6 ar  
     3    1    7 1   
     4    2    3 ar  
     5    2    9 1   
     6    3    4 ar  
     7    3   10 1   
     8    4    5 ar  
     9    4   11 1   
    10    5    6 ar  
    11    5   12 1   
    12    6   13 1   
    13    7    8 1   
    14    7   14 1   
    15    7   15 1   
    16    8   16 1   
    17    8   17 1   
    18    8   18 1   
@<TRIPOS>SUBSTRUCTURE
     1 N2B         1 TEMP              0 ****  ****    0 ROOT
