@<TRIPOS>MOLECULE
N2B
   18    18     1     0     0
SMALL
bcc


@<TRIPOS>ATOM
      1 C1         -0.0700   -0.0250    0.0350 ca        1 N2B     -0.077300
      2 C2          1.3260   -0.1340    0.0050 ca        1 N2B     -0.128000
      3 C3          2.0590   -0.1100    1.1900 ca        1 N2B     -0.128000
      4 C4          1.4060    0.0240    2.4150 ca        1 N2B     -0.134000
      5 C5          0.0170    0.1340    2.4510 ca        1 N2B     -0.128000
      6 C6         -0.7190    0.1100    1.2670 ca        1 N2B     -0.128000
      7 C1'        -0.8480   -0.0440   -1.2350 c3        1 N2B     -0.038100
      8 C2'        -0.8840   -1.4190   -1.8580 c3        1 N2B     -0.089100
      9 H2          1.8420   -0.2400   -0.9610 ha        1 N2B      0.130000
     10 H3          3.1550   -0.1960    1.1580 ha        1 N2B      0.130000
     11 H4          1.9850    0.0440    3.3490 ha        1 N2B      0.130000
     12 H5         -0.5020    0.2400    3.4150 ha        1 N2B      0.130000
     13 H6         -1.8150    0.1980    1.3010 ha        1 N2B      0.130000
     14 H1'1       -0.3850    0.6810   -1.9590 hc        1 N2B      0.046700
     15 H1'2       -1.8980    0.3060   -1.0450 hc        1 N2B      0.046700
     16 H2'1       -1.3830   -2.1490   -1.1760 hc        1 N2B      0.036033
     17 H2'2        0.1510   -1.7830   -2.0660 hc        1 N2B      0.036033
     18 H2'3       -1.4500   -1.3880   -2.8200 hc        1 N2B      0.036033
@<TRIPOS>BOND
     1    1    2 ar  
     2    1    6 ar  
     3    1    7 1   
     4    2    3 ar  
     5    2    9 1   
     6    3    4 ar  
     7    3   10 1   
     8    4    5 ar  
     9    4   11 1   
    10    5    6 ar  
    11    5   12 1   
    12    6   13 1   
    13    7    8 1   
    14    7   14 1   
    15    7   15 1   
    16    8   16 1   
    17    8   17 1   
    18    8   18 1   
@<TRIPOS>SUBSTRUCTURE
     1 N2B         1 TEMP              0 ****  ****    0 ROOT
