@<TRIPOS>MOLECULE
N2B
   18    18     1     0     0
SMALL
bcc


@<TRIPOS>ATOM
      1 C1         -0.0720   -0.0240    0.0350 ca        1 N2B     -0.077300
      2 C2          1.3260   -0.1130    0.0140 ca        1 N2B     -0.128000
      3 C3          2.0510   -0.0920    1.2030 ca        1 N2B     -0.128000
      4 C4          1.3870    0.0180    2.4260 ca        1 N2B     -0.134000
      5 C5         -0.0040    0.1080    2.4530 ca        1 N2B     -0.128000
      6 C6         -0.7310    0.0870    1.2640 ca        1 N2B     -0.128000
      7 C1'        -0.8410   -0.0380   -1.2400 c3        1 N2B     -0.038100
      8 C2'        -0.8560   -1.4060   -1.8790 c3        1 N2B     -0.089100
      9 H2          1.8500   -0.2000   -0.9500 ha        1 N2B      0.130000
     10 H3          3.1480   -0.1630    1.1780 ha        1 N2B      0.130000
     11 H4          1.9600    0.0350    3.3640 ha        1 N2B      0.130000
     12 H5         -0.5300    0.1950    3.4150 ha        1 N2B      0.130000
     13 H6         -1.8290    0.1590    1.2920 ha        1 N2B      0.130000
     14 H1'1       -0.3820    0.7000   -1.9530 hc        1 N2B      0.046700
     15 H1'2       -1.8970    0.2970   -1.0540 hc        1 N2B      0.046700
     16 H2'1       -1.4160   -1.3730   -2.8440 hc        1 N2B      0.036033
     17 H2'2       -1.3500   -2.1500   -1.2080 hc        1 N2B      0.036033
     18 H2'3        0.1850   -1.7560   -2.0820 hc        1 N2B      0.036033
@<TRIPOS>BOND
     1    1    2 ar  
     2    1    6 ar  
     3    1    7 1   
     4    2    3 ar  
     5    2    9 1   
     6    3    4 ar  
     7    3   10 1   
     8    4    5 ar  
     9    4   11 1   
    10    5    6 ar  
    11    5   12 1   
    12    6   13 1   
    13    7    8 1   
    14    7   14 1   
    15    7   15 1   
    16    8   16 1   
    17    8   17 1   
    18    8   18 1   
@<TRIPOS>SUBSTRUCTURE
     1 N2B         1 TEMP              0 ****  ****    0 ROOT
