@<TRIPOS>MOLECULE
N2C
   19    18     1     0     0
SMALL
bcc


@<TRIPOS>ATOM
      1 N           2.1650   -1.3600   -0.1570 n3        1 N2C     -0.801200
      2 CA          1.3740   -0.9020   -1.2950 c3        1 N2C      0.040500
      3 CB          0.3720    0.1730   -0.9040 c3        1 N2C      0.043700
      4 SG         -0.7520   -0.2690    0.4140 ss        1 N2C     -0.407200
      5 CD         -0.0280    0.4790    1.8290 c3        1 N2C     -0.018000
      6 CN          3.0560   -2.4450   -0.4640 c3        1 N2C      0.148100
      7 C           2.2650   -0.3260   -2.4600 c         1 N2C      0.930600
      8 O           2.2930    0.9220   -2.6260 o         1 N2C     -0.833800
      9 OXT         2.8620   -1.1680   -3.1860 o         1 N2C     -0.833800
     10 H           1.5300   -1.6420    0.5730 hn        1 N2C      0.324800
     11 HA          0.8000   -1.7700   -1.7460 h1        1 N2C      0.010700
     12 HB2        -0.2780    0.3830   -1.7880 h1        1 N2C      0.083700
     13 HB3         0.9160    1.1130   -0.6410 h1        1 N2C      0.083700
     14 HD1        -0.6900    0.2400    2.6910 h1        1 N2C      0.051700
     15 HD2         0.0390    1.5840    1.7110 h1        1 N2C      0.051700
     16 HD3         0.9940    0.0860    2.0270 h1        1 N2C      0.051700
     17 HN1         3.6620   -2.1830   -1.3750 h1        1 N2C      0.025033
     18 HN2         2.5300   -3.4210   -0.6680 h1        1 N2C      0.025033
     19 HN3         3.7400   -2.5970    0.4130 h1        1 N2C      0.025033
@<TRIPOS>BOND
     1    1    2 1   
     2    1    6 1   
     3    1   10 1   
     4    2    3 1   
     5    2    7 1   
     6    2   11 1   
     7    3    4 1   
     8    3   12 1   
     9    3   13 1   
    10    4    5 1   
    11    5   14 1   
    12    5   15 1   
    13    5   16 1   
    14    6   17 1   
    15    6   18 1   
    16    6   19 1   
    17    7    8 1   
    18    7    9 1   
@<TRIPOS>SUBSTRUCTURE
     1 N2C         1 TEMP              0 ****  ****    0 ROOT
