@<TRIPOS>MOLECULE
N2D
   80    85     1     0     0
SMALL
bcc


@<TRIPOS>ATOM
      1 C1          1.2830    0.9000    2.3170 ca        1 N2D      0.020400
      2 C2          2.5100    0.2520    2.1100 ca        1 N2D     -0.116000
      3 CL2        -0.0640    0.3960    1.4140 cl        1 N2D     -0.071400
      4 C3          3.5990    0.6830    2.8590 ca        1 N2D     -0.008400
      5 CL3        16.0640    1.5520    4.2010 cl        1 N2D     -0.081400
      6 C4          3.4530    1.7580    3.8180 ca        1 N2D     -0.012400
      7 C5          2.2240    2.3820    4.0010 ca        1 N2D     -0.110000
      8 C6          1.1390    1.9410    3.2390 ca        1 N2D     -0.114000
      9 N13         4.6960    1.9410    4.4680 n         1 N2D     -0.337000
     10 C14         5.6380    1.0630    3.8370 c         1 N2D      0.783500
     11 N15         4.9340    0.2050    2.9250 n         1 N2D     -0.324000
     12 C22         5.0830    3.1540    5.1150 c3        1 N2D      0.083300
     13 O24         6.8460    0.9850    4.1430 o         1 N2D     -0.678500
     14 C26         5.5810   -0.4570    1.8070 c3        1 N2D      0.115700
     15 C28         6.2890    0.5050    0.8400 c3        1 N2D     -0.096400
     16 C29         6.9230   -0.2670   -0.3150 c3        1 N2D      0.173800
     17 N30         7.8390   -1.3000    0.1440 n3        1 N2D     -0.748600
     18 C31         7.2070   -2.2250    1.0720 c3        1 N2D      0.173800
     19 C32         6.5860   -1.5210    2.2770 c3        1 N2D     -0.096400
     20 C39         8.5430   -1.9650   -0.9430 c3        1 N2D      0.177800
     21 C41         9.8060   -2.6840   -0.4550 c3        1 N2D     -0.099400
     22 C43        10.8400   -2.7510   -1.5780 c3        1 N2D      0.098000
     23 N45        12.2060   -3.0460   -1.1030 n         1 N2D     -0.180800
     24 N47        12.7470   -2.1870   -0.2700 nc        1 N2D     -0.407300
     25 C48        13.9530   -2.4160    0.2630 cd        1 N2D      0.335200
     26 C49        14.7200   -3.6040   -0.0660 cd        1 N2D     -0.165600
     27 C50        14.1830   -4.4960   -0.9310 cc        1 N2D     -0.203200
     28 C51        12.8510   -4.2660   -1.5100 c         1 N2D      0.662700
     29 C58        14.4790   -1.4330    1.2210 ca        1 N2D     -0.073900
     30 C60        15.8580   -1.2290    1.3640 ca        1 N2D     -0.076000
     31 C61        16.3450   -0.3050    2.2890 ca        1 N2D     -0.108000
     32 C62        15.4560    0.4400    3.0670 ca        1 N2D      0.025400
     33 C63        14.0710    0.2710    2.9110 ca        1 N2D     -0.178300
     34 C64        13.5930   -0.6760    2.0030 ca        1 N2D     -0.068000
     35 O71        12.2780   -5.0340   -2.2960 o         1 N2D     -0.583500
     36 C75        13.0850    1.1270    3.6300 c3        1 N2D      0.175100
     37 N77        13.0120    0.8010    5.0920 n4        1 N2D     -0.687800
     38 C79        11.7310    1.3600    5.7050 c         1 N2D      0.582700
     39 C81        10.7960    0.3440    6.1880 ca        1 N2D     -0.216600
     40 C83         9.4450    0.4560    5.8310 ca        1 N2D     -0.072000
     41 C84         8.5330   -0.4930    6.2950 ca        1 N2D     -0.117500
     42 C85         8.9590   -1.5310    7.1220 ca        1 N2D     -0.066000
     43 C86        10.3060   -1.6300    7.4890 ca        1 N2D     -0.117500
     44 C87        11.2290   -0.7020    7.0200 ca        1 N2D     -0.072000
     45 O94        11.6340    2.5770    5.6950 o         1 N2D     -0.411100
     46 H2          2.5960   -0.5690    1.3840 ha        1 N2D      0.159000
     47 H5          2.1010    3.1980    4.7270 ha        1 N2D      0.153000
     48 H6          0.1580    2.4240    3.3730 ha        1 N2D      0.160000
     49 H22         6.0960    3.0090    5.5770 h1        1 N2D      0.055700
     50 H22A        4.3330    3.3870    5.9180 h1        1 N2D      0.055700
     51 H22B        5.1260    4.0170    4.3970 h1        1 N2D      0.055700
     52 H26         4.7550   -0.9840    1.2380 h1        1 N2D      0.070700
     53 H28         5.5550    1.2360    0.4110 hc        1 N2D      0.062950
     54 H28A        7.0740    1.0820    1.3940 hc        1 N2D      0.062950
     55 H29         7.5060    0.4600   -0.9490 h1        1 N2D      0.038200
     56 H29A        6.0990   -0.6980   -0.9590 h1        1 N2D      0.038200
     57 H31         6.4090   -2.8430    0.5630 h1        1 N2D      0.038200
     58 H31A        8.0000   -2.9340    1.4440 h1        1 N2D      0.038200
     59 H32         7.3830   -1.0360    2.8990 hc        1 N2D      0.062950
     60 H32A        6.0690   -2.2890    2.9070 hc        1 N2D      0.062950
     61 H39         8.8340   -1.1740   -1.6930 h1        1 N2D      0.040700
     62 H39A        7.8860   -2.7110   -1.4790 h1        1 N2D      0.040700
     63 H41         9.5450   -3.7220   -0.1240 hc        1 N2D      0.058200
     64 H41A       10.2220   -2.1440    0.4360 hc        1 N2D      0.058200
     65 H43        10.5630   -3.5660   -2.3060 h1        1 N2D      0.085200
     66 H43A       10.8710   -1.7710   -2.1340 h1        1 N2D      0.085200
     67 H49        15.7050   -3.7560    0.3980 ha        1 N2D      0.154000
     68 H50        14.6840   -5.4260   -1.2400 ha        1 N2D      0.182000
     69 H60        16.5720   -1.7900    0.7370 ha        1 N2D      0.163000
     70 H61        17.4330   -0.1590    2.3970 ha        1 N2D      0.173000
     71 H64        12.5040   -0.8120    1.8900 ha        1 N2D      0.163000
     72 H75        13.3570    2.2200    3.5390 hx        1 N2D      0.118700
     73 H75A       12.0510    0.9830    3.1960 hx        1 N2D      0.118700
     74 HN77       13.8310    1.2050    5.5610 hn        1 N2D      0.457800
     75 H83         9.0870    1.2750    5.1820 ha        1 N2D      0.156000
     76 H84         7.4750   -0.4040    5.9890 ha        1 N2D      0.173500
     77 H85         8.2340   -2.2740    7.4950 ha        1 N2D      0.163000
     78 H86        10.6370   -2.4440    8.1540 ha        1 N2D      0.173500
     79 H87        12.2790   -0.7760    7.3380 ha        1 N2D      0.156000
     80 H772       13.0330   -0.2170    5.2160 hn        1 N2D      0.457800
@<TRIPOS>BOND
     1    1    2 ar  
     2    1    3 1   
     3    1    8 ar  
     4    2    4 ar  
     5    2   46 1   
     6    4    6 ar  
     7    4   11 1   
     8    5   32 1   
     9    6    7 ar  
    10    6    9 1   
    11    7    8 ar  
    12    7   47 1   
    13    8   48 1   
    14    9   10 1   
    15    9   12 1   
    16   10   11 1   
    17   10   13 2   
    18   11   14 1   
    19   12   49 1   
    20   12   50 1   
    21   12   51 1   
    22   14   15 1   
    23   14   19 1   
    24   14   52 1   
    25   15   16 1   
    26   15   53 1   
    27   15   54 1   
    28   16   17 1   
    29   16   55 1   
    30   16   56 1   
    31   17   18 1   
    32   17   20 1   
    33   18   19 1   
    34   18   57 1   
    35   18   58 1   
    36   19   59 1   
    37   19   60 1   
    38   20   21 1   
    39   20   61 1   
    40   20   62 1   
    41   21   22 1   
    42   21   63 1   
    43   21   64 1   
    44   22   23 1   
    45   22   65 1   
    46   22   66 1   
    47   23   24 1   
    48   23   28 1   
    49   24   25 2   
    50   25   26 1   
    51   25   29 1   
    52   26   27 2   
    53   26   67 1   
    54   27   28 1   
    55   27   68 1   
    56   28   35 2   
    57   29   30 ar  
    58   29   34 ar  
    59   30   31 ar  
    60   30   69 1   
    61   31   32 ar  
    62   31   70 1   
    63   32   33 ar  
    64   33   34 ar  
    65   33   36 1   
    66   34   71 1   
    67   36   37 1   
    68   36   72 1   
    69   36   73 1   
    70   37   38 1   
    71   37   74 1   
    72   37   80 1   
    73   38   39 1   
    74   38   45 2   
    75   39   40 ar  
    76   39   44 ar  
    77   40   41 ar  
    78   40   75 1   
    79   41   42 ar  
    80   41   76 1   
    81   42   43 ar  
    82   42   77 1   
    83   43   44 ar  
    84   43   78 1   
    85   44   79 1   
@<TRIPOS>SUBSTRUCTURE
     1 N2D         1 TEMP              0 ****  ****    0 ROOT
