@<TRIPOS>MOLECULE
N2D
   79    84     1     0     0
SMALL
bcc


@<TRIPOS>ATOM
      1 C1          8.1240   -1.2720    2.0140 ca        1 N2D      0.014400
      2 C2          7.2980   -0.5420    1.1460 ca        1 N2D     -0.120000
      3 CL2         8.8150   -0.4690    3.3460 cl        1 N2D     -0.092400
      4 C3          6.7430   -1.2160    0.0660 ca        1 N2D     -0.002400
      5 CL3        -7.6940   -0.7210   -1.8910 cl        1 N2D     -0.098400
      6 C4          7.0220   -2.6250   -0.1430 ca        1 N2D     -0.002400
      7 C5          7.8430   -3.3200    0.7360 ca        1 N2D     -0.120000
      8 C6          8.3930   -2.6280    1.8190 ca        1 N2D     -0.121000
      9 N13         6.3820   -3.0300   -1.3350 n         1 N2D     -0.342000
     10 C14         5.6060   -1.9110   -1.8030 c         1 N2D      0.774500
     11 N15         5.9340   -0.7560   -1.0040 n         1 N2D     -0.324000
     12 C22         6.0260   -4.3800   -1.6290 c3        1 N2D      0.083300
     13 O24         4.8700   -1.9320   -2.8020 o         1 N2D     -0.610500
     14 C26         5.0310    0.3710   -0.8640 c3        1 N2D      0.112700
     15 C28         4.7950    1.0940   -2.1990 c3        1 N2D     -0.098400
     16 C29         3.9360    2.3330   -1.9690 c3        1 N2D      0.170800
     17 N30         2.6660    2.0510   -1.3100 n3        1 N2D     -0.728600
     18 C31         2.8210    1.2750   -0.0880 c3        1 N2D      0.170800
     19 C32         3.6600    0.0140   -0.2690 c3        1 N2D     -0.098400
     20 C39         1.8890    3.2680   -1.1200 c3        1 N2D      0.173800
     21 C41         0.4750    3.0250   -0.5910 c3        1 N2D     -0.098400
     22 C43        -0.3270    4.3130   -0.7600 c3        1 N2D      0.099000
     23 N45        -1.6510    4.2850   -0.1180 n         1 N2D     -0.188800
     24 N47        -2.5180    3.3820   -0.5420 nc        1 N2D     -0.402300
     25 C48        -3.7280    3.3060    0.0150 cd        1 N2D      0.363200
     26 C49        -4.1390    4.1820    1.1000 cd        1 N2D     -0.161600
     27 C50        -3.2560    5.1030    1.5520 cc        1 N2D     -0.218200
     28 C51        -1.9210    5.2030    0.9490 c         1 N2D      0.661700
     29 C58        -4.6870    2.3010   -0.4700 ca        1 N2D     -0.105900
     30 C60        -6.0210    2.6700   -0.6870 ca        1 N2D     -0.107000
     31 C61        -6.9430    1.7260   -1.1280 ca        1 N2D     -0.128000
     32 C62        -6.5350    0.4070   -1.3560 ca        1 N2D      0.027400
     33 C63        -5.2020    0.0270   -1.1540 ca        1 N2D     -0.111300
     34 C64        -4.2840    0.9830   -0.7060 ca        1 N2D     -0.072000
     35 O71        -1.0540    6.0210    1.3030 o         1 N2D     -0.618500
     36 C75        -4.7220   -1.3740   -1.4290 c3        1 N2D      0.131300
     37 N77        -5.2160   -2.3690   -0.5200 n         1 N2D     -0.558900
     38 C79        -4.4650   -2.8260    0.5500 c         1 N2D      0.669700
     39 C81        -5.1340   -3.7550    1.5060 ca        1 N2D     -0.140600
     40 C83        -4.4020   -4.8460    1.9880 ca        1 N2D     -0.091500
     41 C84        -4.9870   -5.7310    2.8920 ca        1 N2D     -0.138000
     42 C85        -6.2980   -5.5250    3.3220 ca        1 N2D     -0.109000
     43 C86        -7.0240   -4.4300    2.8520 ca        1 N2D     -0.138000
     44 C87        -6.4460   -3.5440    1.9430 ca        1 N2D     -0.091500
     45 O94        -3.2600   -2.5220    0.6700 o         1 N2D     -0.603100
     46 H2          7.1060    0.5270    1.3190 ha        1 N2D      0.157000
     47 H5          8.0620   -4.3870    0.5860 ha        1 N2D      0.147000
     48 H6          9.0470   -3.1670    2.5230 ha        1 N2D      0.151000
     49 H22         5.3260   -4.8080   -0.8600 h1        1 N2D      0.054367
     50 H22A        5.5280   -4.4080   -2.6360 h1        1 N2D      0.054367
     51 H22B        6.9600   -5.0020   -1.6540 h1        1 N2D      0.054367
     52 H26         5.5470    1.0920   -0.1580 h1        1 N2D      0.061700
     53 H28         5.7700    1.4180   -2.6460 hc        1 N2D      0.068700
     54 H28A        4.2950    0.3970   -2.9220 hc        1 N2D      0.068700
     55 H29         4.5430    3.0900   -1.3860 h1        1 N2D      0.034450
     56 H29A        3.7000    2.7880   -2.9730 h1        1 N2D      0.034450
     57 H31         3.2770    1.8950    0.7400 h1        1 N2D      0.034450
     58 H31A        1.7910    0.9630    0.2460 h1        1 N2D      0.034450
     59 H32         3.1340   -0.7060   -0.9500 hc        1 N2D      0.068700
     60 H32A        3.7800   -0.4740    0.7320 hc        1 N2D      0.068700
     61 H39         2.4090    3.9900   -0.4220 h1        1 N2D      0.033200
     62 H39A        1.8130    3.7680   -2.1280 h1        1 N2D      0.033200
     63 H41        -0.0160    2.1880   -1.1530 hc        1 N2D      0.064200
     64 H41A        0.5180    2.7330    0.4900 hc        1 N2D      0.064200
     65 H43         0.2400    5.1750   -0.3050 h1        1 N2D      0.077700
     66 H43A       -0.4710    4.5210   -1.8590 h1        1 N2D      0.077700
     67 H49        -5.1460    4.0630    1.5230 ha        1 N2D      0.154000
     68 H50        -3.4660    5.8040    2.3720 ha        1 N2D      0.170000
     69 H60        -6.3420    3.7090   -0.5170 ha        1 N2D      0.141000
     70 H61        -7.9900    2.0190   -1.3000 ha        1 N2D      0.150000
     71 H64        -3.2360    0.6860   -0.5350 ha        1 N2D      0.163000
     72 H75        -5.0520   -1.6620   -2.4710 h1        1 N2D      0.078200
     73 H75A       -3.5920   -1.3930   -1.4000 h1        1 N2D      0.078200
     74 HN77       -6.1950   -2.5380   -0.5220 hn        1 N2D      0.313500
     75 H83        -3.3610   -4.9870    1.6550 ha        1 N2D      0.144500
     76 H84        -4.4120   -6.5890    3.2680 ha        1 N2D      0.137000
     77 H85        -6.7590   -6.2230    4.0370 ha        1 N2D      0.135000
     78 H86        -8.0540   -4.2630    3.1980 ha        1 N2D      0.137000
     79 H87        -7.0240   -2.6760    1.5920 ha        1 N2D      0.144500
@<TRIPOS>BOND
     1    1    2 ar  
     2    1    3 1   
     3    1    8 ar  
     4    2    4 ar  
     5    2   46 1   
     6    4    6 ar  
     7    4   11 1   
     8    5   32 1   
     9    6    7 ar  
    10    6    9 1   
    11    7    8 ar  
    12    7   47 1   
    13    8   48 1   
    14    9   10 1   
    15    9   12 1   
    16   10   11 1   
    17   10   13 2   
    18   11   14 1   
    19   12   49 1   
    20   12   50 1   
    21   12   51 1   
    22   14   15 1   
    23   14   19 1   
    24   14   52 1   
    25   15   16 1   
    26   15   53 1   
    27   15   54 1   
    28   16   17 1   
    29   16   55 1   
    30   16   56 1   
    31   17   18 1   
    32   17   20 1   
    33   18   19 1   
    34   18   57 1   
    35   18   58 1   
    36   19   59 1   
    37   19   60 1   
    38   20   21 1   
    39   20   61 1   
    40   20   62 1   
    41   21   22 1   
    42   21   63 1   
    43   21   64 1   
    44   22   23 1   
    45   22   65 1   
    46   22   66 1   
    47   23   24 1   
    48   23   28 1   
    49   24   25 2   
    50   25   26 1   
    51   25   29 1   
    52   26   27 2   
    53   26   67 1   
    54   27   28 1   
    55   27   68 1   
    56   28   35 2   
    57   29   30 ar  
    58   29   34 ar  
    59   30   31 ar  
    60   30   69 1   
    61   31   32 ar  
    62   31   70 1   
    63   32   33 ar  
    64   33   34 ar  
    65   33   36 1   
    66   34   71 1   
    67   36   37 1   
    68   36   72 1   
    69   36   73 1   
    70   37   38 1   
    71   37   74 1   
    72   38   39 1   
    73   38   45 2   
    74   39   40 ar  
    75   39   44 ar  
    76   40   41 ar  
    77   40   75 1   
    78   41   42 ar  
    79   41   76 1   
    80   42   43 ar  
    81   42   77 1   
    82   43   44 ar  
    83   43   78 1   
    84   44   79 1   
@<TRIPOS>SUBSTRUCTURE
     1 N2D         1 TEMP              0 ****  ****    0 ROOT
