@<TRIPOS>MOLECULE
N2D
   80    85     1     0     0
SMALL
bcc


@<TRIPOS>ATOM
      1 C1          0.7600    0.3400    1.7500 ca        1 N2D      0.020400
      2 C2          2.0970   -0.0670    1.6180 ca        1 N2D     -0.120000
      3 Cl2        -0.3610   -0.1660    0.5790 cl        1 N2D     -0.074400
      4 C3          2.9970    0.3620    2.5850 ca        1 N2D      0.002600
      5 Cl3        17.2270   -0.0450    4.6220 cl        1 N2D     -0.070400
      6 C4          2.5550    1.1970    3.6840 ca        1 N2D     -0.005400
      7 C5          1.2240    1.5800    3.7910 ca        1 N2D     -0.112000
      8 C6          0.3290    1.1430    2.8090 ca        1 N2D     -0.116000
      9 N13         3.6860    1.5140    4.4730 n         1 N2D     -0.346000
     10 C14         4.8050    0.8140    3.9260 c         1 N2D      0.796500
     11 N15         4.3740    0.0860    2.7720 n         1 N2D     -0.341000
     12 C22         3.6280    1.9800    5.8190 c3        1 N2D      0.092300
     13 O24         5.9640    0.8440    4.3890 o         1 N2D     -0.680500
     14 C26         5.2620   -0.3590    1.7190 c3        1 N2D      0.126700
     15 C28         6.0490    0.7800    1.0510 c3        1 N2D     -0.097400
     16 C29         6.9240    0.2320   -0.0720 c3        1 N2D      0.169300
     17 N30         7.8260   -0.8250    0.3690 n3        1 N2D     -0.741600
     18 C31         7.1230   -1.9020    1.0530 c3        1 N2D      0.169300
     19 C32         6.2620   -1.4150    2.2150 c3        1 N2D     -0.097400
     20 C39         8.6810   -1.3040   -0.7090 c3        1 N2D      0.171800
     21 C41         9.9260   -2.0260   -0.1900 c3        1 N2D     -0.096400
     22 C43        10.9120   -2.2100   -1.3410 c3        1 N2D      0.094000
     23 N45        12.1670   -2.8720   -0.9370 n         1 N2D     -0.180800
     24 N47        12.9120   -2.2630   -0.0420 nc        1 N2D     -0.408300
     25 C48        14.0290   -2.8380    0.4200 cd        1 N2D      0.336200
     26 C49        14.4610   -4.1460   -0.0380 cd        1 N2D     -0.166600
     27 C50        13.7090   -4.7880   -0.9630 cc        1 N2D     -0.202200
     28 C51        12.4790   -4.1700   -1.4770 c         1 N2D      0.661700
     29 C58        14.8190   -2.1210    1.4310 ca        1 N2D     -0.072900
     30 C60        16.2030   -2.3210    1.5290 ca        1 N2D     -0.074000
     31 C61        16.9460   -1.6740    2.5140 ca        1 N2D     -0.108000
     32 C62        16.3160   -0.7990    3.4030 ca        1 N2D      0.029400
     33 C63        14.9390   -0.5510    3.2860 ca        1 N2D     -0.182300
     34 C64        14.1970   -1.2260    2.3130 ca        1 N2D     -0.074000
     35 O71        11.7260   -4.6850   -2.3160 o         1 N2D     -0.582500
     36 C75        14.2540    0.4650    4.1360 c3        1 N2D      0.172100
     37 N77        13.9720   -0.0640    5.5100 ny        1 N2D     -0.679800
     38 C79        13.1210    0.9030    6.3140 c         1 N2D      0.574700
     39 C81        11.6950    0.9690    6.0230 ca        1 N2D     -0.213600
     40 C83        10.9500    1.8980    6.7760 ca        1 N2D     -0.067000
     41 C84         9.5800    2.0300    6.5620 ca        1 N2D     -0.129000
     42 C85         8.9400    1.2450    5.6030 ca        1 N2D     -0.038000
     43 C86         9.6780    0.3190    4.8550 ca        1 N2D     -0.129000
     44 C87        11.0450    0.1760    5.0600 ca        1 N2D     -0.067000
     45 O94        13.7580    1.5320    7.1520 o         1 N2D     -0.439100
     46 H2          2.4090   -0.7040    0.7780 ha        1 N2D      0.158000
     47 H5          0.8760    2.2110    4.6220 ha        1 N2D      0.152000
     48 H6         -0.7300    1.4380    2.8810 ha        1 N2D      0.159000
     49 H22         3.1760    1.2110    6.5040 h1        1 N2D      0.055033
     50 H22A        3.0020    2.9110    5.8540 h1        1 N2D      0.055033
     51 H22B        4.6710    2.2130    6.1650 h1        1 N2D      0.055033
     52 H26         4.6020   -0.8410    0.9340 h1        1 N2D      0.068700
     53 H28         6.6820    1.2970    1.8190 hc        1 N2D      0.064950
     54 H28A        5.3480    1.5350    0.6120 hc        1 N2D      0.064950
     55 H29         7.5550    1.0760   -0.4710 h1        1 N2D      0.037700
     56 H29A        6.2550   -0.1200   -0.9120 h1        1 N2D      0.037700
     57 H31         6.4700   -2.4890    0.3400 h1        1 N2D      0.037700
     58 H31A        7.8990   -2.6100    1.4610 h1        1 N2D      0.037700
     59 H32         6.9050   -0.9740    3.0220 hc        1 N2D      0.064950
     60 H32A        5.7190   -2.2960    2.6450 hc        1 N2D      0.064950
     61 H39         9.0130   -0.4100   -1.3110 h1        1 N2D      0.041700
     62 H39A        8.1290   -1.9970   -1.4090 h1        1 N2D      0.041700
     63 H41        10.3950   -1.4280    0.6340 hc        1 N2D      0.055200
     64 H41A        9.6420   -3.0250    0.2320 hc        1 N2D      0.055200
     65 H43        10.4470   -2.8500   -2.1450 h1        1 N2D      0.086200
     66 H43A       11.1690   -1.2070   -1.7860 h1        1 N2D      0.086200
     67 H49        15.3750   -4.5910    0.3810 ha        1 N2D      0.155000
     68 H50        13.9510   -5.7810   -1.3690 ha        1 N2D      0.183000
     69 H60        16.7210   -2.9870    0.8180 ha        1 N2D      0.164000
     70 H61        18.0320   -1.8490    2.5870 ha        1 N2D      0.174000
     71 H64        13.1140   -1.0320    2.2310 ha        1 N2D      0.156000
     72 H75        14.8940    1.3890    4.2530 hx        1 N2D      0.118200
     73 H75A       13.2680    0.7700    3.6760 hx        1 N2D      0.118200
     74 HN77       13.4920   -0.9660    5.4380 hn        1 N2D      0.458800
     75 H83        11.4580    2.5190    7.5350 ha        1 N2D      0.145000
     76 H84         9.0040    2.7590    7.1550 ha        1 N2D      0.170000
     77 H85         7.8510    1.3460    5.4260 ha        1 N2D      0.201000
     78 H86         9.1630   -0.2960    4.0970 ha        1 N2D      0.170000
     79 H87        11.5870   -0.5640    4.4540 ha        1 N2D      0.145000
     80 H772       14.8680   -0.2090    5.9970 hn        1 N2D      0.458800
@<TRIPOS>BOND
     1    1    2 ar  
     2    1    3 1   
     3    1    8 ar  
     4    2    4 ar  
     5    2   46 1   
     6    4    6 ar  
     7    4   11 1   
     8    5   32 1   
     9    6    7 ar  
    10    6    9 1   
    11    7    8 ar  
    12    7   47 1   
    13    8   48 1   
    14    9   10 1   
    15    9   12 1   
    16   10   11 1   
    17   10   13 2   
    18   11   14 1   
    19   12   49 1   
    20   12   50 1   
    21   12   51 1   
    22   14   15 1   
    23   14   19 1   
    24   14   52 1   
    25   15   16 1   
    26   15   53 1   
    27   15   54 1   
    28   16   17 1   
    29   16   55 1   
    30   16   56 1   
    31   17   18 1   
    32   17   20 1   
    33   18   19 1   
    34   18   57 1   
    35   18   58 1   
    36   19   59 1   
    37   19   60 1   
    38   20   21 1   
    39   20   61 1   
    40   20   62 1   
    41   21   22 1   
    42   21   63 1   
    43   21   64 1   
    44   22   23 1   
    45   22   65 1   
    46   22   66 1   
    47   23   24 1   
    48   23   28 1   
    49   24   25 2   
    50   25   26 1   
    51   25   29 1   
    52   26   27 2   
    53   26   67 1   
    54   27   28 1   
    55   27   68 1   
    56   28   35 2   
    57   29   30 ar  
    58   29   34 ar  
    59   30   31 ar  
    60   30   69 1   
    61   31   32 ar  
    62   31   70 1   
    63   32   33 ar  
    64   33   34 ar  
    65   33   36 1   
    66   34   71 1   
    67   36   37 1   
    68   36   72 1   
    69   36   73 1   
    70   37   38 1   
    71   37   74 1   
    72   37   80 1   
    73   38   39 1   
    74   38   45 2   
    75   39   40 ar  
    76   39   44 ar  
    77   40   41 ar  
    78   40   75 1   
    79   41   42 ar  
    80   41   76 1   
    81   42   43 ar  
    82   42   77 1   
    83   43   44 ar  
    84   43   78 1   
    85   44   79 1   
@<TRIPOS>SUBSTRUCTURE
     1 N2D         1 TEMP              0 ****  ****    0 ROOT
