@<TRIPOS>MOLECULE
N2D
   79    75     1     0     0
SMALL
bcc


@<TRIPOS>ATOM
      1 C1         -9.9660    2.9710   -0.0500 c1        1 N2D     -0.064000
      2 C2         -8.5920    2.9320    0.2090 c1        1 N2D     -0.121000
      3 CL2       -10.0880    4.0450   -1.4040 cl        1 N2D     -0.014000
      4 C3         -8.1050    2.2050    1.3150 c1        1 N2D      0.006000
      5 CL3         5.5630   -2.5680   -5.7460 cl        1 N2D     -0.021000
      6 C4         -8.9920    1.5270    2.1450 c1        1 N2D      0.005000
      7 C5        -10.3690    1.5670    1.8840 c1        1 N2D     -0.121000
      8 C6        -10.8530    2.2890    0.7870 c1        1 N2D     -0.121000
      9 N13        -8.2350    0.9510    3.2360 n         1 N2D     -0.246000
     10 C14        -6.8730    1.2930    3.0500 c2        1 N2D      0.366000
     11 N15        -6.7670    2.0120    1.8360 n         1 N2D     -0.229000
     12 C22        -8.7950    0.2210    4.3780 c3        1 N2D     -0.071000
     13 O24        -5.9440    1.0630    3.8490 o         1 N2D     -0.335000
     14 C26        -5.5180    2.5680    1.2540 c3        1 N2D      0.038000
     15 C28        -4.9040    3.5040    2.2350 c3        1 N2D     -0.177500
     16 C29        -3.5230    3.9860    1.7920 c3        1 N2D     -0.064500
     17 N30        -2.6280    2.8730    1.4330 n3        1 N2D     -0.254000
     18 C31        -3.2330    1.9380    0.4600 c3        1 N2D     -0.064500
     19 C32        -4.6130    1.4520    0.8980 c3        1 N2D     -0.177500
     20 C39        -1.3690    3.4000    0.8960 c3        1 N2D     -0.062000
     21 C41        -0.2290    2.4810    1.2900 c3        1 N2D     -0.178000
     22 C43         0.9670    2.7150    0.3480 c3        1 N2D     -0.016000
     23 N45         1.8690    1.6230    0.4480 n3        1 N2D     -0.218000
     24 N47         2.3000    0.9240   -0.7660 n2        1 N2D      0.009000
     25 C48         3.3070   -0.1140   -0.6910 c1        1 N2D     -0.093000
     26 C49         3.9260   -0.4620    0.6270 c1        1 N2D     -0.129500
     27 C50         3.4880    0.2200    1.8370 c1        1 N2D     -0.129500
     28 C51         2.4700    1.2790    1.7530 c1        1 N2D      0.300000
     29 C58         3.8670   -0.7410   -1.9970 c2        1 N2D     -0.022000
     30 C60         4.3150    0.0820   -3.0260 c2        1 N2D     -0.089000
     31 C61         4.9220   -0.4690   -4.1380 c1        1 N2D     -0.130000
     32 C62         5.0860   -1.8550   -4.2300 c1        1 N2D     -0.051000
     33 C63         4.6390   -2.6740   -3.2020 c1        1 N2D     -0.106000
     34 C64         4.0310   -2.1200   -2.0890 c1        1 N2D     -0.090000
     35 O71         2.0980    1.8580    2.7760 o         1 N2D     -0.340000
     36 C75         4.9800   -4.1690   -3.2170 c3        1 N2D      0.008000
     37 N77         6.4550   -4.3420   -3.3270 n         1 N2D     -0.365000
     38 C79         7.1090   -5.4440   -2.6410 c2        1 N2D      0.342000
     39 C81         8.5820   -5.3290   -2.2320 c2        1 N2D     -0.121000
     40 C83         9.2270   -6.4220   -1.6600 c2        1 N2D     -0.077000
     41 C84        10.5140   -6.2830   -1.1500 c1        1 N2D     -0.137000
     42 C85        11.1590   -5.0490   -1.2110 c1        1 N2D     -0.129500
     43 C86        10.5190   -3.9600   -1.7790 c1        1 N2D     -0.129500
     44 C87         9.2260   -4.0980   -2.2920 c1        1 N2D     -0.105000
     45 O94         6.5220   -6.4700   -2.4670 o         1 N2D     -0.368000
     46 H2         -7.9630    3.3420   -0.4240 ha        1 N2D      0.156000
     47 H5        -10.9850    1.0940    2.4630 ha        1 N2D      0.148000
     48 H6        -11.8150    2.3180    0.6070 ha        1 N2D      0.151000
     49 H22        -9.1080   -0.6390    4.0860 h1        1 N2D      0.093667
     50 H22A       -9.5650    0.7450    4.7670 h1        1 N2D      0.093667
     51 H22B       -8.1250    0.1030    5.0390 h1        1 N2D      0.093667
     52 H26        -5.7410    3.0670    0.4380 h1        1 N2D      0.100000
     53 H28        -5.5100    4.3030    2.3460 hc        1 N2D      0.108000
     54 H28A       -4.8150    3.0360    3.1200 hc        1 N2D      0.108000
     55 H29        -3.6260    4.5750    1.0170 h1        1 N2D      0.073000
     56 H29A       -3.1280    4.4790    2.5030 h1        1 N2D      0.073000
     57 H31        -3.3170    2.3910   -0.4070 h1        1 N2D      0.073000
     58 H31A       -2.6480    1.1680    0.3580 h1        1 N2D      0.073000
     59 H32        -4.5090    0.8620    1.6850 hc        1 N2D      0.108000
     60 H32A       -5.0240    0.9260    0.1500 hc        1 N2D      0.108000
     61 H39        -1.4230    3.4460   -0.0310 h1        1 N2D      0.072500
     62 H39A       -1.2000    4.3360    1.2760 h1        1 N2D      0.072500
     63 H41        -0.5410    1.4890    1.2160 hc        1 N2D      0.104000
     64 H41A        0.0370    2.6680    2.1990 hc        1 N2D      0.104000
     65 H43         0.6340    2.7890   -0.6080 h1        1 N2D      0.115500
     66 H43A        1.4160    3.5240    0.5940 h1        1 N2D      0.115500
     67 H49         4.6200   -1.1800    0.6800 ha        1 N2D      0.152000
     68 H50         3.8930   -0.0100    2.7120 ha        1 N2D      0.152000
     69 H60         4.2030    1.0270   -2.9630 ha        1 N2D      0.151000
     70 H61         5.2450    0.1250   -4.8790 ha        1 N2D      0.151000
     71 H64         3.7170   -2.6970   -1.3690 ha        1 N2D      0.154000
     72 H75         4.6720   -4.5750   -2.4060 h1        1 N2D      0.116000
     73 H75A        4.5410   -4.5960   -3.9810 h1        1 N2D      0.116000
     74 HN77        6.9420   -3.7970   -3.8930 hn        1 N2D      0.227000
     75 H83         8.7810   -7.2800   -1.6200 ha        1 N2D      0.155000
     76 H84        10.9800   -7.0770   -0.7340 ha        1 N2D      0.139000
     77 H85        12.0810   -4.9490   -0.8450 ha        1 N2D      0.152000
     78 H86        10.9670   -3.1040   -1.8220 ha        1 N2D      0.152000
     79 H87         8.7710   -3.3210   -2.6970 ha        1 N2D      0.134000
@<TRIPOS>BOND
     1    1    3 1   
     2    1    8 1   
     3    2    4 1   
     4    2   46 1   
     5    4   11 1   
     6    5   32 1   
     7    6    7 1   
     8    6    9 1   
     9    7   47 1   
    10    8   48 1   
    11    9   10 1   
    12    9   12 1   
    13   10   11 1   
    14   10   13 1   
    15   11   14 1   
    16   12   49 1   
    17   12   50 1   
    18   12   51 1   
    19   14   15 1   
    20   14   19 1   
    21   14   52 1   
    22   15   16 1   
    23   15   53 1   
    24   15   54 1   
    25   16   17 1   
    26   16   55 1   
    27   16   56 1   
    28   17   18 1   
    29   17   20 1   
    30   18   19 1   
    31   18   57 1   
    32   18   58 1   
    33   19   59 1   
    34   19   60 1   
    35   20   21 1   
    36   20   61 1   
    37   20   62 1   
    38   21   22 1   
    39   21   63 1   
    40   21   64 1   
    41   22   23 1   
    42   22   65 1   
    43   22   66 1   
    44   23   24 1   
    45   23   28 1   
    46   24   25 1   
    47   25   29 1   
    48   26   27 1   
    49   26   67 1   
    50   27   68 1   
    51   28   35 1   
    52   29   30 1   
    53   29   34 1   
    54   30   31 1   
    55   30   69 1   
    56   31   70 1   
    57   32   33 1   
    58   33   36 1   
    59   34   71 1   
    60   36   37 1   
    61   36   72 1   
    62   36   73 1   
    63   37   38 1   
    64   37   74 1   
    65   38   39 1   
    66   38   45 1   
    67   39   40 1   
    68   39   44 1   
    69   40   41 1   
    70   40   75 1   
    71   41   76 1   
    72   42   43 1   
    73   42   77 1   
    74   43   78 1   
    75   44   79 1   
@<TRIPOS>SUBSTRUCTURE
     1 N2D         1 TEMP              0 ****  ****    0 ROOT
