@<TRIPOS>MOLECULE
N2D
   80    85     1     0     0
SMALL
bcc


@<TRIPOS>ATOM
      1 C1          0.8210    0.3410    2.0660 ca        1 N2D      0.019400
      2 C2          2.1360   -0.1200    1.9080 ca        1 N2D     -0.119000
      3 CL2        -0.3730   -0.2290    1.0010 cl        1 N2D     -0.073400
      4 C3          3.0970    0.3610    2.7890 ca        1 N2D     -0.002400
      5 CL3        17.0180    0.7630    4.3920 cl        1 N2D     -0.076400
      6 C4          2.7340    1.3010    3.8310 ca        1 N2D     -0.007400
      7 C5          1.4220    1.7400    3.9630 ca        1 N2D     -0.111000
      8 C6          0.4680    1.2500    3.0680 ca        1 N2D     -0.115000
      9 N13         3.8910    1.5730    4.5970 n         1 N2D     -0.340000
     10 C14         4.9870    0.8940    3.9770 c         1 N2D      0.790500
     11 N15         4.4750    0.0600    2.9280 n         1 N2D     -0.333000
     12 C22         4.0510    2.7100    5.4430 c3        1 N2D      0.088300
     13 O24         6.1710    0.9460    4.3670 o         1 N2D     -0.680500
     14 C26         5.2920   -0.4580    1.8500 c3        1 N2D      0.121700
     15 C28         6.0390    0.6280    1.0590 c3        1 N2D     -0.096900
     16 C29         6.8520    0.0010   -0.0710 c3        1 N2D      0.172300
     17 N30         7.7800   -1.0180    0.4010 n3        1 N2D     -0.744600
     18 C31         7.1150   -2.0510    1.1810 c3        1 N2D      0.172300
     19 C32         6.3140   -1.4910    2.3540 c3        1 N2D     -0.096900
     20 C39         8.6170   -1.5560   -0.6620 c3        1 N2D      0.175800
     21 C41         9.9200   -2.1520   -0.1240 c3        1 N2D     -0.096400
     22 C43        10.8820   -2.3880   -1.2850 c3        1 N2D      0.095000
     23 N45        12.1960   -2.9080   -0.8650 n         1 N2D     -0.180800
     24 N47        12.8940   -2.1800   -0.0230 nc        1 N2D     -0.406300
     25 C48        14.0700   -2.6170    0.4450 cd        1 N2D      0.335200
     26 C49        14.6250   -3.8970    0.0440 cd        1 N2D     -0.166600
     27 C50        13.9230   -4.6590   -0.8270 cc        1 N2D     -0.202200
     28 C51        12.6270   -4.1970   -1.3430 c         1 N2D      0.661700
     29 C58        14.7970   -1.7710    1.4010 ca        1 N2D     -0.073900
     30 C60        16.1970   -1.7980    1.4630 ca        1 N2D     -0.075000
     31 C61        16.8810   -1.0130    2.3900 ca        1 N2D     -0.108000
     32 C62        16.1730   -0.1740    3.2530 ca        1 N2D      0.026400
     33 C63        14.7730   -0.1080    3.1790 ca        1 N2D     -0.180300
     34 C64        14.0930   -0.9190    2.2650 ca        1 N2D     -0.070000
     35 O71        11.9130   -4.8300   -2.1340 o         1 N2D     -0.582500
     36 C75        13.9870    0.8600    3.9960 c3        1 N2D      0.175100
     37 N77        13.9210    0.4580    5.4400 n4        1 N2D     -0.684800
     38 C79        12.7960    1.2000    6.1510 c         1 N2D      0.578700
     39 C81        11.4480    0.6970    5.8960 ca        1 N2D     -0.214600
     40 C83        10.4240    1.6420    5.7120 ca        1 N2D     -0.076500
     41 C84         9.1250    1.2080    5.4580 ca        1 N2D     -0.121500
     42 C85         8.8380   -0.1580    5.4110 ca        1 N2D     -0.042000
     43 C86         9.8510   -1.0960    5.6280 ca        1 N2D     -0.121500
     44 C87        11.1560   -0.6760    5.8680 ca        1 N2D     -0.076500
     45 O94        13.1620    2.1520    6.8220 o         1 N2D     -0.417100
     46 H2          2.3870   -0.8410    1.1160 ha        1 N2D      0.158000
     47 H5          1.1350    2.4500    4.7520 ha        1 N2D      0.153000
     48 H6         -0.5770    1.5870    3.1610 ha        1 N2D      0.159000
     49 H22         5.0340    2.6270    5.9780 h1        1 N2D      0.055700
     50 H22A        4.0290    3.6700    4.8570 h1        1 N2D      0.055700
     51 H22B        3.2140    2.7240    6.1920 h1        1 N2D      0.055700
     52 H26         4.5820   -0.9860    1.1420 h1        1 N2D      0.069700
     53 H28         6.7130    1.1970    1.7510 hc        1 N2D      0.063450
     54 H28A        5.3120    1.3500    0.6060 hc        1 N2D      0.063450
     55 H29         6.1390   -0.4140   -0.8430 h1        1 N2D      0.037450
     56 H29A        7.4550    0.8150   -0.5650 h1        1 N2D      0.037450
     57 H31         7.9100   -2.7360    1.5900 h1        1 N2D      0.037450
     58 H31A        6.4260   -2.6760    0.5390 h1        1 N2D      0.037450
     59 H32         5.7890   -2.3400    2.8610 hc        1 N2D      0.063450
     60 H32A        6.9990   -1.0060    3.0990 hc        1 N2D      0.063450
     61 H39         8.0780   -2.3470   -1.2630 h1        1 N2D      0.041200
     62 H39A        8.8730   -0.7150   -1.3670 h1        1 N2D      0.041200
     63 H41        10.3730   -1.4510    0.6240 hc        1 N2D      0.056700
     64 H41A        9.7100   -3.1210    0.4010 hc        1 N2D      0.056700
     65 H43        11.0480   -1.4230   -1.8440 h1        1 N2D      0.085700
     66 H43A       10.4420   -3.1430   -1.9990 h1        1 N2D      0.085700
     67 H49        15.5880   -4.2220    0.4620 ha        1 N2D      0.155000
     68 H50        14.2570   -5.6440   -1.1880 ha        1 N2D      0.182000
     69 H60        16.7720   -2.4340    0.7680 ha        1 N2D      0.164000
     70 H61        17.9830   -1.0490    2.4330 ha        1 N2D      0.174000
     71 H64        12.9920   -0.8690    2.2140 ha        1 N2D      0.161000
     72 H75        12.9260    0.9280    3.6110 hx        1 N2D      0.117200
     73 H75A       14.4530    1.8890    3.9520 hx        1 N2D      0.117200
     74 HN77       13.7580   -0.5520    5.5010 hn        1 N2D      0.457300
     75 H83        10.6510    2.7200    5.7690 ha        1 N2D      0.144000
     76 H84         8.3100    1.9340    5.2870 ha        1 N2D      0.172500
     77 H85         7.8010   -0.4820    5.1990 ha        1 N2D      0.189000
     78 H86         9.6170   -2.1720    5.6140 ha        1 N2D      0.172500
     79 H87        11.9300   -1.4310    6.0670 ha        1 N2D      0.144000
     80 H772       14.8210    0.6730    5.8890 hn        1 N2D      0.457300
@<TRIPOS>BOND
     1    1    2 ar  
     2    1    3 1   
     3    1    8 ar  
     4    2    4 ar  
     5    2   46 1   
     6    4    6 ar  
     7    4   11 1   
     8    5   32 1   
     9    6    7 ar  
    10    6    9 1   
    11    7    8 ar  
    12    7   47 1   
    13    8   48 1   
    14    9   10 1   
    15    9   12 1   
    16   10   11 1   
    17   10   13 2   
    18   11   14 1   
    19   12   49 1   
    20   12   50 1   
    21   12   51 1   
    22   14   15 1   
    23   14   19 1   
    24   14   52 1   
    25   15   16 1   
    26   15   53 1   
    27   15   54 1   
    28   16   17 1   
    29   16   55 1   
    30   16   56 1   
    31   17   18 1   
    32   17   20 1   
    33   18   19 1   
    34   18   57 1   
    35   18   58 1   
    36   19   59 1   
    37   19   60 1   
    38   20   21 1   
    39   20   61 1   
    40   20   62 1   
    41   21   22 1   
    42   21   63 1   
    43   21   64 1   
    44   22   23 1   
    45   22   65 1   
    46   22   66 1   
    47   23   24 1   
    48   23   28 1   
    49   24   25 2   
    50   25   26 1   
    51   25   29 1   
    52   26   27 2   
    53   26   67 1   
    54   27   28 1   
    55   27   68 1   
    56   28   35 2   
    57   29   30 ar  
    58   29   34 ar  
    59   30   31 ar  
    60   30   69 1   
    61   31   32 ar  
    62   31   70 1   
    63   32   33 ar  
    64   33   34 ar  
    65   33   36 1   
    66   34   71 1   
    67   36   37 1   
    68   36   72 1   
    69   36   73 1   
    70   37   38 1   
    71   37   74 1   
    72   37   80 1   
    73   38   39 1   
    74   38   45 2   
    75   39   40 ar  
    76   39   44 ar  
    77   40   41 ar  
    78   40   75 1   
    79   41   42 ar  
    80   41   76 1   
    81   42   43 ar  
    82   42   77 1   
    83   43   44 ar  
    84   43   78 1   
    85   44   79 1   
@<TRIPOS>SUBSTRUCTURE
     1 N2D         1 TEMP              0 ****  ****    0 ROOT
