@<TRIPOS>MOLECULE
N2F
   27    25     1     0     0
SMALL
bcc


@<TRIPOS>ATOM
      1 O1         -0.1070    0.9920    0.9460 os        1 N2F      0.203000
      2 C2          1.0480    0.5980    0.3980 c2        1 N2F     -0.093000
      3 C3          1.4880   -0.7200    0.3540 c1        1 N2F     -0.160000
      4 C4          1.8810   -1.8520    0.3030 c1        1 N2F     -0.084000
      5 C5         -0.9130    0.1270    1.5230 c2        1 N2F     -0.829000
      6 O3          1.3750    2.8360   -0.0450 o         1 N2F     -0.460700
      7 O2          2.8510    1.4850   -0.7220 o         1 N2F     -0.460700
      8 N           1.8160    1.7280   -0.1680 no        1 N2F      0.864400
      9 H3          2.2260   -2.8560    0.2580 ha        1 N2F      0.242000
     10 H4         -0.6360   -0.9390    1.5600 h5        1 N2F      0.196000
     11 S1         -2.4040    0.6270    2.1890 s6        1 N2F      2.912000
     12 O4         -3.0860    1.4130    1.2490 o         1 N2F     -0.924000
     13 O5         -3.0280   -0.5480    2.6120 o         1 N2F     -0.924000
     14 C1         -1.8840    1.5580    3.4380 c2        1 N2F     -0.929000
     15 C6         -3.1130    3.8200    1.6330 c1        1 N2F      0.145000
     16 C7         -3.8060    4.0910    0.5500 c2        1 N2F     -0.413000
     17 C8         -4.2380    5.3740    0.0450 c2        1 N2F     -0.083000
     18 C9         -0.9270    0.9140    5.7660 c2        1 N2F     -0.209000
     19 C10        -1.4030    1.2210    4.6010 c1        1 N2F      0.075000
     20 C11        -4.9590    5.5230   -1.0680 c2        1 N2F     -0.220000
     21 H5         -2.0080    2.6620    3.2470 h4        1 N2F      0.251000
     22 H6         -4.0890    3.1900   -0.0500 ha        1 N2F      0.214000
     23 H7         -3.9320    6.2510    0.6410 ha        1 N2F      0.121000
     24 H8         -1.5810    0.7300    6.6330 ha        1 N2F      0.167000
     25 H9         -5.2810    4.6770   -1.6890 ha        1 N2F      0.114500
     26 H10        -5.2710    6.5120   -1.4280 ha        1 N2F      0.114500
     27 H11         0.1530    0.8160    5.9530 ha        1 N2F      0.167000
@<TRIPOS>BOND
     1    1    2 1   
     2    1    5 1   
     3    2    3 1   
     4    2    8 1   
     5    3    4 1   
     6    4    9 1   
     7    5   10 1   
     8    5   11 1   
     9    6    8 2   
    10    7    8 2   
    11   11   12 1   
    12   11   13 1   
    13   11   14 1   
    14   14   19 1   
    15   14   21 1   
    16   15   16 1   
    17   16   17 1   
    18   16   22 1   
    19   17   20 1   
    20   17   23 1   
    21   18   19 1   
    22   18   24 1   
    23   18   27 1   
    24   20   25 1   
    25   20   26 1   
@<TRIPOS>SUBSTRUCTURE
     1 N2F         1 TEMP              0 ****  ****    0 ROOT
