@<TRIPOS>MOLECULE
N2G
   54    58     1     0     0
SMALL
bcc


@<TRIPOS>ATOM
      1 P          -7.0340   -0.8300    1.3980 p5        1 N2G      1.331900
      2 O1P        -8.3640   -1.4070    1.0260 o         1 N2G     -0.930167
      3 O2P        -6.9950    0.5210    2.0510 o         1 N2G     -0.930167
      4 O3P        -5.9860   -1.7960    1.9160 o         1 N2G     -0.930167
      5 O5'        -6.2900   -0.4840   -0.1470 os        1 N2G     -0.553200
      6 CAZ         6.0700   -1.0740    0.0740 ca        1 N2G     -0.018000
      7 CAK         5.7700   -0.7410    1.4260 ca        1 N2G     -0.098000
      8 CAF         6.7170   -0.8830    2.4110 ca        1 N2G     -0.136000
      9 CAE         8.0100   -1.3640    2.1010 ca        1 N2G     -0.126000
     10 CAI         8.3300   -1.6950    0.8080 ca        1 N2G     -0.130000
     11 CAY         7.3700   -1.5590   -0.2320 ca        1 N2G     -0.041000
     12 CAJ         7.6940   -1.9020   -1.5730 ca        1 N2G     -0.122000
     13 CAG         6.7590   -1.7680   -2.5690 ca        1 N2G     -0.131000
     14 CAH         5.4650   -1.2840   -2.2700 ca        1 N2G     -0.126000
     15 CAV         5.1170   -0.9440   -0.9800 ca        1 N2G     -0.074300
     16 CAM         3.7150   -0.4700   -0.7050 c3        1 N2G      0.219100
     17 C2          2.3680    1.5370   -0.2360 cc        1 N2G      0.613800
     18 N1          2.3690    2.9130    0.0900 n         1 N2G     -0.507400
     19 C6          1.1830    3.6240    0.4130 c         1 N2G      0.648000
     20 O6          1.3150    4.8260    0.7050 o         1 N2G     -0.641500
     21 N3          1.2650    0.7790   -0.3240 nd        1 N2G     -0.624100
     22 C4          0.0790    1.4330   -0.0190 cd        1 N2G      0.053800
     23 C5         -0.0220    2.8300    0.3410 cc        1 N2G      0.192800
     24 N7         -1.3530    3.1700    0.5740 nc        1 N2G     -0.630000
     25 C8         -2.0450    2.0260    0.3660 cd        1 N2G      0.451400
     26 N9         -1.2240    0.9370    0.0090 na        1 N2G     -0.182900
     27 CBE        -1.6410   -0.4250   -0.3440 c3        1 N2G      0.251800
     28 OAU        -2.8620   -0.3710   -1.0560 os        1 N2G     -0.433600
     29 CAO        -1.8250   -1.3570    0.8710 c3        1 N2G     -0.129400
     30 CBC        -3.3430   -1.5470    1.0050 c3        1 N2G      0.158100
     31 CBD        -3.9460   -0.9630   -0.2880 c3        1 N2G      0.053100
     32 CAN        -5.0550    0.0890   -0.0430 c3        1 N2G      0.229400
     33 O3'        -3.6130   -2.9260    1.1160 oh        1 N2G     -0.673800
     34 HAN1       -4.9330    0.8830   -0.8400 h1        1 N2G     -0.003800
     35 HAN2       -4.9120    0.5660    0.9700 h1        1 N2G     -0.003800
     36 HAE         8.7500   -1.4700    2.9080 ha        1 N2G      0.125000
     37 HAI         9.3310   -2.0730    0.5530 ha        1 N2G      0.123000
     38 HAJ         8.7040   -2.2770   -1.7920 ha        1 N2G      0.125000
     39 HAG         7.0010   -2.0340   -3.6080 ha        1 N2G      0.128000
     40 HAH         4.7330   -1.1900   -3.0880 ha        1 N2G      0.138000
     41 HAM1        3.0610   -0.7540   -1.5830 h1        1 N2G      0.070700
     42 HAM2        3.3040   -1.0090    0.1980 h1        1 N2G      0.070700
     43 H1          3.2330    3.3950    0.1930 hn        1 N2G      0.320500
     44 H8         -3.1410    1.8970    0.4480 h5        1 N2G      0.118100
     45 HBE        -0.8620   -0.8140   -1.0640 h2        1 N2G      0.065700
     46 HAO1       -1.3290   -2.3350    0.6540 hc        1 N2G      0.053700
     47 HAO2       -1.3890   -0.9420    1.8090 hc        1 N2G      0.053700
     48 HBD        -4.3480   -1.7840   -0.9410 h1        1 N2G      0.082700
     49 HBC        -3.7490   -1.0130    1.9090 h1        1 N2G      0.106700
     50 H3'        -4.5530   -2.9810    1.4100 ho        1 N2G      0.502000
     51 HAK         4.7660   -0.3620    1.6750 ha        1 N2G      0.159000
     52 N2          3.6720    0.9560   -0.4320 nh        1 N2G     -0.785200
     53 HAF         6.4770   -0.6250    3.4530 ha        1 N2G      0.134000
     54 H2          4.2000    1.4770   -1.1070 hn        1 N2G      0.385800
@<TRIPOS>BOND
     1    1    2 1   
     2    1    3 1   
     3    1    4 1   
     4    1    5 1   
     5    5   32 1   
     6    6    7 ar  
     7    6   11 ar  
     8    6   15 ar  
     9    7    8 ar  
    10    7   51 1   
    11    8    9 ar  
    12    8   53 1   
    13    9   10 ar  
    14    9   36 1   
    15   10   11 ar  
    16   10   37 1   
    17   11   12 ar  
    18   12   13 ar  
    19   12   38 1   
    20   13   14 ar  
    21   13   39 1   
    22   14   15 ar  
    23   14   40 1   
    24   15   16 1   
    25   16   41 1   
    26   16   42 1   
    27   16   52 1   
    28   17   18 1   
    29   17   21 2   
    30   17   52 1   
    31   18   19 1   
    32   18   43 1   
    33   19   20 2   
    34   19   23 1   
    35   21   22 1   
    36   22   23 2   
    37   22   26 1   
    38   23   24 1   
    39   24   25 2   
    40   25   26 1   
    41   25   44 1   
    42   26   27 1   
    43   27   28 1   
    44   27   29 1   
    45   27   45 1   
    46   28   31 1   
    47   29   30 1   
    48   29   46 1   
    49   29   47 1   
    50   30   31 1   
    51   30   33 1   
    52   30   49 1   
    53   31   32 1   
    54   31   48 1   
    55   32   34 1   
    56   32   35 1   
    57   33   50 1   
    58   52   54 1   
@<TRIPOS>SUBSTRUCTURE
     1 N2G         1 TEMP              0 ****  ****    0 ROOT
