@<TRIPOS>MOLECULE
N2G
   55    72     1     0     0
SMALL
bcc


@<TRIPOS>ATOM
      1 P           0.0000    0.0000    0.0000 p5        1 N2G      1.113500
      2 O1P         1.6100    0.0000    0.0000 o         1 N2G     -0.325833
      3 O2P        -0.5370    0.0000    1.5180 o         1 N2G     -0.325833
      4 O3P        -0.4930   -1.2090   -0.6980 o         1 N2G     -0.325833
      5 O5'        -0.5360    1.3140   -0.7600 os        1 N2G     -0.635000
      6 CAZ        -4.8120   10.7040   -5.9820 c2        1 N2G     -0.081000
      7 CAK        -5.8960    9.8250   -6.1490 c3        1 N2G     -0.342000
      8 CAF        -7.1280   10.3230   -6.4440 c2        1 N2G     -0.305000
      9 CAE        -7.3320   11.6950   -6.5850 c2        1 N2G     -0.007000
     10 CAI        -6.3050   12.5750   -6.4310 c2        1 N2G     -0.370000
     11 CAY        -5.0200   12.0990   -6.1250 DU        1 N2G     -0.090000
     12 CAJ        -3.9360   12.9770   -5.9580 c3        1 N2G     -0.363000
     13 CAG        -2.7040   12.4780   -5.6620 c3        1 N2G     -0.159000
     14 CAH        -2.5000   11.1070   -5.5220 c2        1 N2G     -0.487000
     15 CAV        -3.5260   10.2260   -5.6710 c1        1 N2G      0.007000
     16 CAM        -2.5080    8.6030   -6.1150 c2        1 N2G     -0.705000
     17 C2         -2.1870    6.5440   -7.4180 c3        1 N2G      0.319000
     18 N1         -2.0350    5.9170   -8.6180 ns        1 N2G     -0.413000
     19 C6         -1.8800    4.5750   -8.6730 c2        1 N2G      0.384000
     20 O6         -1.7430    4.0050   -9.7420 o         1 N2G     -0.409000
     21 N3         -2.1840    5.8820   -6.2830 n2        1 N2G     -0.221000
     22 C4         -2.0360    4.5510   -6.2580 c2        1 N2G     -0.084000
     23 C5         -1.8810    3.8490   -7.4590 c3        1 N2G     -0.380000
     24 N7         -1.7540    2.5370   -7.1440 n7        1 N2G      0.012000
     25 C8         -1.8270    2.3950   -5.8520 c2        1 N2G     -0.356000
     26 N9         -1.9940    3.6140   -5.2620 nx        1 N2G      0.075000
     27 CBE        -2.1140    3.8720   -3.8250 DU        1 N2G     -0.153000
     28 OAU        -1.4960    2.8070   -3.0690 os        1 N2G     -0.292000
     29 CAO        -3.5970    3.8500   -3.3970 c3        1 N2G     -0.655000
     30 CBC        -3.5760    3.1860   -2.0010 DU        1 N2G     -0.356000
     31 CBD        -2.0820    2.8850   -1.7520 DU        1 N2G      0.410000
     32 CAN        -1.9220    1.5510   -1.0180 c3        1 N2G      0.125000
     33 O3'        -4.0780    4.0850   -1.0110 oh        1 N2G     -0.572000
     34 HAN1       -2.0290    2.3070   -1.7870 DU        1 N2G     -0.123000
     35 HAN2       -2.3170    0.7510   -1.6320 h1        1 N2G      0.046000
     36 HAI        -6.0020   11.6800   -5.9020 DU        1 N2G      0.339000
     37 HAJ        -4.9580   13.2450   -6.1930 DU        1 N2G      0.449000
     38 HAG        -3.4050   13.2790   -5.8670 DU        1 N2G      0.286000
     39 HAH        -2.1800   12.1420   -5.5280 DU        1 N2G      0.276000
     40 HAM1       -2.1880    9.4430   -5.5110 hx        1 N2G      0.279500
     41 HAM2       -1.5330    8.6430   -5.6430 hx        1 N2G      0.279500
     42 H1         -2.3130    6.4810   -7.8390 hn        1 N2G     -0.235000
     43 H8         -1.8680    3.2040   -6.5720 DU        1 N2G      0.348000
     44 HBE        -1.9810    2.9580   -4.3900 DU        1 N2G      0.455000
     45 HAO1       -2.6340    4.3370   -3.4810 DU        1 N2G      0.225000
     46 HAO2       -3.9870    4.8590   -3.3290 hc        1 N2G      0.155000
     47 HBD        -2.8010    3.0110   -2.5520 DU        1 N2G      0.205000
     48 HBC        -2.6050    3.4390   -1.5940 DU        1 N2G      0.205000
     49 H3'        -4.1120    3.2590   -1.4650 DU        1 N2G      0.356000
     50 HAK        -5.8090    9.0370   -5.4120 hc        1 N2G      0.255000
     51 HAF        -6.4380    9.5300   -6.1810 DU        1 N2G      0.376000
     52 N2         -2.3430    7.9070   -7.3930 ny        1 N2G      0.601000
     53 HAE        -8.3220   12.0660   -6.8200 ha        1 N2G      0.145000
     54 H2         -2.8910    8.1860   -8.1820 hn        1 N2G      0.025000
     55 H22        -3.1500    7.3440   -7.2100 DU        1 N2G      0.021000
@<TRIPOS>BOND
     1    1    2 1   
     2    1    3 1   
     3    1    4 1   
     4    1    5 1   
     5    5   32 1   
     6    6    7 1   
     7    6   11 1   
     8    6   15 1   
     9    7    8 1   
    10    7   50 1   
    11    7   51 1   
    12    8    9 1   
    13    8   51 1   
    14    9   10 1   
    15    9   53 1   
    16   10   11 1   
    17   10   36 1   
    18   11   12 1   
    19   11   36 1   
    20   11   37 1   
    21   12   13 1   
    22   12   37 1   
    23   12   38 1   
    24   13   14 1   
    25   13   38 1   
    26   13   39 1   
    27   14   15 1   
    28   14   39 1   
    29   16   40 1   
    30   16   41 1   
    31   16   52 1   
    32   17   18 1   
    33   17   21 1   
    34   17   52 1   
    35   17   55 1   
    36   18   19 1   
    37   18   42 1   
    38   19   20 1   
    39   19   23 1   
    40   21   22 1   
    41   22   23 1   
    42   22   26 1   
    43   23   24 1   
    44   23   43 1   
    45   24   25 1   
    46   24   43 1   
    47   25   26 1   
    48   25   43 1   
    49   26   27 1   
    50   26   44 1   
    51   27   28 1   
    52   27   29 1   
    53   27   44 1   
    54   27   45 1   
    55   28   31 1   
    56   29   30 1   
    57   29   45 1   
    58   29   46 1   
    59   30   31 1   
    60   30   33 1   
    61   30   47 1   
    62   30   48 1   
    63   30   49 1   
    64   31   32 1   
    65   31   34 1   
    66   31   47 1   
    67   31   48 1   
    68   32   34 1   
    69   32   35 1   
    70   33   49 1   
    71   52   54 1   
    72   52   55 1   
@<TRIPOS>SUBSTRUCTURE
     1 N2G         1 TEMP              0 ****  ****    0 ROOT
