@<TRIPOS>MOLECULE
N2I
   21    22     1     0     0
SMALL
bcc


@<TRIPOS>ATOM
      1 C1B         4.0710    0.1330    0.3900 c2        1 N2I      0.439100
      2 N1B         3.0640    0.7300   -0.1230 ne        1 N2I     -0.568100
      3 C2          1.7520    0.2050   -0.0460 ca        1 N2I      0.111400
      4 C3          1.4850   -1.2030   -0.0430 ca        1 N2I     -0.145000
      5 C4          0.1990   -1.6750   -0.0240 ca        1 N2I     -0.111000
      6 C4A        -0.9050   -0.7820   -0.0010 ca        1 N2I     -0.037000
      7 C8A        -0.6560    0.6130   -0.0070 ca        1 N2I     -0.037000
      8 C1          0.6790    1.0900   -0.0350 ca        1 N2I     -0.086000
      9 C5         -2.2480   -1.2490    0.0250 ca        1 N2I     -0.118000
     10 C6         -3.2940   -0.3600    0.0440 ca        1 N2I     -0.125000
     11 C7         -3.0470    1.0350    0.0380 ca        1 N2I     -0.127000
     12 C8         -1.7600    1.5120    0.0130 ca        1 N2I     -0.115000
     13 H1          4.0690   -0.8210    0.9500 h4        1 N2I     -0.013700
     14 H2          5.0580    0.6180    0.2710 h4        1 N2I     -0.013700
     15 H3          2.3300   -1.9100   -0.0690 ha        1 N2I      0.132000
     16 H4          0.0010   -2.7580   -0.0260 ha        1 N2I      0.134000
     17 H5          0.8470    2.1790   -0.0440 ha        1 N2I      0.148000
     18 H6         -2.4290   -2.3350    0.0290 ha        1 N2I      0.133000
     19 H7         -4.3340   -0.7180    0.0640 ha        1 N2I      0.133000
     20 H8         -3.9010    1.7270    0.0530 ha        1 N2I      0.133000
     21 H9         -1.5580    2.5940    0.0070 ha        1 N2I      0.135000
@<TRIPOS>BOND
     1    1    2 2   
     2    1   13 1   
     3    1   14 1   
     4    2    3 1   
     5    3    4 ar  
     6    3    8 ar  
     7    4    5 ar  
     8    4   15 1   
     9    5    6 ar  
    10    5   16 1   
    11    6    7 ar  
    12    6    9 ar  
    13    7    8 ar  
    14    7   12 ar  
    15    8   17 1   
    16    9   10 ar  
    17    9   18 1   
    18   10   11 ar  
    19   10   19 1   
    20   11   12 ar  
    21   11   20 1   
    22   12   21 1   
@<TRIPOS>SUBSTRUCTURE
     1 N2I         1 TEMP              0 ****  ****    0 ROOT
