@<TRIPOS>MOLECULE
N2I
   21    22     1     0     0
SMALL
bcc


@<TRIPOS>ATOM
      1 C1B        -0.0300    0.1000   -0.1250 c2        1 N2I      0.439100
      2 N1B         1.2240   -0.1250   -0.0190 ne        1 N2I     -0.568100
      3 C2          1.8970   -0.0880    1.2250 ca        1 N2I      0.111400
      4 C3          1.5070    0.7940    2.2860 ca        1 N2I     -0.145000
      5 C4          2.2160    0.8420    3.4570 ca        1 N2I     -0.111000
      6 C4A         3.3550    0.0150    3.6550 ca        1 N2I     -0.037000
      7 C8A         3.7540   -0.8590    2.6130 ca        1 N2I     -0.037000
      8 C1          3.0150   -0.8940    1.4020 ca        1 N2I     -0.086000
      9 C5          4.1030    0.0450    4.8630 ca        1 N2I     -0.118000
     10 C6          5.2000   -0.7650    5.0220 ca        1 N2I     -0.125000
     11 C7          5.6000   -1.6400    3.9820 ca        1 N2I     -0.127000
     12 C8          4.8950   -1.6870    2.8050 ca        1 N2I     -0.115000
     13 H1         -0.7410    0.3300    0.6910 h4        1 N2I     -0.013700
     14 H2         -0.4650    0.0560   -1.1410 h4        1 N2I     -0.013700
     15 H3          0.6320    1.4480    2.1460 ha        1 N2I      0.132000
     16 H4          1.9150    1.5250    4.2660 ha        1 N2I      0.134000
     17 H5          3.3490   -1.5790    0.6060 ha        1 N2I      0.148000
     18 H6          3.7840    0.7280    5.6640 ha        1 N2I      0.133000
     19 H7          5.7810   -0.7460    5.9560 ha        1 N2I      0.133000
     20 H8          6.4830   -2.2790    4.1330 ha        1 N2I      0.133000
     21 H9          5.1990   -2.3630    1.9910 ha        1 N2I      0.135000
@<TRIPOS>BOND
     1    1    2 2   
     2    1   13 1   
     3    1   14 1   
     4    2    3 1   
     5    3    4 ar  
     6    3    8 ar  
     7    4    5 ar  
     8    4   15 1   
     9    5    6 ar  
    10    5   16 1   
    11    6    7 ar  
    12    6    9 ar  
    13    7    8 ar  
    14    7   12 ar  
    15    8   17 1   
    16    9   10 ar  
    17    9   18 1   
    18   10   11 ar  
    19   10   19 1   
    20   11   12 ar  
    21   11   20 1   
    22   12   21 1   
@<TRIPOS>SUBSTRUCTURE
     1 N2I         1 TEMP              0 ****  ****    0 ROOT
