@<TRIPOS>MOLECULE
N2I
   21    22     1     0     0
SMALL
bcc


@<TRIPOS>ATOM
      1 C1B        -0.0280    0.0990   -0.1280 c2        1 N2I      0.439100
      2 N1B         1.2280   -0.1170   -0.0210 ne        1 N2I     -0.568100
      3 C2          1.8980   -0.0850    1.2250 ca        1 N2I      0.111400
      4 C3          1.5000    0.7860    2.2910 ca        1 N2I     -0.145000
      5 C4          2.2070    0.8310    3.4630 ca        1 N2I     -0.111000
      6 C4A         3.3510    0.0110    3.6580 ca        1 N2I     -0.037000
      7 C8A         3.7570   -0.8540    2.6110 ca        1 N2I     -0.037000
      8 C1          3.0220   -0.8850    1.3980 ca        1 N2I     -0.086000
      9 C5          4.0960    0.0360    4.8680 ca        1 N2I     -0.118000
     10 C6          5.1980   -0.7680    5.0230 ca        1 N2I     -0.125000
     11 C7          5.6060   -1.6320    3.9780 ca        1 N2I     -0.127000
     12 C8          4.9040   -1.6750    2.7990 ca        1 N2I     -0.115000
     13 H1         -0.7410    0.3170    0.6890 h4        1 N2I     -0.013700
     14 H2         -0.4600    0.0600   -1.1450 h4        1 N2I     -0.013700
     15 H3          0.6210    1.4350    2.1540 ha        1 N2I      0.132000
     16 H4          1.8990    1.5060    4.2770 ha        1 N2I      0.134000
     17 H5          3.3610   -1.5620    0.5970 ha        1 N2I      0.148000
     18 H6          3.7710    0.7110    5.6740 ha        1 N2I      0.133000
     19 H7          5.7770   -0.7510    5.9580 ha        1 N2I      0.133000
     20 H8          6.4930   -2.2660    4.1260 ha        1 N2I      0.133000
     21 H9          5.2140   -2.3430    1.9810 ha        1 N2I      0.135000
@<TRIPOS>BOND
     1    1    2 2   
     2    1   13 1   
     3    1   14 1   
     4    2    3 1   
     5    3    4 ar  
     6    3    8 ar  
     7    4    5 ar  
     8    4   15 1   
     9    5    6 ar  
    10    5   16 1   
    11    6    7 ar  
    12    6    9 ar  
    13    7    8 ar  
    14    7   12 ar  
    15    8   17 1   
    16    9   10 ar  
    17    9   18 1   
    18   10   11 ar  
    19   10   19 1   
    20   11   12 ar  
    21   11   20 1   
    22   12   21 1   
@<TRIPOS>SUBSTRUCTURE
     1 N2I         1 TEMP              0 ****  ****    0 ROOT
