@<TRIPOS>MOLECULE
N2I
   21    15     1     0     0
SMALL
bcc


@<TRIPOS>ATOM
      1 C1B        -2.8200    0.5960   -2.7660 c1        1 N2I     -0.107000
      2 N1B        -1.5120    0.5960   -2.7660 n1        1 N2I     -0.141000
      3 C2         -0.8020    0.5960   -1.5370 c1        1 N2I     -0.028000
      4 C3         -0.6400    1.7460   -0.7700 c1        1 N2I     -0.123500
      5 C4          0.0640    1.6900    0.4250 c1        1 N2I     -0.123500
      6 C4A         0.6140    0.4710    0.8630 c1        1 N2I     -0.037000
      7 C8A         0.4540   -0.6660    0.1050 c1        1 N2I     -0.037000
      8 C1         -0.2600   -0.6080   -1.1070 c2        1 N2I     -0.086000
      9 C5          1.3280    0.4130    2.0740 c1        1 N2I     -0.123500
     10 C6          1.8700   -0.7910    2.5050 c1        1 N2I     -0.123500
     11 C7          1.7080   -1.9410    1.7380 c1        1 N2I     -0.123500
     12 C8          1.0040   -1.8850    0.5420 c1        1 N2I     -0.123500
     13 H1         -3.3080    0.5960   -1.9200 DU        1 N2I      0.094000
     14 H2         -3.3080    0.5960   -3.6110 ha        1 N2I      0.137000
     15 H3         -1.0010    2.5960   -1.0850 ha        1 N2I      0.133333
     16 H4          0.1770    2.4970    0.9630 ha        1 N2I      0.133333
     17 H5         -0.3540   -1.4100   -1.6560 ha        1 N2I      0.148000
     18 H6          1.4410    1.2190    2.6130 ha        1 N2I      0.133333
     19 H7          2.3650   -0.8300    3.3450 ha        1 N2I      0.133333
     20 H8          2.0900   -2.7870    2.0410 ha        1 N2I      0.133333
     21 H9          0.8910   -2.6920    0.0050 ha        1 N2I      0.133333
@<TRIPOS>BOND
     1    1    2 1   
     2    1   14 1   
     3    3    8 1   
     4    4    5 1   
     5    4   15 1   
     6    5   16 1   
     7    6    7 1   
     8    7    8 1   
     9    8   17 1   
    10    9   10 1   
    11    9   18 1   
    12   10   19 1   
    13   11   12 1   
    14   11   20 1   
    15   12   21 1   
@<TRIPOS>SUBSTRUCTURE
     1 N2I         1 TEMP              0 ****  ****    0 ROOT
