@<TRIPOS>MOLECULE
N2M
   23    24     1     0     0
SMALL
bcc


@<TRIPOS>ATOM
      1 S           0.1460    0.0020    0.0180 s6        1 N2M      1.459100
      2 O1S         1.5570    0.0270   -0.0080 o         1 N2M     -0.743200
      3 O2S        -0.3990    0.0140    1.3220 o         1 N2M     -0.743200
      4 O3S        -0.4180   -0.9680   -0.8420 o         1 N2M     -0.743200
      5 C1         -0.6070    2.6570    0.0990 ca        1 N2M     -0.038000
      6 C2         -0.3540    1.5610   -0.6870 ca        1 N2M     -0.243500
      7 C3         -0.4950    1.6830   -2.0870 ca        1 N2M     -0.037000
      8 C4         -0.8770    2.8700   -2.6680 ca        1 N2M     -0.172000
      9 C5         -1.5760    5.2790   -2.4250 ca        1 N2M      0.122600
     10 C6         -1.8220    6.3490   -1.5680 ca        1 N2M     -0.212000
     11 C7         -1.6520    6.2180   -0.1750 ca        1 N2M     -0.127000
     12 C8         -1.2570    5.0240    0.3700 ca        1 N2M     -0.138000
     13 C9         -1.0040    3.9020   -0.4650 ca        1 N2M     -0.038000
     14 C10        -1.1500    4.0150   -1.8710 ca        1 N2M     -0.039000
     15 N          -1.6810    5.4580   -3.8170 nv        1 N2M     -0.808200
     16 H3         -0.3000    0.7900   -2.7060 ha        1 N2M      0.147000
     17 H4         -0.9550    2.9210   -3.7630 ha        1 N2M      0.109000
     18 H6         -2.1480    7.3220   -1.9640 ha        1 N2M      0.113000
     19 H7         -1.8470    7.0910    0.4640 ha        1 N2M      0.113000
     20 H8         -1.1290    4.9090    1.4560 ha        1 N2M      0.127000
     21 HN1        -2.3150    6.1890   -4.0640 hn        1 N2M      0.371800
     22 HN2        -1.8840    4.6160   -4.3110 hn        1 N2M      0.371800
     23 H1         -0.5150    2.5760    1.1960 ha        1 N2M      0.149000
@<TRIPOS>BOND
     1    1    2 1   
     2    1    3 1   
     3    1    4 1   
     4    1    6 1   
     5    5    6 ar  
     6    5   13 ar  
     7    5   23 1   
     8    6    7 ar  
     9    7    8 ar  
    10    7   16 1   
    11    8   14 ar  
    12    8   17 1   
    13    9   10 ar  
    14    9   14 ar  
    15    9   15 1   
    16   10   11 ar  
    17   10   18 1   
    18   11   12 ar  
    19   11   19 1   
    20   12   13 ar  
    21   12   20 1   
    22   13   14 ar  
    23   15   21 1   
    24   15   22 1   
@<TRIPOS>SUBSTRUCTURE
     1 N2M         1 TEMP              0 ****  ****    0 ROOT
