@<TRIPOS>MOLECULE
N2M
   23    24     1     0     0
SMALL
bcc


@<TRIPOS>ATOM
      1 S           5.5180   -4.7150   -1.2850 s6        1 N2M      1.459100
      2 O1S         5.3290   -5.0840   -2.6350 o         1 N2M     -0.742867
      3 O2S         6.2690   -3.5300   -1.1200 o         1 N2M     -0.742867
      4 O3S         5.9260   -5.7870   -0.4590 o         1 N2M     -0.742867
      5 C1          3.4170   -3.0100   -0.7450 ca        1 N2M     -0.039000
      6 C2          3.8880   -4.2970   -0.6990 ca        1 N2M     -0.243500
      7 C3          3.0500   -5.3080   -0.1780 ca        1 N2M     -0.038000
      8 C4          1.7740   -5.0290    0.2530 ca        1 N2M     -0.172000
      9 C5         -0.0860   -3.3630    0.5930 ca        1 N2M      0.122600
     10 C6         -0.5060   -2.0370    0.5050 ca        1 N2M     -0.212000
     11 C7          0.3620   -1.0310    0.0340 ca        1 N2M     -0.127000
     12 C8          1.6350   -1.3400   -0.3690 ca        1 N2M     -0.138000
     13 C9          2.1020   -2.6810   -0.3080 ca        1 N2M     -0.038000
     14 C10         1.2560   -3.7070    0.1850 ca        1 N2M     -0.040000
     15 N          -0.9470   -4.3360    1.1330 nh        1 N2M     -0.807200
     16 H3          3.4560   -6.3320   -0.1110 ha        1 N2M      0.148000
     17 H4          1.1660   -5.8450    0.6680 ha        1 N2M      0.109000
     18 H6         -1.5230   -1.7490    0.8080 ha        1 N2M      0.113000
     19 H7         -0.0050    0.0040   -0.0080 ha        1 N2M      0.113000
     20 H8          2.3170   -0.5640   -0.7460 ha        1 N2M      0.127000
     21 HN1        -0.7580   -5.2590    0.8050 hn        1 N2M      0.371800
     22 HN2        -1.9110   -4.1000    1.0250 hn        1 N2M      0.371800
     23 H1          4.0690   -2.2010   -1.1190 ha        1 N2M      0.149000
@<TRIPOS>BOND
     1    1    2 1   
     2    1    3 1   
     3    1    4 1   
     4    1    6 1   
     5    5    6 ar  
     6    5   13 ar  
     7    5   23 1   
     8    6    7 ar  
     9    7    8 ar  
    10    7   16 1   
    11    8   14 ar  
    12    8   17 1   
    13    9   10 ar  
    14    9   14 ar  
    15    9   15 1   
    16   10   11 ar  
    17   10   18 1   
    18   11   12 ar  
    19   11   19 1   
    20   12   13 ar  
    21   12   20 1   
    22   13   14 ar  
    23   15   21 1   
    24   15   22 1   
@<TRIPOS>SUBSTRUCTURE
     1 N2M         1 TEMP              0 ****  ****    0 ROOT
