@<TRIPOS>MOLECULE
N2M
   23    24     1     0     0
SMALL
bcc


@<TRIPOS>ATOM
      1 S           0.1600    0.0050    0.0150 s6        1 N2M      1.459100
      2 O1S         1.5710    0.0320   -0.0230 o         1 N2M     -0.743200
      3 O2S        -0.3740    0.0190    1.3230 o         1 N2M     -0.743200
      4 O3S        -0.4100   -0.9670   -0.8390 o         1 N2M     -0.743200
      5 C1         -0.5980    2.6590    0.0970 ca        1 N2M     -0.038000
      6 C2         -0.3470    1.5620   -0.6890 ca        1 N2M     -0.243500
      7 C3         -0.4960    1.6840   -2.0880 ca        1 N2M     -0.037000
      8 C4         -0.8830    2.8690   -2.6680 ca        1 N2M     -0.172000
      9 C5         -1.5860    5.2770   -2.4230 ca        1 N2M      0.122600
     10 C6         -1.8300    6.3480   -1.5650 ca        1 N2M     -0.212000
     11 C7         -1.6520    6.2170   -0.1730 ca        1 N2M     -0.127000
     12 C8         -1.2510    5.0250    0.3710 ca        1 N2M     -0.138000
     13 C9         -1.0000    3.9020   -0.4650 ca        1 N2M     -0.038000
     14 C10        -1.1540    4.0140   -1.8710 ca        1 N2M     -0.039000
     15 N          -1.7000    5.4550   -3.8140 nh        1 N2M     -0.808200
     16 H3         -0.3030    0.7900   -2.7080 ha        1 N2M      0.147000
     17 H4         -0.9680    2.9180   -3.7620 ha        1 N2M      0.109000
     18 H6         -2.1600    7.3190   -1.9610 ha        1 N2M      0.113000
     19 H7         -1.8450    7.0900    0.4660 ha        1 N2M      0.113000
     20 H8         -1.1170    4.9100    1.4560 ha        1 N2M      0.127000
     21 HN1        -1.9030    4.6120   -4.3070 hn        1 N2M      0.371800
     22 HN2        -2.3360    6.1840   -4.0580 hn        1 N2M      0.371800
     23 H1         -0.4990    2.5790    1.1940 ha        1 N2M      0.149000
@<TRIPOS>BOND
     1    1    2 1   
     2    1    3 1   
     3    1    4 1   
     4    1    6 1   
     5    5    6 ar  
     6    5   13 ar  
     7    5   23 1   
     8    6    7 ar  
     9    7    8 ar  
    10    7   16 1   
    11    8   14 ar  
    12    8   17 1   
    13    9   10 ar  
    14    9   14 ar  
    15    9   15 1   
    16   10   11 ar  
    17   10   18 1   
    18   11   12 ar  
    19   11   19 1   
    20   12   13 ar  
    21   12   20 1   
    22   13   14 ar  
    23   15   21 1   
    24   15   22 1   
@<TRIPOS>SUBSTRUCTURE
     1 N2M         1 TEMP              0 ****  ****    0 ROOT
