@<TRIPOS>MOLECULE
N2M
   24    25     1     0     0
SMALL
bcc


@<TRIPOS>ATOM
      1 S           0.1030   -0.0600    0.0090 s6        1 N2M      1.464100
      2 O1S         1.4970   -0.0080   -0.1140 o         1 N2M     -0.725533
      3 O2S        -0.3900    0.0130    1.3190 o         1 N2M     -0.725533
      4 O3S        -0.5360   -0.9680   -0.8480 o         1 N2M     -0.725533
      5 C1         -0.6190    2.6440    0.1090 ca        1 N2M     -0.013000
      6 C2         -0.4200    1.5530   -0.6940 ca        1 N2M     -0.203500
      7 C3         -0.6200    1.6620   -2.0860 ca        1 N2M      0.042000
      8 C4         -0.9960    2.8580   -2.6610 ca        1 N2M     -0.242000
      9 C5         -1.5740    5.2820   -2.3660 ca        1 N2M     -0.109400
     10 C6         -1.7670    6.3850   -1.5420 ca        1 N2M     -0.076000
     11 C7         -1.5810    6.2480   -0.1580 ca        1 N2M     -0.170000
     12 C8         -1.2100    5.0320    0.3800 ca        1 N2M     -0.022000
     13 C9         -1.0080    3.9000   -0.4420 ca        1 N2M     -0.060000
     14 C10        -1.1920    4.0040   -1.8520 ca        1 N2M      0.008000
     15 N          -1.7620    5.4120   -3.8110 n4        1 N2M     -0.691000
     16 H3         -0.4810    0.7530   -2.7030 ha        1 N2M      0.174000
     17 H4         -1.1420    2.8980   -3.7480 ha        1 N2M      0.096000
     18 H6         -2.0610    7.3670   -1.9460 ha        1 N2M      0.133000
     19 H7         -1.7360    7.1250    0.4890 ha        1 N2M      0.154000
     20 H8         -1.0640    4.9260    1.4700 ha        1 N2M      0.162000
     21 HN1        -2.4990    4.7630   -4.1100 hn        1 N2M      0.452467
     22 HN2        -0.8870    5.1570   -4.2830 hn        1 N2M      0.452467
     23 HN3        -2.0220    6.3690   -4.0550 hn        1 N2M      0.452467
     24 H1         -0.4890    2.5520    1.2040 ha        1 N2M      0.175000
@<TRIPOS>BOND
     1    1    2 1   
     2    1    3 1   
     3    1    4 1   
     4    1    6 1   
     5    5    6 ar  
     6    5   13 ar  
     7    5   24 1   
     8    6    7 ar  
     9    7    8 ar  
    10    7   16 1   
    11    8   14 ar  
    12    8   17 1   
    13    9   10 ar  
    14    9   14 ar  
    15    9   15 1   
    16   10   11 ar  
    17   10   18 1   
    18   11   12 ar  
    19   11   19 1   
    20   12   13 ar  
    21   12   20 1   
    22   13   14 ar  
    23   15   21 1   
    24   15   22 1   
    25   15   23 1   
@<TRIPOS>SUBSTRUCTURE
     1 N2M         1 TEMP              0 ****  ****    0 ROOT
