@<TRIPOS>MOLECULE
N2O
    3     2     1     0     0
SMALL
bcc


@<TRIPOS>ATOM
      1 O3         12.5180  -12.0790   -7.6220 o         1 N2O     -0.225700
      2 N2         11.5640  -12.7620   -7.6970 n2        1 N2O      0.302700
      3 N1         10.6490  -13.4170   -7.7690 n1        1 N2O     -0.076000
@<TRIPOS>BOND
     1    1    2 2   
     2    2    3 3   
@<TRIPOS>SUBSTRUCTURE
     1 N2O         1 TEMP              0 ****  ****    0 ROOT
