@<TRIPOS>MOLECULE
N2P
   23    22     1     0     0
SMALL
bcc


@<TRIPOS>ATOM
      1 C1          0.0280   -0.0020   -0.0130 c3        1 N2P      0.099800
      2 C2          1.5540    0.0010   -0.0360 c3        1 N2P     -0.108400
      3 C3          2.0760   -0.0010    1.3900 c3        1 N2P     -0.077400
      4 C4          3.5950    0.0000    1.4050 c3        1 N2P     -0.108400
      5 NE2        -0.5790    0.0010   -1.3760 n4        1 N2P     -0.837600
      6 C5          4.0840   -0.0010    2.8510 c3        1 N2P      0.099800
      7 N1          5.5710    0.0010    2.9680 n4        1 N2P     -0.837600
      8 H1C1       -0.3480   -0.9220    0.5250 hx        1 N2P      0.120700
      9 H1C2       -0.3520    0.9120    0.5310 hx        1 N2P      0.120700
     10 H2C1        1.9350    0.9100   -0.5740 hc        1 N2P      0.078700
     11 H2C2        1.9390   -0.9050   -0.5780 hc        1 N2P      0.078700
     12 H3C1        1.6920    0.9040    1.9340 hc        1 N2P      0.073700
     13 H3C2        1.6940   -0.9080    1.9310 hc        1 N2P      0.073700
     14 H4C1        3.9770   -0.9060    0.8630 hc        1 N2P      0.078700
     15 H4C2        3.9750    0.9090    0.8650 hc        1 N2P      0.078700
     16 HE21       -0.2890    0.8370   -1.8970 hn        1 N2P      0.471133
     17 HE22       -1.6050   -0.0020   -1.2990 hn        1 N2P      0.471133
     18 H5C1        3.6990    0.9160    3.3890 hx        1 N2P      0.120700
     19 H5C2        3.7010   -0.9180    3.3880 hx        1 N2P      0.120700
     20 H1N1        5.8410    0.0000    3.9600 hn        1 N2P      0.471133
     21 H1N2        5.9680   -0.8320    2.5180 hn        1 N2P      0.471133
     22 HE23       -0.2850   -0.8300   -1.9030 hn        1 N2P      0.471133
     23 H13         5.9670    0.8340    2.5190 hn        1 N2P      0.471133
@<TRIPOS>BOND
     1    1    2 1   
     2    1    5 1   
     3    1    8 1   
     4    1    9 1   
     5    2    3 1   
     6    2   10 1   
     7    2   11 1   
     8    3    4 1   
     9    3   12 1   
    10    3   13 1   
    11    4    6 1   
    12    4   14 1   
    13    4   15 1   
    14    5   16 1   
    15    5   17 1   
    16    5   22 1   
    17    6    7 1   
    18    6   18 1   
    19    6   19 1   
    20    7   20 1   
    21    7   21 1   
    22    7   23 1   
@<TRIPOS>SUBSTRUCTURE
     1 N2P         1 TEMP              0 ****  ****    0 ROOT
