@<TRIPOS>MOLECULE
N2P
   21    20     1     0     0
SMALL
bcc


@<TRIPOS>ATOM
      1 C1          0.4880    0.0050    2.4940 c3        1 N2P      0.158800
      2 C2         -0.3950   -0.0030    1.2470 c3        1 N2P     -0.082400
      3 C3          0.4620   -0.0000    0.0000 c3        1 N2P     -0.079400
      4 C4         -0.3950    0.0030   -1.2470 c3        1 N2P     -0.082400
      5 NE2        -0.2610   -0.0580    3.7270 n3        1 N2P     -0.916800
      6 C5          0.4880   -0.0050   -2.4940 c3        1 N2P      0.158800
      7 N1         -0.2610    0.0580   -3.7270 n3        1 N2P     -0.916800
      8 H1C1        1.1570    0.9160    2.4410 h1        1 N2P      0.023700
      9 H1C2        1.1620   -0.8990    2.4670 h1        1 N2P      0.023700
     10 H2C1       -1.0540   -0.9100    1.2520 hc        1 N2P      0.047700
     11 H2C2       -1.0650    0.8970    1.2460 hc        1 N2P      0.047700
     12 H3C1        1.1290    0.9030    0.0000 hc        1 N2P      0.040700
     13 H3C2        1.1290   -0.9030   -0.0000 hc        1 N2P      0.040700
     14 H4C1       -1.0650   -0.8970   -1.2460 hc        1 N2P      0.047700
     15 H4C2       -1.0540    0.9100   -1.2520 hc        1 N2P      0.047700
     16 HE21        0.3460    0.0850    4.5090 hn        1 N2P      0.348300
     17 HE22       -0.9870    0.6290    3.7440 hn        1 N2P      0.348300
     18 H5C1        1.1620    0.8980   -2.4670 h1        1 N2P      0.023700
     19 H5C2        1.1570   -0.9160   -2.4410 h1        1 N2P      0.023700
     20 H1N1        0.3460   -0.0850   -4.5090 hn        1 N2P      0.348300
     21 H1N2       -0.9870   -0.6290   -3.7440 hn        1 N2P      0.348300
@<TRIPOS>BOND
     1    1    2 1   
     2    1    5 1   
     3    1    8 1   
     4    1    9 1   
     5    2    3 1   
     6    2   10 1   
     7    2   11 1   
     8    3    4 1   
     9    3   12 1   
    10    3   13 1   
    11    4    6 1   
    12    4   14 1   
    13    4   15 1   
    14    5   16 1   
    15    5   17 1   
    16    6    7 1   
    17    6   18 1   
    18    6   19 1   
    19    7   20 1   
    20    7   21 1   
@<TRIPOS>SUBSTRUCTURE
     1 N2P         1 TEMP              0 ****  ****    0 ROOT
