@<TRIPOS>MOLECULE
N2P
   23    22     1     0     0
SMALL
bcc


@<TRIPOS>ATOM
      1 C1          0.0280   -0.0030   -0.0120 c3        1 N2P      0.099800
      2 C2          1.5540    0.0030   -0.0350 c3        1 N2P     -0.108400
      3 C3          2.0760   -0.0030    1.3910 c3        1 N2P     -0.077400
      4 C4          3.5950    0.0020    1.4050 c3        1 N2P     -0.108400
      5 NE2        -0.5810    0.0030   -1.3740 nz        1 N2P     -0.837600
      6 C5          4.0850   -0.0040    2.8500 c3        1 N2P      0.099800
      7 N1          5.5720   -0.0010    2.9660 nz        1 N2P     -0.837600
      8 H1C1       -0.3470   -0.9240    0.5240 hx        1 N2P      0.120700
      9 H1C2       -0.3530    0.9100    0.5350 hx        1 N2P      0.120700
     10 H2C1        1.9390   -0.9000   -0.5810 hc        1 N2P      0.078700
     11 H2C2        1.9330    0.9150   -0.5710 hc        1 N2P      0.078700
     12 H3C1        1.6970   -0.9130    1.9280 hc        1 N2P      0.073700
     13 H3C2        1.6910    0.8990    1.9380 hc        1 N2P      0.073700
     14 H4C1        3.9730    0.9130    0.8680 hc        1 N2P      0.078700
     15 H4C2        3.9790   -0.9020    0.8590 hc        1 N2P      0.078700
     16 HE21       -0.2860   -0.8260   -1.9030 hn        1 N2P      0.471133
     17 HE22       -1.6060   -0.0010   -1.2960 hn        1 N2P      0.471133
     18 H5C1        3.6990    0.9100    3.3920 hx        1 N2P      0.120700
     19 H5C2        3.7040   -0.9240    3.3830 hx        1 N2P      0.120700
     20 H1N1        5.9700   -0.8310    2.5120 hn        1 N2P      0.471133
     21 H1N2        5.8430   -0.0040    3.9580 hn        1 N2P      0.471133
     22 HE23       -0.2920    0.8410   -1.8930 hn        1 N2P      0.471133
     23 H13         5.9660    0.8360    2.5200 hn        1 N2P      0.471133
@<TRIPOS>BOND
     1    1    2 1   
     2    1    5 1   
     3    1    8 1   
     4    1    9 1   
     5    2    3 1   
     6    2   10 1   
     7    2   11 1   
     8    3    4 1   
     9    3   12 1   
    10    3   13 1   
    11    4    6 1   
    12    4   14 1   
    13    4   15 1   
    14    5   16 1   
    15    5   17 1   
    16    5   22 1   
    17    6    7 1   
    18    6   18 1   
    19    6   19 1   
    20    7   20 1   
    21    7   21 1   
    22    7   23 1   
@<TRIPOS>SUBSTRUCTURE
     1 N2P         1 TEMP              0 ****  ****    0 ROOT
