@<TRIPOS>MOLECULE
N2T
   54    57     1     0     0
SMALL
bcc


@<TRIPOS>ATOM
      1 C1          5.2850    1.6510   -1.1060 ca        1 N2T      0.114900
      2 C2          4.0840    0.9290   -1.1880 ca        1 N2T     -0.138000
      3 C3          3.1890    0.9030   -0.1090 ca        1 N2T     -0.038800
      4 C4          3.5270    1.6180    1.0640 ca        1 N2T      0.120900
      5 C5          4.7340    2.3410    1.1390 ca        1 N2T     -0.141000
      6 C6          5.6100    2.3610    0.0650 ca        1 N2T     -0.138000
      7 C10         1.9680    0.1400   -0.2400 ce        1 N2T     -0.099400
      8 C11         0.6490    0.5840    0.3750 c3        1 N2T      0.101200
      9 N12        -0.3410   -0.4260   -0.0140 n         1 N2T     -0.422800
     10 C13         0.3330   -1.4500   -0.8560 c3        1 N2T      0.149200
     11 C14         1.7860   -1.0140   -0.9200 c2        1 N2T     -0.149200
     12 C17         0.1640   -2.8390   -0.3070 ca        1 N2T     -0.081300
     13 C19         1.1500   -3.4450    0.4760 ca        1 N2T     -0.111500
     14 C20         0.9670   -4.7460    0.9450 ca        1 N2T     -0.136000
     15 C21        -0.2020   -5.4420    0.6420 ca        1 N2T     -0.124000
     16 C22        -1.1940   -4.8350   -0.1290 ca        1 N2T     -0.136000
     17 C23        -1.0150   -3.5360   -0.6010 ca        1 N2T     -0.111500
     18 C8         -1.6330   -0.0130   -0.4460 c         1 N2T      0.746100
     19 N1         -2.3010    1.0300    0.2320 n         1 N2T     -0.451800
     20 C35        -3.6490    1.3490   -0.2290 c3        1 N2T      0.096700
     21 F40         2.7070    1.6210    2.1430 f         1 N2T     -0.135900
     22 F41         6.1350    1.6640   -2.1600 f         1 N2T     -0.134900
     23 O2         -2.1830   -0.5980   -1.4130 o         1 N2T     -0.643100
     24 C15        -4.7610    0.5550    0.4750 c3        1 N2T     -0.090900
     25 C26        -1.9750    1.3260    1.6010 c3        1 N2T      0.068300
     26 C12        -3.9600    2.8500   -0.1100 c3        1 N2T     -0.090900
     27 C9         -6.1200    0.9130   -0.1220 c3        1 N2T      0.164300
     28 C16        -5.3390    3.1370   -0.7030 c3        1 N2T      0.164300
     29 N2         -6.3930    2.3370   -0.1090 n3        1 N2T     -0.822200
     30 H2          3.8420    0.3810   -2.1120 ha        1 N2T      0.158000
     31 H5          4.9740    2.8870    2.0650 ha        1 N2T      0.156000
     32 H6          6.5530    2.9250    0.1190 ha        1 N2T      0.157000
     33 H111        0.3840    1.6150    0.0140 h1        1 N2T      0.071700
     34 H112        0.7200    0.5970    1.4980 h1        1 N2T      0.071700
     35 H13        -0.0990   -1.4360   -1.9060 h1        1 N2T      0.094700
     36 H14         2.5180   -1.6060   -1.4680 ha        1 N2T      0.159000
     37 H19         2.0710   -2.8970    0.7260 ha        1 N2T      0.145000
     38 H20         1.7480   -5.2210    1.5570 ha        1 N2T      0.131000
     39 H21        -0.3440   -6.4680    1.0130 ha        1 N2T      0.130000
     40 H22        -2.1200   -5.3790   -0.3630 ha        1 N2T      0.131000
     41 H23        -1.7980   -3.0430   -1.2010 ha        1 N2T      0.145000
     42 H35        -3.6900    1.0830   -1.3320 h1        1 N2T      0.087700
     43 H151       -4.5890   -0.5430    0.3350 hc        1 N2T      0.053700
     44 H152       -4.7590    0.7710    1.5740 hc        1 N2T      0.053700
     45 H261       -1.6500    0.4120    2.1670 h1        1 N2T      0.044033
     46 H262       -1.1430    2.0820    1.6300 h1        1 N2T      0.044033
     47 H263       -2.8650    1.7620    2.1290 h1        1 N2T      0.044033
     48 H121       -3.9350    3.1750    0.9620 hc        1 N2T      0.053700
     49 H122       -3.2000    3.4510   -0.6720 hc        1 N2T      0.053700
     50 H91        -6.1680    0.4820   -1.1660 h1        1 N2T      0.031200
     51 H92        -6.9250    0.4140    0.4880 h1        1 N2T      0.031200
     52 H161       -5.2760    2.9920   -1.8230 h1        1 N2T      0.031200
     53 H162       -5.5940    4.2180   -0.5150 h1        1 N2T      0.031200
     54 HN2        -7.2630    2.5220   -0.5720 hn        1 N2T      0.363800
@<TRIPOS>BOND
     1    1    2 ar  
     2    1    6 ar  
     3    1   22 1   
     4    2    3 ar  
     5    2   30 1   
     6    3    4 ar  
     7    3    7 1   
     8    4    5 ar  
     9    4   21 1   
    10    5    6 ar  
    11    5   31 1   
    12    6   32 1   
    13    7    8 1   
    14    7   11 2   
    15    8    9 1   
    16    8   33 1   
    17    8   34 1   
    18    9   10 1   
    19    9   18 1   
    20   10   11 1   
    21   10   12 1   
    22   10   35 1   
    23   11   36 1   
    24   12   13 ar  
    25   12   17 ar  
    26   13   14 ar  
    27   13   37 1   
    28   14   15 ar  
    29   14   38 1   
    30   15   16 ar  
    31   15   39 1   
    32   16   17 ar  
    33   16   40 1   
    34   17   41 1   
    35   18   19 1   
    36   18   23 2   
    37   19   20 1   
    38   19   25 1   
    39   20   24 1   
    40   20   26 1   
    41   20   42 1   
    42   24   27 1   
    43   24   43 1   
    44   24   44 1   
    45   25   45 1   
    46   25   46 1   
    47   25   47 1   
    48   26   28 1   
    49   26   48 1   
    50   26   49 1   
    51   27   29 1   
    52   27   50 1   
    53   27   51 1   
    54   28   29 1   
    55   28   52 1   
    56   28   53 1   
    57   29   54 1   
@<TRIPOS>SUBSTRUCTURE
     1 N2T         1 TEMP              0 ****  ****    0 ROOT
