@<TRIPOS>MOLECULE
N2T
   55    58     1     0     0
SMALL
bcc


@<TRIPOS>ATOM
      1 C1          0.0040    1.1670    2.5550 ca        1 N2T      0.133900
      2 C2          1.3020    1.1070    2.0260 ca        1 N2T     -0.132000
      3 C3          2.0260   -0.0950    2.0260 ca        1 N2T     -0.060800
      4 C4          1.4070   -1.2450    2.5730 ca        1 N2T      0.109900
      5 C5          0.1040   -1.1800    3.1040 ca        1 N2T     -0.127000
      6 C6         -0.5980    0.0150    3.0980 ca        1 N2T     -0.120000
      7 C10         3.3610   -0.1060    1.4720 ce        1 N2T     -0.064400
      8 C11         4.1850   -1.3830    1.3870 c3        1 N2T      0.102200
      9 N12         5.4460   -0.9810    0.7610 n         1 N2T     -0.438800
     10 C13         5.4360    0.4860    0.4740 c3        1 N2T      0.193200
     11 C14         4.0700    0.9290    0.9640 c2        1 N2T     -0.148200
     12 C17         6.5590    1.2200    1.1430 ca        1 N2T     -0.138300
     13 C19         6.4200    1.7270    2.4390 ca        1 N2T     -0.103000
     14 C20         7.4650    2.4420    3.0230 ca        1 N2T     -0.129500
     15 C21         8.6510    2.6500    2.3180 ca        1 N2T     -0.097000
     16 C22         8.7950    2.1370    1.0280 ca        1 N2T     -0.129500
     17 C23         7.7540    1.4210    0.4410 ca        1 N2T     -0.103000
     18 C8          6.2940   -1.8110    0.0920 c         1 N2T      0.647100
     19 N1          6.2460   -3.3140    0.4410 n4        1 N2T     -0.576200
     20 C35         7.3080   -3.6100    1.4840 c3        1 N2T      0.132500
     21 F40         2.0510   -2.4400    2.6010 f         1 N2T     -0.154900
     22 F41        -0.6710    2.3390    2.5420 f         1 N2T     -0.117900
     23 O2          7.1670   -1.4870   -0.7240 o         1 N2T     -0.511100
     24 C15         6.9880   -4.8950    2.2570 c3        1 N2T     -0.101400
     25 C26         6.3970   -4.1160   -0.7950 c3        1 N2T      0.087100
     26 C12         8.7210   -3.6900    0.9000 c3        1 N2T     -0.101400
     27 C9          8.0470   -5.0950    3.3480 c3        1 N2T      0.169300
     28 C16         9.7150   -3.9240    2.0430 c3        1 N2T      0.169300
     29 N2          9.3900   -5.1050    2.8130 n3        1 N2T     -0.833200
     30 H2          1.7470    2.0240    1.6060 ha        1 N2T      0.160000
     31 H5         -0.3500   -2.0920    3.5240 ha        1 N2T      0.168000
     32 H6         -1.6180    0.0730    3.5120 ha        1 N2T      0.173000
     33 H111        4.3830   -1.7960    2.4160 h1        1 N2T      0.075200
     34 H112        3.6370   -2.1500    0.7710 h1        1 N2T      0.075200
     35 H13         5.5140    0.6300   -0.6470 h1        1 N2T      0.097700
     36 H14         3.7870    1.9790    0.8730 ha        1 N2T      0.185000
     37 H19         5.4830    1.5720    2.9950 ha        1 N2T      0.142000
     38 H20         7.3490    2.8480    4.0400 ha        1 N2T      0.148500
     39 H21         9.4720    3.2220    2.7790 ha        1 N2T      0.150000
     40 H22         9.7300    2.3030    0.4710 ha        1 N2T      0.148500
     41 H23         7.8710    1.0100   -0.5760 ha        1 N2T      0.142000
     42 H35         7.2680   -2.7390    2.2080 hx        1 N2T      0.101700
     43 H151        6.9880   -5.7800    1.5690 hc        1 N2T      0.073950
     44 H152        5.9830   -4.8270    2.7490 hc        1 N2T      0.073950
     45 H261        6.5100   -5.1990   -0.5230 hx        1 N2T      0.107367
     46 H262        5.4870   -3.9730   -1.4380 hx        1 N2T      0.107367
     47 H263        7.3060   -3.7720   -1.3630 hx        1 N2T      0.107367
     48 H121        8.7960   -4.5330    0.1650 hc        1 N2T      0.073950
     49 H122        8.9850   -2.7350    0.3740 hc        1 N2T      0.073950
     50 H91         7.8970   -4.2920    4.1310 h1        1 N2T      0.053450
     51 H92         7.8640   -6.0930    3.8390 h1        1 N2T      0.053450
     52 H161        9.7530   -2.9890    2.6760 h1        1 N2T      0.053450
     53 H162       10.7380   -4.0780    1.5950 h1        1 N2T      0.053450
     54 HN2        10.0660   -5.2670    3.5340 hn        1 N2T      0.399800
     55 H11         5.3400   -3.5500    0.8640 hn        1 N2T      0.442800
@<TRIPOS>BOND
     1    1    2 ar  
     2    1    6 ar  
     3    1   22 1   
     4    2    3 ar  
     5    2   30 1   
     6    3    4 ar  
     7    3    7 1   
     8    4    5 ar  
     9    4   21 1   
    10    5    6 ar  
    11    5   31 1   
    12    6   32 1   
    13    7    8 1   
    14    7   11 2   
    15    8    9 1   
    16    8   33 1   
    17    8   34 1   
    18    9   10 1   
    19    9   18 1   
    20   10   11 1   
    21   10   12 1   
    22   10   35 1   
    23   11   36 1   
    24   12   13 ar  
    25   12   17 ar  
    26   13   14 ar  
    27   13   37 1   
    28   14   15 ar  
    29   14   38 1   
    30   15   16 ar  
    31   15   39 1   
    32   16   17 ar  
    33   16   40 1   
    34   17   41 1   
    35   18   19 1   
    36   18   23 2   
    37   19   20 1   
    38   19   25 1   
    39   19   55 1   
    40   20   24 1   
    41   20   26 1   
    42   20   42 1   
    43   24   27 1   
    44   24   43 1   
    45   24   44 1   
    46   25   45 1   
    47   25   46 1   
    48   25   47 1   
    49   26   28 1   
    50   26   48 1   
    51   26   49 1   
    52   27   29 1   
    53   27   50 1   
    54   27   51 1   
    55   28   29 1   
    56   28   52 1   
    57   28   53 1   
    58   29   54 1   
@<TRIPOS>SUBSTRUCTURE
     1 N2T         1 TEMP              0 ****  ****    0 ROOT
