@<TRIPOS>MOLECULE
N2T
   55    58     1     0     0
SMALL
bcc


@<TRIPOS>ATOM
      1 C1         -0.0160    1.1250    2.5560 ca        1 N2T      0.133900
      2 C2          1.2840    1.0760    2.0300 ca        1 N2T     -0.132000
      3 C3          2.0150   -0.1220    2.0240 ca        1 N2T     -0.060800
      4 C4          1.4020   -1.2790    2.5620 ca        1 N2T      0.109900
      5 C5          0.0970   -1.2260    3.0900 ca        1 N2T     -0.127000
      6 C6         -0.6120   -0.0350    3.0900 ca        1 N2T     -0.120000
      7 C10         3.3510   -0.1220    1.4730 ce        1 N2T     -0.064400
      8 C11         4.1840   -1.3930    1.3830 c3        1 N2T      0.102200
      9 N12         5.4440   -0.9790    0.7630 n         1 N2T     -0.438800
     10 C13         5.4260    0.4890    0.4840 c3        1 N2T      0.193200
     11 C14         4.0550    0.9200    0.9720 c2        1 N2T     -0.148200
     12 C17         6.5420    1.2260    1.1600 ca        1 N2T     -0.138300
     13 C19         6.3960    1.7260    2.4580 ca        1 N2T     -0.103000
     14 C20         7.4340    2.4450    3.0490 ca        1 N2T     -0.129500
     15 C21         8.6210    2.6630    2.3490 ca        1 N2T     -0.097000
     16 C22         8.7730    2.1590    1.0570 ca        1 N2T     -0.129500
     17 C23         7.7380    1.4390    0.4620 ca        1 N2T     -0.103000
     18 C8          6.2990   -1.8010    0.0910 c         1 N2T      0.647100
     19 N1          6.2600   -3.3060    0.4320 nx        1 N2T     -0.576200
     20 C35         7.3220   -3.6010    1.4750 c3        1 N2T      0.132500
     21 F40         2.0530   -2.4700    2.5840 f         1 N2T     -0.154900
     22 F41        -0.6970    2.2920    2.5490 f         1 N2T     -0.117900
     23 O2          7.1720   -1.4660   -0.7200 o         1 N2T     -0.511100
     24 C15         7.0080   -4.8910    2.2420 c3        1 N2T     -0.101400
     25 C26         6.4170   -4.1000   -0.8080 c3        1 N2T      0.087100
     26 C12         8.7360   -3.6690    0.8940 c3        1 N2T     -0.101400
     27 C9          8.0670   -5.0900    3.3340 c3        1 N2T      0.169300
     28 C16         9.7300   -3.9030    2.0360 c3        1 N2T      0.169300
     29 N2          9.4110   -5.0900    2.8000 n7        1 N2T     -0.833200
     30 H2          1.7250    1.9970    1.6170 ha        1 N2T      0.160000
     31 H5         -0.3530   -2.1430    3.5030 ha        1 N2T      0.168000
     32 H6         -1.6330    0.0140    3.5010 ha        1 N2T      0.173000
     33 H111        3.6430   -2.1600    0.7610 h1        1 N2T      0.074700
     34 H112        4.3810   -1.8100    2.4100 h1        1 N2T      0.074700
     35 H13         5.5050    0.6400   -0.6360 h1        1 N2T      0.097700
     36 H14         3.7650    1.9700    0.8860 ha        1 N2T      0.185000
     37 H19         5.4580    1.5620    3.0110 ha        1 N2T      0.142000
     38 H20         7.3130    2.8450    4.0670 ha        1 N2T      0.148500
     39 H21         9.4370    3.2380    2.8150 ha        1 N2T      0.150000
     40 H22         9.7070    2.3330    0.5030 ha        1 N2T      0.148500
     41 H23         7.8600    1.0340   -0.5560 ha        1 N2T      0.142000
     42 H35         7.2760   -2.7330    2.2040 hx        1 N2T      0.101700
     43 H151        6.0030   -4.8320    2.7330 hc        1 N2T      0.073950
     44 H152        7.0140   -5.7730    1.5490 hc        1 N2T      0.073950
     45 H261        7.3250   -3.7470   -1.3730 hx        1 N2T      0.107367
     46 H262        6.5370   -5.1830   -0.5410 hx        1 N2T      0.107367
     47 H263        5.5080   -3.9590   -1.4500 hx        1 N2T      0.107367
     48 H121        8.8170   -4.5090    0.1540 hc        1 N2T      0.073950
     49 H122        8.9950   -2.7110    0.3730 hc        1 N2T      0.073950
     50 H91         7.9110   -4.2930    4.1200 h1        1 N2T      0.053450
     51 H92         7.8890   -6.0920    3.8190 h1        1 N2T      0.053450
     52 H161        9.7620   -2.9710    2.6740 h1        1 N2T      0.053450
     53 H162       10.7550   -4.0490    1.5890 h1        1 N2T      0.053450
     54 HN2        10.0870   -5.2520    3.5210 hn        1 N2T      0.399800
     55 H11         5.3550   -3.5500    0.8530 hn        1 N2T      0.442800
@<TRIPOS>BOND
     1    1    2 ar  
     2    1    6 ar  
     3    1   22 1   
     4    2    3 ar  
     5    2   30 1   
     6    3    4 ar  
     7    3    7 1   
     8    4    5 ar  
     9    4   21 1   
    10    5    6 ar  
    11    5   31 1   
    12    6   32 1   
    13    7    8 1   
    14    7   11 2   
    15    8    9 1   
    16    8   33 1   
    17    8   34 1   
    18    9   10 1   
    19    9   18 1   
    20   10   11 1   
    21   10   12 1   
    22   10   35 1   
    23   11   36 1   
    24   12   13 ar  
    25   12   17 ar  
    26   13   14 ar  
    27   13   37 1   
    28   14   15 ar  
    29   14   38 1   
    30   15   16 ar  
    31   15   39 1   
    32   16   17 ar  
    33   16   40 1   
    34   17   41 1   
    35   18   19 1   
    36   18   23 2   
    37   19   20 1   
    38   19   25 1   
    39   19   55 1   
    40   20   24 1   
    41   20   26 1   
    42   20   42 1   
    43   24   27 1   
    44   24   43 1   
    45   24   44 1   
    46   25   45 1   
    47   25   46 1   
    48   25   47 1   
    49   26   28 1   
    50   26   48 1   
    51   26   49 1   
    52   27   29 1   
    53   27   50 1   
    54   27   51 1   
    55   28   29 1   
    56   28   52 1   
    57   28   53 1   
    58   29   54 1   
@<TRIPOS>SUBSTRUCTURE
     1 N2T         1 TEMP              0 ****  ****    0 ROOT
