@<TRIPOS>MOLECULE
N2T
   55    58     1     0     0
SMALL
bcc


@<TRIPOS>ATOM
      1 C1         -0.0020    1.1420    2.5610 ca        1 N2T      0.133900
      2 C2          1.3060    1.1000    2.0530 ca        1 N2T     -0.132000
      3 C3          2.0250   -0.1040    2.0130 ca        1 N2T     -0.060800
      4 C4          1.3930   -1.2750    2.4980 ca        1 N2T      0.109900
      5 C5          0.0810   -1.2280    3.0090 ca        1 N2T     -0.127000
      6 C6         -0.6170   -0.0310    3.0430 ca        1 N2T     -0.120000
      7 C10         3.3690   -0.0970    1.4820 ce        1 N2T     -0.064400
      8 C11         4.1920   -1.3720    1.3590 c3        1 N2T      0.102200
      9 N12         5.4650   -0.9480    0.7730 n         1 N2T     -0.438800
     10 C13         5.4630    0.5300    0.5460 c3        1 N2T      0.193200
     11 C14         4.0890    0.9560    1.0290 c2        1 N2T     -0.148200
     12 C17         6.5760    1.2320    1.2640 ca        1 N2T     -0.139300
     13 C19         6.4150    1.6860    2.5770 ca        1 N2T     -0.103000
     14 C20         7.4500    2.3740    3.2080 ca        1 N2T     -0.129500
     15 C21         8.6490    2.6070    2.5340 ca        1 N2T     -0.097000
     16 C22         8.8160    2.1470    1.2270 ca        1 N2T     -0.129500
     17 C23         7.7840    1.4580    0.5920 ca        1 N2T     -0.103000
     18 C8          6.3240   -1.7530    0.0860 c         1 N2T      0.647100
     19 N1          6.2660   -3.2690    0.3730 n4        1 N2T     -0.576200
     20 C35         7.3080   -3.6100    1.4220 c3        1 N2T      0.132500
     21 F40         2.0320   -2.4720    2.4850 f         1 N2T     -0.154900
     22 F41        -0.6720    2.3160    2.5880 f         1 N2T     -0.117900
     23 O2          7.2130   -1.3980   -0.6990 o         1 N2T     -0.511100
     24 C15         6.9710   -4.9240    2.1370 c3        1 N2T     -0.101400
     25 C26         6.4380   -4.0200   -0.8920 c3        1 N2T      0.087100
     26 C12         8.7310   -3.6700    0.8630 c3        1 N2T     -0.101400
     27 C9          8.0090   -5.1710    3.2390 c3        1 N2T      0.169300
     28 C16         9.7040   -3.9530    2.0120 c3        1 N2T      0.169300
     29 N2          9.3610   -5.1630    2.7280 n3        1 N2T     -0.833200
     30 H2          1.7610    2.0310    1.6820 ha        1 N2T      0.160000
     31 H5         -0.3840   -2.1550    3.3800 ha        1 N2T      0.168000
     32 H6         -1.6440    0.0130    3.4410 ha        1 N2T      0.173000
     33 H111        4.3700   -1.8280    2.3730 h1        1 N2T      0.074700
     34 H112        3.6540   -2.1110    0.7020 h1        1 N2T      0.074700
     35 H13         5.5610    0.7190   -0.5670 h1        1 N2T      0.097700
     36 H14         3.8100    2.0100    0.9760 ha        1 N2T      0.185000
     37 H19         5.4670    1.5120    3.1100 ha        1 N2T      0.142000
     38 H20         7.3170    2.7390    4.2390 ha        1 N2T      0.148500
     39 H21         9.4630    3.1580    3.0320 ha        1 N2T      0.150000
     40 H22         9.7600    2.3330    0.6930 ha        1 N2T      0.148500
     41 H23         7.9180    1.0890   -0.4380 ha        1 N2T      0.142000
     42 H35         7.2560   -2.7680    2.1810 hx        1 N2T      0.101700
     43 H151        6.9820   -5.7800    1.4140 hc        1 N2T      0.073950
     44 H152        5.9570   -4.8730    2.6130 hc        1 N2T      0.073950
     45 H261        6.5440   -5.1130   -0.6610 hx        1 N2T      0.107367
     46 H262        5.5410   -3.8480   -1.5440 hx        1 N2T      0.107367
     47 H263        7.3580   -3.6550   -1.4280 hx        1 N2T      0.107367
     48 H121        8.8180   -4.4830    0.0950 hc        1 N2T      0.073950
     49 H122        9.0070   -2.6950    0.3810 hc        1 N2T      0.073950
     50 H91         7.8150   -6.1880    3.6840 h1        1 N2T      0.053450
     51 H92         7.8460   -4.4010    4.0500 h1        1 N2T      0.053450
     52 H161        9.7310   -3.0440    2.6840 h1        1 N2T      0.053450
     53 H162       10.7340   -4.0920    1.5770 h1        1 N2T      0.053450
     54 HN2        10.0240   -5.3570    3.4540 hn        1 N2T      0.399800
     55 H11         5.3520   -3.5190    0.7700 hn        1 N2T      0.442800
@<TRIPOS>BOND
     1    1    2 ar  
     2    1    6 ar  
     3    1   22 1   
     4    2    3 ar  
     5    2   30 1   
     6    3    4 ar  
     7    3    7 1   
     8    4    5 ar  
     9    4   21 1   
    10    5    6 ar  
    11    5   31 1   
    12    6   32 1   
    13    7    8 1   
    14    7   11 2   
    15    8    9 1   
    16    8   33 1   
    17    8   34 1   
    18    9   10 1   
    19    9   18 1   
    20   10   11 1   
    21   10   12 1   
    22   10   35 1   
    23   11   36 1   
    24   12   13 ar  
    25   12   17 ar  
    26   13   14 ar  
    27   13   37 1   
    28   14   15 ar  
    29   14   38 1   
    30   15   16 ar  
    31   15   39 1   
    32   16   17 ar  
    33   16   40 1   
    34   17   41 1   
    35   18   19 1   
    36   18   23 2   
    37   19   20 1   
    38   19   25 1   
    39   19   55 1   
    40   20   24 1   
    41   20   26 1   
    42   20   42 1   
    43   24   27 1   
    44   24   43 1   
    45   24   44 1   
    46   25   45 1   
    47   25   46 1   
    48   25   47 1   
    49   26   28 1   
    50   26   48 1   
    51   26   49 1   
    52   27   29 1   
    53   27   50 1   
    54   27   51 1   
    55   28   29 1   
    56   28   52 1   
    57   28   53 1   
    58   29   54 1   
@<TRIPOS>SUBSTRUCTURE
     1 N2T         1 TEMP              0 ****  ****    0 ROOT
