@<TRIPOS>MOLECULE
N2Y
   25    23     1     0     0
SMALL
bcc


@<TRIPOS>ATOM
      1 N2         -0.5060   -0.1410    0.2930 n2        1 N2Y     -0.282000
      2 N3          2.6430    0.1610    2.3950 n2        1 N2Y     -0.333000
      3 C1          0.3420   -0.4170   -0.5840 c1        1 N2Y      0.123000
      4 N4          1.1650   -0.9440   -1.3520 n2        1 N2Y     -0.282000
      5 C2          4.3430    0.4110   -1.8690 c3        1 N2Y     -0.287000
      6 C3          3.4660    0.4300    1.5920 c1        1 N2Y      0.108000
      7 C4          1.0220   -4.2960    4.0820 c2        1 N2Y     -0.092000
      8 Cl1         0.7490   -5.9570    4.3780 cl        1 N2Y      0.044000
      9 N6          2.2500   -3.8210    4.1480 n2        1 N2Y     -0.074000
     10 C5          2.4310   -2.4670    3.8890 c2        1 N2Y     -0.103000
     11 C6          1.4210   -1.6060    3.5740 c2        1 N2Y     -0.141000
     12 C7          0.0320   -2.1150    3.4870 c3        1 N2Y     -0.234000
     13 C8         -0.1830   -3.5220    3.7880 c1        1 N2Y     -0.013000
     14 H1         -1.3170    0.3770    0.0360 hn        1 N2Y      0.219500
     15 H3          4.2580   -0.6390   -2.2250 hc        1 N2Y      0.072250
     16 H4          5.3650    0.7900   -2.0860 hc        1 N2Y      0.072250
     17 H5          3.4880   -2.1500    3.9600 h4        1 N2Y      0.173000
     18 H6         -0.3710   -1.9510    2.4350 hc        1 N2Y      0.193500
     19 H7         -0.6570   -1.5160    4.1570 hc        1 N2Y      0.193500
     20 H8          0.6680    0.3140    2.9570 h1        1 N2Y      0.115500
     21 H9          1.8990    0.3460    4.3130 h1        1 N2Y      0.115500
     22 H2          2.0430   -0.5150   -1.5500 hn        1 N2Y      0.219500
     23 H10         3.5990    1.0460   -2.3980 hc        1 N2Y      0.072250
     24 H11         4.1620    0.4520   -0.7700 hc        1 N2Y      0.072250
     25 C9          1.6360   -0.1440    3.3260 c3        1 N2Y      0.049000
@<TRIPOS>BOND
     1    1    3 1   
     2    1   14 1   
     3    2    6 1   
     4    2   25 1   
     5    3    4 1   
     6    4   22 1   
     7    5   15 1   
     8    5   16 1   
     9    5   23 1   
    10    5   24 1   
    11    7    8 1   
    12    7    9 1   
    13    7   13 1   
    14    9   10 1   
    15   10   11 1   
    16   10   17 1   
    17   11   12 1   
    18   11   25 1   
    19   12   13 1   
    20   12   18 1   
    21   12   19 1   
    22   20   25 1   
    23   21   25 1   
@<TRIPOS>SUBSTRUCTURE
     1 N2Y         1 TEMP              0 ****  ****    0 ROOT
