@<TRIPOS>MOLECULE
N2Y
   25    22     1     0     0
SMALL
bcc


@<TRIPOS>ATOM
      1 N2         -0.2770   -2.3720   -0.7920 n2        1 N2Y     -0.752300
      2 N3          3.0160   -0.2650    2.0500 n1        1 N2Y     -0.818300
      3 C1          0.4270   -1.3940   -1.1320 c1        1 N2Y      0.562800
      4 N4          0.9040   -0.2840   -1.4210 n2        1 N2Y     -0.752300
      5 C2          3.9840    1.3500   -2.1810 c3        1 N2Y     -0.120800
      6 C3          2.9700   -0.1600    0.8780 c1        1 N2Y      0.397800
      7 C4          0.0370   -3.3440    5.0730 ce        1 N2Y      0.584200
      8 CL1        -1.0240   -4.2850    6.0650 cl        1 N2Y     -0.098300
      9 N6          1.1760   -2.9780    5.5680 nf        1 N2Y     -0.580300
     10 C5          2.1220   -2.2120    4.8890 cf        1 N2Y      0.082600
     11 C6          1.9120   -1.2300    3.9920 c2        1 N2Y     -0.224200
     12 C7         -0.9740   -2.9490    2.6940 c1        1 N2Y     -0.028500
     13 C8         -0.5060   -3.1180    3.7840 cg        1 N2Y     -0.262200
     14 H1         -0.2910   -3.1770   -1.3770 hn        1 N2Y      0.468400
     15 H3          4.6510    0.7050   -2.7940 hc        1 N2Y      0.030200
     16 H4          3.8600    0.9010   -1.1690 hc        1 N2Y      0.030200
     17 H5          3.1440   -2.4630    5.2450 h4        1 N2Y      0.157000
     18 H6          0.9020   -0.9630    3.6400 ha        1 N2Y      0.150000
     19 H7         -1.3730   -2.7900    1.7180 ha        1 N2Y      0.193500
     20 H8          2.9810    0.6250    3.9130 h1        1 N2Y      0.069200
     21 H9          4.0350   -0.8600    3.7440 h1        1 N2Y      0.069200
     22 H2          1.8070   -0.0000   -1.0980 hn        1 N2Y      0.468400
     23 H10         2.9920    1.4330   -2.6750 hc        1 N2Y      0.030200
     24 H11         4.4350    2.3620   -2.0850 hc        1 N2Y      0.030200
     25 C9          3.0410   -0.4080    3.4510 c3        1 N2Y      0.314300
@<TRIPOS>BOND
     1    1    3 2   
     2    1   14 1   
     3    2    6 3   
     4    2   25 1   
     5    3    4 2   
     6    4   22 1   
     7    5   15 1   
     8    5   16 1   
     9    5   23 1   
    10    5   24 1   
    11    7    8 1   
    12    7    9 2   
    13    7   13 1   
    14    9   10 1   
    15   10   11 2   
    16   10   17 1   
    17   11   18 1   
    18   11   25 1   
    19   12   13 3   
    20   12   19 1   
    21   20   25 1   
    22   21   25 1   
@<TRIPOS>SUBSTRUCTURE
     1 N2Y         1 TEMP              0 ****  ****    0 ROOT
