@<TRIPOS>MOLECULE
N31
   52    53     1     0     0
SMALL
bcc


@<TRIPOS>ATOM
      1 C1         -6.7810   -0.9760    1.0760 ca        1 N31     -0.135000
      2 C2         -8.6140   -0.9800   -1.1300 ca        1 N31     -0.067000
      3 C3         -8.8310   -1.7530    0.0020 ca        1 N31     -0.154000
      4 C4         -7.9340   -1.7500    1.0840 ca        1 N31     -0.112000
      5 C5         -7.4620   -0.1860   -1.1810 ca        1 N31      0.063400
      6 C6         -3.1840   -0.0520    0.0250 c3        1 N31     -0.183400
      7 N1         -5.5180    0.7120   -0.3940 na        1 N31     -0.177300
      8 C8         -6.5390   -0.1920   -0.0560 ca        1 N31     -0.072200
      9 C9         -5.8340    1.1880   -1.6890 cc        1 N31      0.420700
     10 N2         -6.9790    0.6930   -2.1760 nd        1 N31     -0.563100
     11 C10        -1.9540    0.3140    0.8310 c         1 N31      0.653100
     12 O1         -1.9170    1.3210    1.5650 o         1 N31     -0.603100
     13 N3         -0.8840   -0.5720    0.7660 n         1 N31     -0.538900
     14 C11         0.3970   -0.2250    1.3090 c3        1 N31      0.009000
     15 C12         1.4750    0.0040    0.2340 c         1 N31      0.631100
     16 O3          1.3440   -0.4330   -0.9270 o         1 N31     -0.616100
     17 N4          2.5820    0.7340    0.6190 n         1 N31     -0.542900
     18 C13         3.7480    0.8510   -0.2210 c3        1 N31      0.034700
     19 C14         4.9550    0.0840    0.3810 c         1 N31      0.634100
     20 O5          5.0590   -0.1120    1.6090 o         1 N31     -0.617100
     21 C15         4.1970    2.3010   -0.4150 c3        1 N31     -0.109100
     22 N5          5.8900   -0.3940   -0.5160 n         1 N31     -0.540900
     23 C16         7.1500   -0.9450   -0.0780 c3        1 N31      0.031700
     24 C17         8.3220    0.0230   -0.3820 c         1 N31      0.632100
     25 O7          8.2960    0.7930   -1.3640 o         1 N31     -0.621100
     26 C18         7.4820   -2.2740   -0.7600 c3        1 N31     -0.103100
     27 N6          9.4110   -0.0180    0.4450 n         1 N31     -0.666000
     28 H1         -6.0880   -0.9750    1.9280 ha        1 N31      0.136000
     29 H2         -9.3230   -0.9840   -1.9700 ha        1 N31      0.148000
     30 H3         -9.7300   -2.3850    0.0600 ha        1 N31      0.133000
     31 H4         -8.1530   -2.3790    1.9600 ha        1 N31      0.132000
     32 H5         -3.5130   -1.0930    0.2860 hc        1 N31      0.081200
     33 H6         -4.5330    0.9120    1.4310 h1        1 N31      0.079700
     34 H7         -3.9410    1.9870    0.0810 h1        1 N31      0.079700
     35 H8         -5.1910    1.9150   -2.2000 h5        1 N31      0.068800
     36 H9         -2.9260   -0.0360   -1.0670 hc        1 N31      0.081200
     37 H11        -0.8630   -1.2140    0.0030 hn        1 N31      0.321500
     38 H13         0.2910    0.6890    1.9630 h1        1 N31      0.091700
     39 H14         0.7570   -1.0860    1.9450 h1        1 N31      0.091700
     40 H16         2.7220    0.9260    1.5860 hn        1 N31      0.326500
     41 H18         3.4880    0.4110   -1.2340 h1        1 N31      0.106700
     42 H19         4.4910    2.7650    0.5570 hc        1 N31      0.056033
     43 H20         5.0750    2.3240   -1.1050 hc        1 N31      0.056033
     44 H21         3.3720    2.9040   -0.8660 hc        1 N31      0.056033
     45 H23         5.8670   -0.0630   -1.4550 hn        1 N31      0.326500
     46 H25         7.0780   -1.1180    1.0400 h1        1 N31      0.098700
     47 H26         7.5890   -2.1420   -1.8630 hc        1 N31      0.052700
     48 H27         8.4440   -2.6630   -0.3490 hc        1 N31      0.052700
     49 H28         6.6780   -3.0220   -0.5650 hc        1 N31      0.052700
     50 H30         9.4190   -0.5840    1.2530 hn        1 N31      0.315000
     51 H31        10.1740    0.5910    0.2800 hn        1 N31      0.315000
     52 C7         -4.3080    0.9480    0.3250 c3        1 N31      0.055300
@<TRIPOS>BOND
     1    1    4 ar  
     2    1    8 ar  
     3    1   28 1   
     4    2    3 ar  
     5    2    5 ar  
     6    2   29 1   
     7    3    4 ar  
     8    3   30 1   
     9    4   31 1   
    10    5    8 ar  
    11    5   10 1   
    12    6   11 1   
    13    6   32 1   
    14    6   36 1   
    15    6   52 1   
    16    7    8 1   
    17    7    9 1   
    18    7   52 1   
    19    9   10 2   
    20    9   35 1   
    21   11   12 2   
    22   11   13 1   
    23   13   14 1   
    24   13   37 1   
    25   14   15 1   
    26   14   38 1   
    27   14   39 1   
    28   15   16 2   
    29   15   17 1   
    30   17   18 1   
    31   17   40 1   
    32   18   19 1   
    33   18   21 1   
    34   18   41 1   
    35   19   20 2   
    36   19   22 1   
    37   21   42 1   
    38   21   43 1   
    39   21   44 1   
    40   22   23 1   
    41   22   45 1   
    42   23   24 1   
    43   23   26 1   
    44   23   46 1   
    45   24   25 2   
    46   24   27 1   
    47   26   47 1   
    48   26   48 1   
    49   26   49 1   
    50   27   50 1   
    51   27   51 1   
    52   33   52 1   
    53   34   52 1   
@<TRIPOS>SUBSTRUCTURE
     1 N31         1 TEMP              0 ****  ****    0 ROOT
