@<TRIPOS>MOLECULE
N32
   58    58     1     0     0
SMALL
bcc


@<TRIPOS>ATOM
      1 C1          4.0360    0.8180    1.2290 c1        1 N32     -0.046000
      2 O19        -0.5200    3.3660    3.6050 o         1 N32     -0.261000
      3 O20         3.4720    1.3010    7.4190 o         1 N32     -0.203000
      4 N28         1.8570   -0.2750    7.9400 n4        1 N32     -0.007000
      5 C11         2.5570    0.6310    6.9580 c2        1 N32      0.261000
      6 C2          2.0620    0.6120    5.5420 c3        1 N32     -0.189000
      7 C3          2.1530    2.0010    4.9430 c3        1 N32     -0.133000
      8 C4          1.5370    2.1160    3.5350 c3        1 N32     -0.165000
      9 C5          0.0180    2.2580    3.7110 c2        1 N32      0.310000
     10 C6         -0.7250    1.0800    4.0190 c1        1 N32     -0.259000
     11 C7         -1.3830    0.1110    4.2750 c1        1 N32     -0.086000
     12 C8          1.1770    1.0670    1.2500 c3        1 N32     -0.108000
     13 C9          1.8630    0.9110    2.6130 c3        1 N32     -0.088000
     14 C10         3.3690    0.6790    2.5060 c3        1 N32     -0.216000
     15 C15         1.7890   -1.3630    0.6230 c3        1 N32     -0.259000
     16 C17         1.4190   -2.6140   -0.0020 c1        1 N32     -0.044000
     17 C29         3.4150    1.4790    0.1010 c3        1 N32     -0.222000
     18 O32        -0.3850   -5.4680    7.8170 o         1 N32     -0.489500
     19 O33        -1.3370   -3.7630    6.6920 o         1 N32     -0.489500
     20 C22         1.0430   -3.8840    6.6390 c3        1 N32     -0.105000
     21 C23         1.0760   -2.3690    6.8840 c2        1 N32      0.225000
     22 C24         2.0280   -1.6860    7.6390 c2        1 N32     -0.414000
     23 C25         3.2820   -2.3250    8.3310 c3        1 N32      0.266000
     24 C26         3.0580   -3.7200    8.0220 c1        1 N32     -0.281000
     25 C27         2.2210   -4.2970    7.3540 c1        1 N32     -0.023000
     26 H1          2.7150   -1.0110    0.0730 hc        1 N32      0.147000
     27 H2          0.8520   -0.0550    7.9290 hn        1 N32      0.260000
     28 H3          2.7260   -0.1020    4.9730 hc        1 N32      0.155000
     29 H4          1.0090    0.2190    5.4750 hc        1 N32      0.155000
     30 H5          3.2320    2.3160    4.9020 hc        1 N32      0.117500
     31 H6          1.6240    2.7330    5.6120 hc        1 N32      0.117500
     32 H7          0.2080    1.6320    1.4220 hc        1 N32      0.089000
     33 H8         -1.9550   -0.7560    4.5130 ha        1 N32      0.246000
     34 H9          1.3980    0.0110    3.1110 hc        1 N32      0.097000
     35 H10         3.6120   -0.3490    2.9000 hc        1 N32      0.145000
     36 H11         3.9330    1.4160    3.1600 hc        1 N32      0.145000
     37 H12        -0.1300   -0.6450    1.2660 hc        1 N32      0.086500
     38 H13         0.3650   -0.0880   -0.3790 hc        1 N32      0.086500
     39 H14         0.4170   -2.6660   -0.4590 ha        1 N32      0.040000
     40 H15         2.1390   -1.6140    1.6670 hc        1 N32      0.147000
     41 H16         3.5740    4.4950    1.1540 ha        1 N32      0.001000
     42 H17         3.8690    4.6840    0.5740 ha        1 N32      0.001000
     43 H18         1.5010    4.0920    2.5660 ha        1 N32      0.074000
     44 H19         1.9650    2.9820    0.6360 hc        1 N32      0.089500
     45 H20         1.4550    1.9110   -0.7210 hc        1 N32      0.089500
     46 H21         3.5250    0.8000   -0.7930 hc        1 N32      0.147000
     47 H22         4.0610    2.3820   -0.1240 hc        1 N32      0.147000
     48 H23         2.7810   -2.6070   10.1910 ho        1 N32      0.239000
     49 H24        -0.6940   -2.2230    6.1000 ho        1 N32      0.327000
     50 H26         4.2300   -1.9010    7.8950 h1        1 N32      0.134000
     51 H27         1.0900   -4.0980    5.5370 hc        1 N32      0.157000
     52 C14         0.7430   -0.2710    0.6640 c3        1 N32     -0.179000
     53 C18         2.1790    3.2980    2.9190 c1        1 N32     -0.007000
     54 O31         0.0840   -1.6330    6.3330 oh        1 N32     -0.332000
     55 O30         3.3030   -1.9640    9.6930 oh        1 N32     -0.340000
     56 H282        2.2410   -0.1150    8.8880 hn        1 N32      0.260000
     57 C28         1.9760    1.9150    0.2730 c3        1 N32     -0.180000
     58 C21        -0.3580   -4.4470    7.1190 c2        1 N32      0.365000
@<TRIPOS>BOND
     1    1   14 1   
     2    1   17 1   
     3    2    9 1   
     4    3    5 1   
     5    4    5 1   
     6    4   22 1   
     7    4   27 1   
     8    4   56 1   
     9    5    6 1   
    10    6    7 1   
    11    6   28 1   
    12    6   29 1   
    13    7    8 1   
    14    7   30 1   
    15    7   31 1   
    16    8    9 1   
    17    8   13 1   
    18    8   53 1   
    19    9   10 1   
    20   10   11 1   
    21   11   33 1   
    22   12   13 1   
    23   12   32 1   
    24   12   52 1   
    25   12   57 1   
    26   13   14 1   
    27   13   34 1   
    28   14   35 1   
    29   14   36 1   
    30   15   16 1   
    31   15   26 1   
    32   15   40 1   
    33   15   52 1   
    34   16   39 1   
    35   17   46 1   
    36   17   47 1   
    37   17   57 1   
    38   18   58 1   
    39   19   58 1   
    40   20   21 1   
    41   20   25 1   
    42   20   51 1   
    43   20   58 1   
    44   21   22 1   
    45   21   54 1   
    46   22   23 1   
    47   23   24 1   
    48   23   50 1   
    49   23   55 1   
    50   24   25 1   
    51   37   52 1   
    52   38   52 1   
    53   41   42 1   
    54   43   53 1   
    55   44   57 1   
    56   45   57 1   
    57   48   55 1   
    58   49   54 1   
@<TRIPOS>SUBSTRUCTURE
     1 N32         1 TEMP              0 ****  ****    0 ROOT
