@<TRIPOS>MOLECULE
N32
   57    60     1     0     0
SMALL
bcc


@<TRIPOS>ATOM
      1 C1         -2.7130    2.2320   -0.5020 c3        1 N32     -0.028500
      2 O19        -3.0840   -3.5190    1.4600 o         1 N32     -0.536100
      3 O20         1.7060   -3.2330    0.3470 o         1 N32     -0.613100
      4 N28         1.2480   -1.2930   -0.8350 n         1 N32     -0.417100
      5 C11         0.8830   -2.3780   -0.0380 c         1 N32      0.641100
      6 C2         -0.6030   -2.5500    0.2450 c3        1 N32     -0.165400
      7 C3         -1.0520   -1.5650    1.3060 c3        1 N32     -0.074400
      8 C4         -2.5350   -1.1690    1.2170 c3        1 N32     -0.125000
      9 C5         -3.4090   -2.4060    1.0280 c         1 N32      0.568300
     10 C6         -4.7090   -2.2110    0.3620 ce        1 N32     -0.255200
     11 C7         -5.0660   -1.0710   -0.2380 c2        1 N32     -0.085200
     12 C8         -4.1880    0.1280   -0.3240 c3        1 N32     -0.029800
     13 C9         -2.7250   -0.2140    0.0290 c3        1 N32     -0.043700
     14 C10        -1.9190    1.0810    0.1160 c3        1 N32     -0.074400
     15 C14        -4.1700    0.6590   -1.7750 c3        1 N32     -0.034200
     16 C15        -3.2240    1.8140   -1.8510 c2        1 N32     -0.109400
     17 C17        -2.8720    2.4020   -2.9940 c2        1 N32     -0.223000
     18 C18        -2.9430   -0.5760    2.5640 c3        1 N32     -0.086100
     19 C28        -4.7500    1.2570    0.5530 c3        1 N32     -0.062400
     20 C29        -3.9150    2.5190    0.3970 c3        1 N32     -0.071400
     21 O32         4.8400    3.5000    0.3920 o         1 N32     -0.831300
     22 O33         2.6340    3.4770    0.6840 o         1 N32     -0.831300
     23 C22         3.6840    1.4750   -0.1240 ca        1 N32     -0.233600
     24 C23         2.4960    0.7300   -0.1880 ca        1 N32      0.182100
     25 C24         2.4860   -0.6150   -0.6760 ca        1 N32     -0.137400
     26 C25         3.7230   -1.1890   -1.0450 ca        1 N32      0.168100
     27 C26         4.9120   -0.4480   -0.9630 ca        1 N32     -0.222000
     28 C27         4.8780    0.8670   -0.5180 ca        1 N32     -0.040000
     29 H1         -2.0610    3.1410   -0.5800 hc        1 N32      0.075700
     30 H2          0.5010   -0.6440   -1.0000 hn        1 N32      0.301500
     31 H3         -1.1870   -2.4290   -0.7040 hc        1 N32      0.071700
     32 H4         -0.7740   -3.5990    0.6070 hc        1 N32      0.071700
     33 H5         -0.8670   -2.0360    2.3090 hc        1 N32      0.069700
     34 H6         -0.4390   -0.6240    1.2620 hc        1 N32      0.069700
     35 H7         -5.3820   -3.0840    0.3900 ha        1 N32      0.141000
     36 H8         -6.0550   -0.9650   -0.7150 ha        1 N32      0.123000
     37 H9         -2.3290   -0.7830   -0.8670 hc        1 N32      0.049700
     38 H10        -0.9430    0.9620   -0.4270 hc        1 N32      0.068700
     39 H11        -1.6650    1.3430    1.1740 hc        1 N32      0.068700
     40 H12        -3.8560   -0.1540   -2.4780 hc        1 N32      0.048200
     41 H13        -5.2020    0.9850   -2.0690 hc        1 N32      0.048200
     42 H14        -2.1700    3.2450   -3.0280 ha        1 N32      0.114500
     43 H15        -3.2550    2.0680   -3.9660 ha        1 N32      0.114500
     44 H16        -2.5530    0.4620    2.6800 hc        1 N32      0.044367
     45 H17        -4.0560   -0.5580    2.6660 hc        1 N32      0.044367
     46 H18        -2.5360   -1.2020    3.3960 hc        1 N32      0.044367
     47 H19        -5.8100    1.4560    0.2450 hc        1 N32      0.039700
     48 H20        -4.7710    0.9390    1.6240 hc        1 N32      0.039700
     49 H21        -3.5520    2.8680    1.3980 hc        1 N32      0.043200
     50 H22        -4.5310    3.3410   -0.0460 hc        1 N32      0.043200
     51 H23         3.1380   -3.0150   -1.1820 ho        1 N32      0.438000
     52 H24         1.3830    2.1660    0.4710 ho        1 N32      0.496000
     53 H26         5.8540   -0.9250   -1.2610 ha        1 N32      0.132000
     54 H27         5.8040    1.4660   -0.4570 ha        1 N32      0.159000
     55 C21         3.7260    2.9140    0.3500 c         1 N32      0.921200
     56 O31         1.2750    1.2290    0.1860 oh        1 N32     -0.583100
     57 O30         3.8540   -2.4680   -1.5390 oh        1 N32     -0.526100
@<TRIPOS>BOND
     1    1   14 1   
     2    1   16 1   
     3    1   20 1   
     4    1   29 1   
     5    2    9 2   
     6    3    5 2   
     7    4    5 1   
     8    4   25 1   
     9    4   30 1   
    10    5    6 1   
    11    6    7 1   
    12    6   31 1   
    13    6   32 1   
    14    7    8 1   
    15    7   33 1   
    16    7   34 1   
    17    8    9 1   
    18    8   13 1   
    19    8   18 1   
    20    9   10 1   
    21   10   11 2   
    22   10   35 1   
    23   11   12 1   
    24   11   36 1   
    25   12   13 1   
    26   12   15 1   
    27   12   19 1   
    28   13   14 1   
    29   13   37 1   
    30   14   38 1   
    31   14   39 1   
    32   15   16 1   
    33   15   40 1   
    34   15   41 1   
    35   16   17 2   
    36   17   42 1   
    37   17   43 1   
    38   18   44 1   
    39   18   45 1   
    40   18   46 1   
    41   19   20 1   
    42   19   47 1   
    43   19   48 1   
    44   20   49 1   
    45   20   50 1   
    46   21   55 1   
    47   22   55 1   
    48   23   24 ar  
    49   23   28 ar  
    50   23   55 1   
    51   24   25 ar  
    52   24   56 1   
    53   25   26 ar  
    54   26   27 ar  
    55   26   57 1   
    56   27   28 ar  
    57   27   53 1   
    58   28   54 1   
    59   51   57 1   
    60   52   56 1   
@<TRIPOS>SUBSTRUCTURE
     1 N32         1 TEMP              0 ****  ****    0 ROOT
