@<TRIPOS>MOLECULE
N32
   57    57     1     0     0
SMALL
bcc


@<TRIPOS>ATOM
      1 C1          3.0700   -0.1960    0.5750 cx        1 N32     -0.157000
      2 O19         1.6270    5.0250    2.8030 o         1 N32     -0.315000
      3 O20         2.8220   -0.6710    4.8930 oh        1 N32     -0.311000
      4 N28         1.0270   -1.8750    6.0750 n3        1 N32     -0.178000
      5 C11         1.6280   -0.6550    5.6220 c2        1 N32     -0.150000
      6 C2          1.0350    0.5480    5.7920 c1        1 N32      0.138000
      7 C3          2.8900    2.6550    5.3030 c3        1 N32     -0.197000
      8 C4          2.9480    3.7330    4.2890 c2        1 N32     -0.169000
      9 C5          1.7640    3.9600    3.4250 c2        1 N32      0.241000
     10 C6          0.7210    2.8800    3.3000 c3        1 N32     -0.279000
     11 C7          0.7870    1.9750    2.1750 c1        1 N32     -0.030000
     12 C8          1.9520    1.8850    1.2920 c3        1 N32     -0.142000
     13 C9          2.8500    0.7430    1.7460 cx        1 N32     -0.144000
     14 C10         4.1980    0.6630    1.0810 cx        1 N32     -0.200000
     15 C15        -2.9320   -0.3040    1.6150 c2        1 N32     -0.291000
     16 C17        -3.9960   -0.7670    0.8030 c1        1 N32     -0.107000
     17 C28         1.5210    1.5450   -0.1490 c3        1 N32     -0.138000
     18 C29         2.2980    0.3120   -0.6130 c3        1 N32     -0.135000
     19 O32         3.2040   -6.1830    9.2170 o         1 N32     -0.534500
     20 O33         3.9970   -5.7430    7.1690 o         1 N32     -0.534500
     21 C22         3.3860   -3.8620    8.5090 c3        1 N32     -0.067000
     22 C23         2.7350   -3.1730    7.2930 c2        1 N32      0.102000
     23 C24         1.5970   -2.3880    7.2810 c2        1 N32     -0.248000
     24 C25         0.7870   -1.9830    8.5550 c3        1 N32      0.260000
     25 C26         1.5170   -2.7040    9.5890 c1        1 N32     -0.291000
     26 C27         2.5140   -3.4000    9.5600 c1        1 N32     -0.083000
     27 H1          3.1120   -1.2880    0.7010 hc        1 N32      0.134000
     28 H2          1.1110   -2.5630    5.3410 hn        1 N32      0.182000
     29 H3          2.8740    1.6490    4.8020 hc        1 N32      0.098667
     30 H4          3.3780   -1.3950    5.2240 ho        1 N32      0.250000
     31 H5          1.9740    2.7560    5.9410 hc        1 N32      0.098667
     32 H6          3.7850    2.6870    5.9730 hc        1 N32      0.098667
     33 H7         -0.2960    3.3770    3.2550 hc        1 N32      0.178500
     34 H8          0.6920    2.2140    4.2240 hc        1 N32      0.178500
     35 H9          2.7200    0.3810    2.7810 hc        1 N32      0.156000
     36 H10         5.0230    0.1790    1.6340 hc        1 N32      0.110000
     37 H11         4.5490    1.5100    0.4650 hc        1 N32      0.110000
     38 H12        -1.0480    0.7610    1.6380 ha        1 N32      0.141500
     39 H13        -1.8940    0.5960   -0.0220 ha        1 N32      0.141500
     40 H14        -2.9160   -0.4950    2.7060 ha        1 N32      0.100000
     41 H15        -4.7000   -1.4690    1.2780 ha        1 N32      0.032000
     42 H16         4.9390    4.3690    4.7460 ha        1 N32      0.122000
     43 H17         4.0750    5.3070    3.3890 ha        1 N32      0.122000
     44 H18         2.5550    2.8400    1.2760 hc        1 N32      0.087000
     45 H19         0.4200    1.3370   -0.1770 hc        1 N32      0.087000
     46 H20         1.5970   -0.4750   -0.9870 hc        1 N32      0.083500
     47 H21         1.7230    2.4160   -0.8190 hc        1 N32      0.087000
     48 H22         2.9920    0.5760   -1.4520 hc        1 N32      0.083500
     49 H23        -0.6380   -3.2500    8.2480 ho        1 N32      0.212000
     50 H24         3.8860   -4.1970    6.1280 ho        1 N32      0.299000
     51 H26         0.8050   -0.8660    8.6950 h1        1 N32      0.119000
     52 H27         4.4360   -3.4760    8.6200 hc        1 N32      0.124000
     53 C14        -1.9160    0.3870    1.0590 c2        1 N32     -0.027000
     54 C21         3.5170   -5.4030    8.2940 c2        1 N32      0.354000
     55 C18         4.0350    4.5020    4.1360 c2        1 N32     -0.155000
     56 O31         3.3880   -3.3440    6.1010 oh        1 N32     -0.337000
     57 O30        -0.5780   -2.3090    8.4570 oh        1 N32     -0.311000
@<TRIPOS>BOND
     1    1   13 1   
     2    1   14 1   
     3    1   18 1   
     4    1   27 1   
     5    2    9 1   
     6    3    5 1   
     7    3   30 1   
     8    4    5 1   
     9    4   23 1   
    10    4   28 1   
    11    5    6 1   
    12    7    8 1   
    13    7   29 1   
    14    7   31 1   
    15    7   32 1   
    16    8    9 1   
    17    8   55 1   
    18    9   10 1   
    19   10   11 1   
    20   10   33 1   
    21   10   34 1   
    22   11   12 1   
    23   12   13 1   
    24   12   17 1   
    25   12   44 1   
    26   13   14 1   
    27   13   35 1   
    28   14   36 1   
    29   14   37 1   
    30   15   16 1   
    31   15   40 1   
    32   15   53 1   
    33   16   41 1   
    34   17   18 1   
    35   17   45 1   
    36   17   47 1   
    37   18   46 1   
    38   18   48 1   
    39   19   54 1   
    40   20   54 1   
    41   21   22 1   
    42   21   26 1   
    43   21   52 1   
    44   21   54 1   
    45   22   23 1   
    46   22   56 1   
    47   23   24 1   
    48   24   25 1   
    49   24   51 1   
    50   24   57 1   
    51   25   26 1   
    52   38   53 1   
    53   39   53 1   
    54   42   55 1   
    55   43   55 1   
    56   49   57 1   
    57   50   56 1   
@<TRIPOS>SUBSTRUCTURE
     1 N32         1 TEMP              0 ****  ****    0 ROOT
