@<TRIPOS>MOLECULE
N32
   57    58     1     0     0
SMALL
bcc


@<TRIPOS>ATOM
      1 C1          2.5650    0.4550   -0.0050 c3        1 N32     -0.125000
      2 O19         2.2770    4.6870    2.4220 o         1 N32     -0.300000
      3 O20         1.5630    0.7700    5.9570 o         1 N32     -0.419000
      4 N28         2.9730   -1.0610    5.9800 ns        1 N32     -0.275000
      5 C11         2.6260    0.2110    5.5950 c2        1 N32      0.302000
      6 C2          3.5640    0.9150    4.6240 c3        1 N32     -0.185000
      7 C3          3.6020    2.4120    4.8810 c3        1 N32     -0.123000
      8 C4          3.6810    3.1920    3.6140 c2        1 N32     -0.167000
      9 C5          2.4060    3.5750    2.9520 c2        1 N32      0.266000
     10 C6          1.2700    2.5840    2.9650 c3        1 N32     -0.189000
     11 C7          1.3500    1.5520    1.8900 c2        1 N32     -0.081000
     12 C8          0.1500    0.6420    1.7630 c3        1 N32     -0.020000
     13 C9          0.5040   -0.5900    0.9220 c3        1 N32     -0.154000
     14 C10         1.2620   -0.2400   -0.3380 c3        1 N32     -0.154000
     15 C15        -1.3430   -0.8700    3.1590 c2        1 N32     -0.468000
     16 C17        -2.3240   -1.0560    2.3130 c1        1 N32      0.128000
     17 C28        -0.9900    1.4090    1.1000 c3        1 N32     -0.207000
     18 C29         2.4130    1.4540    1.0770 c2        1 N32     -0.173000
     19 O32         2.2890   -5.9450    9.4720 o         1 N32     -0.535500
     20 O33         4.1350   -4.6880    9.5090 o         1 N32     -0.535500
     21 C22         2.1870   -3.7890    8.4440 c2        1 N32      0.001000
     22 C23         2.9120   -2.8950    7.5620 c2        1 N32      0.029000
     23 C24         2.2670   -1.8820    6.8770 c2        1 N32     -0.065000
     24 C25         0.7890   -1.6490    7.1280 c3        1 N32      0.042000
     25 C26         0.0810   -2.6470    7.9550 c1        1 N32     -0.109000
     26 C27         0.8360   -3.6310    8.6130 c2        1 N32     -0.242000
     27 H1          2.9710    0.9570   -0.9230 hc        1 N32      0.084500
     28 H2          3.8810   -1.3950    5.7320 hn        1 N32      0.243000
     29 H3          3.1640    0.7080    3.5920 hc        1 N32      0.110500
     30 H4          4.6040    0.5010    4.6730 hc        1 N32      0.110500
     31 H5          2.6890    2.7280    5.4590 hc        1 N32      0.108000
     32 H6          4.4910    2.6530    5.5240 hc        1 N32      0.108000
     33 H7          0.3060    3.1550    2.8470 hc        1 N32      0.131000
     34 H8          1.2420    2.0730    3.9710 hc        1 N32      0.131000
     35 H9         -0.4430   -1.1310    0.6530 hc        1 N32      0.094000
     36 H10         1.4710   -1.1740   -0.9210 hc        1 N32      0.079000
     37 H11         0.6340    0.4260   -0.9870 hc        1 N32      0.079000
     38 H12         0.6140   -0.2210    3.7080 hc        1 N32      0.101500
     39 H13        -0.6760    1.0520    3.7430 hc        1 N32      0.101500
     40 H14        -1.2740   -1.5640    4.0340 ha        1 N32      0.228000
     41 H15         3.3270   -0.3080    0.3190 hc        1 N32      0.084500
     42 H16         5.8140    3.3150    3.5370 ha        1 N32      0.121500
     43 H17         1.1240   -1.2870    1.5450 hc        1 N32      0.094000
     44 H18         4.8990    4.1760    2.1650 ha        1 N32      0.121500
     45 H19        -1.8680    0.7340    0.9380 hc        1 N32      0.080000
     46 H20        -1.3140    2.2630    1.7410 hc        1 N32      0.080000
     47 H21        -0.6660    1.8100    0.1100 hc        1 N32      0.080000
     48 H22         3.2720    2.1390    1.1890 ha        1 N32      0.119000
     49 H23        -0.0910   -0.5270    5.8190 ho        1 N32      0.208000
     50 H24         4.6320   -3.6590    8.0080 ho        1 N32      0.287000
     51 H26         0.7290   -0.7000    7.7600 h1        1 N32      0.136000
     52 H27         0.3050   -4.3460    9.2670 ha        1 N32      0.166000
     53 C14        -0.2880    0.1720    3.1590 c3        1 N32     -0.075000
     54 C21         2.9250   -4.8990    9.1970 c2        1 N32      0.348000
     55 C18         4.8490    3.5760    3.0840 c2        1 N32     -0.166000
     56 O31         4.2620   -3.0490    7.3350 oh        1 N32     -0.322000
     57 O30         0.1010   -1.4720    5.8970 oh        1 N32     -0.308000
@<TRIPOS>BOND
     1    1   14 1   
     2    1   18 1   
     3    1   27 1   
     4    1   41 1   
     5    2    9 1   
     6    3    5 1   
     7    4    5 1   
     8    4   23 1   
     9    4   28 1   
    10    5    6 1   
    11    6    7 1   
    12    6   29 1   
    13    6   30 1   
    14    7    8 1   
    15    7   31 1   
    16    7   32 1   
    17    8    9 1   
    18    8   55 1   
    19    9   10 1   
    20   10   11 1   
    21   10   33 1   
    22   10   34 1   
    23   11   12 1   
    24   11   18 1   
    25   12   13 1   
    26   12   17 1   
    27   12   53 1   
    28   13   14 1   
    29   13   35 1   
    30   13   43 1   
    31   14   36 1   
    32   14   37 1   
    33   15   16 1   
    34   15   40 1   
    35   15   53 1   
    36   17   45 1   
    37   17   46 1   
    38   17   47 1   
    39   18   48 1   
    40   19   54 1   
    41   20   54 1   
    42   21   22 1   
    43   21   26 1   
    44   21   54 1   
    45   22   23 1   
    46   22   56 1   
    47   23   24 1   
    48   24   25 1   
    49   24   51 1   
    50   24   57 1   
    51   25   26 1   
    52   26   52 1   
    53   38   53 1   
    54   39   53 1   
    55   42   55 1   
    56   44   55 1   
    57   49   57 1   
    58   50   56 1   
@<TRIPOS>SUBSTRUCTURE
     1 N32         1 TEMP              0 ****  ****    0 ROOT
