@<TRIPOS>MOLECULE
N34
   63    64     1     0     0
SMALL
bcc


@<TRIPOS>ATOM
      1 C4         -0.1410    0.8620    0.4870 c3        1 N34      0.282800
      2 C5          1.9330   -0.2690    3.2340 c2        1 N34      0.093900
      3 C6          1.2240    0.2430    0.7670 ce        1 N34     -0.326400
      4 C7         -0.7530   -0.3850   -3.0090 ce        1 N34     -0.326800
      5 C8         -1.7430   -1.3190   -3.0010 c2        1 N34      0.186900
      6 C10        -0.3850    0.2750   -4.2740 c         1 N34      0.741700
      7 C13        -1.4950   -1.9600   -6.4100 c3        1 N34      0.131800
      8 C15        -2.7670    3.7990   -8.9780 c3        1 N34     -0.086850
      9 C17        -3.4210    6.1030   -8.3220 c3        1 N34     -0.086850
     10 C21        -3.1010    4.7090   -7.8060 c3        1 N34     -0.059000
     11 O31        -0.0400   -2.7500    2.8110 o         1 N34     -0.643800
     12 S34         1.1980   -2.9100    3.4480 s6        1 N34      1.461900
     13 O30         1.2210   -3.7400    4.5880 o         1 N34     -0.643800
     14 C18         2.3330   -3.4640    2.3370 c3        1 N34     -0.400300
     15 N26         1.8130   -1.4570    3.9370 nh        1 N34     -0.756900
     16 C2          0.0400    3.4920    0.7340 c1        1 N34     -0.110500
     17 C3          1.5620   -0.0490    1.9900 c1        1 N34     -0.005800
     18 S33         2.3250   -0.1010   -0.4940 sy        1 N34      1.499800
     19 O28         3.3280    0.8730   -0.5670 o         1 N34     -0.649800
     20 O29         2.8000   -1.4120   -0.2920 o         1 N34     -0.649800
     21 N23         1.3630   -0.0330   -1.8040 nh        1 N34     -0.879100
     22 C9         -0.0490    0.0480   -1.7710 ce        1 N34      0.733500
     23 N22        -0.7610    0.4550   -0.7610 n2        1 N34     -0.598900
     24 C1         -0.0310    2.3050    0.6100 c1        1 N34     -0.156100
     25 O27         0.6960    0.8200   -4.5010 o         1 N34     -0.525500
     26 N24        -1.4220    0.2230   -5.3140 n         1 N34     -0.175800
     27 N25        -2.1280   -0.9790   -5.4910 n3        1 N34     -0.522600
     28 C11        -1.6440   -3.3700   -5.8340 c3        1 N34     -0.089400
     29 C14        -2.5030   -1.7060   -4.2490 c3        1 N34      0.141700
     30 C12        -2.3710   -3.2220   -4.5070 c3        1 N34     -0.094400
     31 O32        -2.0620   -1.9530   -1.8390 oh        1 N34     -0.446100
     32 C19        -4.3070    4.1540   -7.0630 c3        1 N34     -0.086850
     33 C16        -1.9110    4.7720   -6.8610 c3        1 N34     -0.086850
     34 H13        -2.0580   -1.8660   -7.3790 h1        1 N34      0.067200
     35 H13A       -0.4120   -1.7400   -6.6180 h1        1 N34      0.067200
     36 H15        -3.6330    3.7320   -9.6790 hc        1 N34      0.033617
     37 H15A       -2.5240    2.7720   -8.6100 hc        1 N34      0.033617
     38 H15B       -1.8850    4.1940   -9.5360 hc        1 N34      0.033617
     39 H17        -4.2930    6.0700   -9.0170 hc        1 N34      0.033617
     40 H17A       -3.6680    6.7820   -7.4710 hc        1 N34      0.033617
     41 H17B       -2.5430    6.5230   -8.8690 hc        1 N34      0.033617
     42 H20        -4.0810    3.1310   -6.6730 hc        1 N34      0.033617
     43 H20A       -2.5140    1.3330   -6.7120 ha        1 N34      0.017500
     44 H18         3.3440   -3.6540    2.7770 h1        1 N34      0.138033
     45 H18A        2.5060   -2.7870    1.4550 h1        1 N34      0.138033
     46 H18B        2.0050   -4.4390    1.8900 h1        1 N34      0.138033
     47 HN26        2.1420   -1.3830    4.8770 hn        1 N34      0.459800
     48 H2          0.1090    4.5450    0.8400 ha        1 N34      0.169500
     49 H3          2.4240    0.5640    3.7880 h4        1 N34      0.175000
     50 HN23        1.7460    0.0070   -2.7250 hn        1 N34      0.481800
     51 H1         -0.8660    0.4970    1.2880 h1        1 N34      0.115700
     52 H11        -1.8060   -3.7240   -3.6820 hc        1 N34      0.062700
     53 H11A       -0.6390   -3.8400   -5.6880 hc        1 N34      0.061700
     54 H14        -2.2240   -4.0190   -6.5360 hc        1 N34      0.061700
     55 H12        -3.5890   -1.4370   -4.0690 h1        1 N34      0.101700
     56 H12A       -3.3890   -3.6830   -4.5570 hc        1 N34      0.062700
     57 HO32       -2.8140   -2.5460   -2.0030 ho        1 N34      0.435000
     58 H19        -5.1890    4.0900   -7.7450 hc        1 N34      0.033617
     59 H19A       -4.5680    4.8130   -6.2020 hc        1 N34      0.033617
     60 H16        -1.6660    3.7510   -6.4720 hc        1 N34      0.033617
     61 H16A       -2.1410    5.4390   -5.9950 hc        1 N34      0.033617
     62 H16B       -1.0170    5.1760   -7.3920 hc        1 N34      0.033617
     63 C20        -1.7000    1.3350   -5.9580 c1        1 N34     -0.021500
@<TRIPOS>BOND
     1    1    3 1   
     2    1   23 1   
     3    1   24 1   
     4    1   51 1   
     5    2   15 1   
     6    2   17 2   
     7    2   49 1   
     8    3   17 2   
     9    3   18 1   
    10    4    5 2   
    11    4    6 1   
    12    4   22 1   
    13    5   29 1   
    14    5   31 1   
    15    6   25 2   
    16    6   26 1   
    17    7   27 1   
    18    7   28 1   
    19    7   34 1   
    20    7   35 1   
    21    8   10 1   
    22    8   36 1   
    23    8   37 1   
    24    8   38 1   
    25    9   10 1   
    26    9   39 1   
    27    9   40 1   
    28    9   41 1   
    29   10   32 1   
    30   10   33 1   
    31   11   12 2   
    32   12   13 2   
    33   12   14 1   
    34   12   15 1   
    35   14   44 1   
    36   14   45 1   
    37   14   46 1   
    38   15   47 1   
    39   16   24 3   
    40   16   48 1   
    41   18   19 2   
    42   18   20 2   
    43   18   21 1   
    44   21   22 1   
    45   21   50 1   
    46   22   23 2   
    47   26   27 1   
    48   26   63 3   
    49   27   29 1   
    50   28   30 1   
    51   28   53 1   
    52   28   54 1   
    53   29   30 1   
    54   29   55 1   
    55   30   52 1   
    56   30   56 1   
    57   31   57 1   
    58   32   42 1   
    59   32   58 1   
    60   32   59 1   
    61   33   60 1   
    62   33   61 1   
    63   33   62 1   
    64   43   63 1   
@<TRIPOS>SUBSTRUCTURE
     1 N34         1 TEMP              0 ****  ****    0 ROOT
