@<TRIPOS>MOLECULE
N34
   63    66     1     0     0
SMALL
bcc


@<TRIPOS>ATOM
      1 C4         -2.0450    0.2890    0.5060 ca        1 N34      0.268400
      2 C5         -4.7870   -0.4110    0.3250 ca        1 N34      0.115600
      3 C6         -2.5090   -0.5110   -0.5640 ca        1 N34     -0.415500
      4 C7          1.6390    0.5860    0.1200 ce        1 N34     -0.401800
      5 C8          1.9710    1.7460    0.7670 c2        1 N34      0.226900
      6 C10         2.7430   -0.3160   -0.2890 c         1 N34      0.710700
      7 C13         4.6220    2.4430   -1.1700 c3        1 N34      0.137800
      8 C15         8.0590   -1.4230    0.3400 c3        1 N34     -0.088433
      9 C17         7.1160   -2.6020    2.3040 c3        1 N34     -0.088433
     10 C21         6.8260   -2.1310    0.8820 c3        1 N34     -0.051000
     11 O31        -7.2420    0.8850    1.7550 o         1 N34     -0.649800
     12 S34        -7.4400    0.1390    0.5790 s6        1 N34      1.470900
     13 O30        -8.5740   -0.6950    0.5310 o         1 N34     -0.649800
     14 C18        -7.5150    1.2240   -0.7240 c3        1 N34     -0.373300
     15 N26        -6.1400   -0.7800    0.2330 nh        1 N34     -0.784500
     16 C2         -4.3120    0.3970    1.3910 ca        1 N34     -0.092000
     17 C3         -3.8640   -0.8550   -0.6320 ca        1 N34     -0.038000
     18 S33        -1.5150   -1.0630   -1.7990 sy        1 N34      1.524200
     19 O28        -1.6390   -2.4470   -1.9600 o         1 N34     -0.641300
     20 O29        -1.7420   -0.3150   -2.9600 o         1 N34     -0.641300
     21 N23        -0.0200   -0.7000   -1.1950 nh        1 N34     -0.837100
     22 C9          0.2410    0.1600   -0.1280 ce        1 N34      0.809500
     23 N22        -0.7060    0.6480    0.6640 nf        1 N34     -0.735100
     24 C1         -2.9780    0.7420    1.4740 ca        1 N34     -0.121000
     25 O27         2.5680   -1.5300   -0.5250 o         1 N34     -0.639500
     26 N24         4.0390    0.2230   -0.4350 n         1 N34     -0.335200
     27 N25         4.3630    1.5070   -0.0360 n3        1 N34     -0.463600
     28 C11         4.1900    3.8480   -0.7440 c3        1 N34     -0.092400
     29 C14         3.4170    2.1900    0.8850 c3        1 N34      0.172700
     30 C12         3.5640    3.7060    0.6360 c3        1 N34     -0.075400
     31 O32         1.1390    2.6210    1.3690 oh        1 N34     -0.482100
     32 C19         5.6330   -1.1750    0.9410 c3        1 N34     -0.096400
     33 C16         6.5110   -3.3410    0.0180 c3        1 N34     -0.088433
     34 H13         5.7300    2.3960   -1.3500 h1        1 N34      0.062200
     35 H13A        4.1030    2.1490   -2.1230 h1        1 N34      0.062200
     36 H15         8.9480   -2.0940    0.4140 hc        1 N34      0.036033
     37 H15A        7.9190   -1.1470   -0.7330 hc        1 N34      0.036033
     38 H15B        8.2630   -0.4940    0.9250 hc        1 N34      0.036033
     39 H17         7.3330   -1.7290    2.9650 hc        1 N34      0.036033
     40 H17A        6.2380   -3.1540    2.7160 hc        1 N34      0.036033
     41 H17B        8.0010   -3.2830    2.3120 hc        1 N34      0.036033
     42 H20         4.8140   -1.6200   -1.0300 h1        1 N34      0.072200
     43 H20A        6.0180   -0.2410   -0.9910 h1        1 N34      0.072200
     44 H18        -6.5730    1.8000   -0.8940 h1        1 N34      0.120033
     45 H18A       -7.7680    0.7320   -1.6950 h1        1 N34      0.120033
     46 H18B       -8.3140    1.9890   -0.5470 h1        1 N34      0.120033
     47 HN26       -6.2670   -1.7070   -0.1110 hn        1 N34      0.461800
     48 H2         -5.0120    0.7600    2.1680 ha        1 N34      0.180000
     49 H3         -4.1960   -1.5060   -1.4620 ha        1 N34      0.150000
     50 HN23        0.7860   -1.1640   -1.5690 hn        1 N34      0.489800
     51 H1         -2.6320    1.3660    2.3150 ha        1 N34      0.156000
     52 H11         5.0700    4.5370   -0.7140 hc        1 N34      0.057700
     53 H11A        3.4550    4.2670   -1.4760 hc        1 N34      0.057700
     54 H14         3.7490    1.9330    1.9350 h1        1 N34      0.104700
     55 H12         4.2310    4.1420    1.4210 hc        1 N34      0.070200
     56 H12A        2.5780    4.2260    0.6970 hc        1 N34      0.070200
     57 HO32        0.2120    2.3050    1.3360 ho        1 N34      0.483000
     58 H19         5.9220   -0.2820    1.5560 hc        1 N34      0.051200
     59 H19A        4.7860   -1.6920    1.4650 hc        1 N34      0.051200
     60 H16         7.3110   -4.1120    0.1310 hc        1 N34      0.036033
     61 H16A        5.5350   -3.7910    0.3200 hc        1 N34      0.036033
     62 H16B        6.4540   -3.0540   -1.0600 hc        1 N34      0.036033
     63 C20         5.1640   -0.7260   -0.4380 c3        1 N34      0.107000
@<TRIPOS>BOND
     1    1    3 ar  
     2    1   23 1   
     3    1   24 ar  
     4    2   15 1   
     5    2   16 ar  
     6    2   17 ar  
     7    3   17 ar  
     8    3   18 1   
     9    4    5 2   
    10    4    6 1   
    11    4   22 1   
    12    5   29 1   
    13    5   31 1   
    14    6   25 2   
    15    6   26 1   
    16    7   27 1   
    17    7   28 1   
    18    7   34 1   
    19    7   35 1   
    20    8   10 1   
    21    8   36 1   
    22    8   37 1   
    23    8   38 1   
    24    9   10 1   
    25    9   39 1   
    26    9   40 1   
    27    9   41 1   
    28   10   32 1   
    29   10   33 1   
    30   11   12 2   
    31   12   13 2   
    32   12   14 1   
    33   12   15 1   
    34   14   44 1   
    35   14   45 1   
    36   14   46 1   
    37   15   47 1   
    38   16   24 ar  
    39   16   48 1   
    40   17   49 1   
    41   18   19 2   
    42   18   20 2   
    43   18   21 1   
    44   21   22 1   
    45   21   50 1   
    46   22   23 2   
    47   24   51 1   
    48   26   27 1   
    49   26   63 1   
    50   27   29 1   
    51   28   30 1   
    52   28   52 1   
    53   28   53 1   
    54   29   30 1   
    55   29   54 1   
    56   30   55 1   
    57   30   56 1   
    58   31   57 1   
    59   32   58 1   
    60   32   59 1   
    61   32   63 1   
    62   33   60 1   
    63   33   61 1   
    64   33   62 1   
    65   42   63 1   
    66   43   63 1   
@<TRIPOS>SUBSTRUCTURE
     1 N34         1 TEMP              0 ****  ****    0 ROOT
