@<TRIPOS>MOLECULE
N34
   64    66     1     0     0
SMALL
bcc


@<TRIPOS>ATOM
      1 C4         -0.3730   -1.7850   -0.0800 c3        1 N34      0.279800
      2 C5          2.3310   -0.4370    2.0290 c2        1 N34     -0.182100
      3 C6          1.1180   -1.4850   -0.0240 ce        1 N34     -0.272400
      4 C7         -1.1100   -1.1080   -3.7150 ce        1 N34     -0.334800
      5 C8         -2.1440   -1.8840   -4.1290 c2        1 N34      0.208900
      6 C10        -0.7300    0.0870   -4.4980 c         1 N34      0.714700
      7 C13        -2.5140   -0.7260   -7.5570 c3        1 N34      0.129800
      8 C15        -2.5570    4.1540   -7.6020 c3        1 N34     -0.089100
      9 C17        -2.9270    5.0660   -5.3290 c3        1 N34     -0.089100
     10 C21        -2.0600    4.1290   -6.1640 c3        1 N34     -0.052000
     11 O31         1.2280    2.8450    3.2010 o         1 N34     -0.557300
     12 S34         1.8240    1.7240    3.7380 s6        1 N34      1.413900
     13 O30         2.9230    1.8130    4.5660 o         1 N34     -0.557300
     14 C18         0.7630    0.5560    4.1740 c3        1 N34     -0.461300
     15 N26         2.6100    0.9710    2.1880 n4        1 N34     -0.574700
     16 C2         -1.7100   -0.6210    1.8850 c1        1 N34     -0.130500
     17 C3          1.6950   -0.9420    0.9980 c1        1 N34      0.151200
     18 S33         2.0460   -1.9680   -1.4620 sy        1 N34      1.494800
     19 O28         3.2440   -1.2530   -1.4150 o         1 N34     -0.613300
     20 O29         2.1100   -3.3540   -1.4170 o         1 N34     -0.613300
     21 N23         1.0530   -1.3980   -2.5840 nh        1 N34     -0.887100
     22 C9         -0.3630   -1.3610   -2.4580 ce        1 N34      0.767500
     23 N22        -1.0230   -1.5070   -1.3450 n2        1 N34     -0.610900
     24 C1         -1.0790   -1.1290    1.0060 c1        1 N34     -0.135100
     25 O27         0.2050    0.8290   -4.1250 o         1 N34     -0.658500
     26 N24        -1.3710    0.3330   -5.7270 n         1 N34     -0.326200
     27 N25        -2.5380   -0.3280   -6.1160 n3        1 N34     -0.446600
     28 C11        -2.6750   -2.2400   -7.6990 c3        1 N34     -0.094400
     29 C14        -2.9360   -1.5510   -5.3630 c3        1 N34      0.135700
     30 C12        -2.9790   -2.7710   -6.3110 c3        1 N34     -0.103400
     31 O32        -2.4770   -3.0050   -3.4340 oh        1 N34     -0.459100
     32 C19        -2.1870    2.7250   -5.5700 c3        1 N34     -0.095400
     33 C16        -0.6200    4.6140   -6.1130 c3        1 N34     -0.089100
     34 H13        -3.3980   -0.1910   -8.0020 h1        1 N34      0.075700
     35 H13A       -1.5910   -0.3850   -8.0990 h1        1 N34      0.075700
     36 H15        -3.5910    3.7400   -7.6640 hc        1 N34      0.037367
     37 H15A       -2.5710    5.2050   -7.9810 hc        1 N34      0.037367
     38 H15B       -1.8890    3.5540   -8.2640 hc        1 N34      0.037367
     39 H17        -3.9880    4.7210   -5.3350 hc        1 N34      0.037367
     40 H17A       -2.5640    5.0940   -4.2740 hc        1 N34      0.037367
     41 H17B       -2.8880    6.1010   -5.7470 hc        1 N34      0.037367
     42 H20        -0.1850    2.0170   -6.0720 h1        1 N34      0.074700
     43 H20A       -1.4560    1.6940   -7.3450 h1        1 N34      0.074700
     44 H18         0.0970    0.1530    3.3530 h1        1 N34      0.177033
     45 H18A        0.0270    0.9230    4.9510 h1        1 N34      0.177033
     46 H18B        1.2240   -0.3570    4.6440 h1        1 N34      0.177033
     47 HN26        3.6300    1.0800    2.2350 hn        1 N34      0.469300
     48 H2         -2.3070   -0.1890    2.6510 ha        1 N34      0.177500
     49 H3          2.7750   -1.0800    2.8190 hx        1 N34      0.210000
     50 HN23        1.3850   -0.9020   -3.3930 hn        1 N34      0.506800
     51 H1         -0.4620   -2.9150    0.0950 h1        1 N34      0.127700
     52 H11        -2.2290   -3.5430   -6.0050 hc        1 N34      0.063200
     53 H11A       -1.7380   -2.6980   -8.1040 hc        1 N34      0.066700
     54 H14        -3.5020   -2.4770   -8.4130 hc        1 N34      0.066700
     55 H12        -3.9910   -1.3090   -5.0210 h1        1 N34      0.105700
     56 H12A       -3.9920   -3.2420   -6.2720 hc        1 N34      0.063200
     57 HO32       -3.2610   -3.4100   -3.8450 ho        1 N34      0.444000
     58 H19        -3.2530    2.3910   -5.6700 hc        1 N34      0.052200
     59 H19A       -1.9460    2.7740   -4.4750 hc        1 N34      0.052200
     60 H16         0.0130    4.0510   -6.8400 hc        1 N34      0.037367
     61 H16A       -0.1980    4.4760   -5.0890 hc        1 N34      0.037367
     62 H16B       -0.5720    5.6980   -6.3760 hc        1 N34      0.037367
     63 C20        -1.2590    1.7150   -6.2360 c3        1 N34      0.094000
     64 H262        2.2980    1.4890    1.3600 hn        1 N34      0.469300
@<TRIPOS>BOND
     1    1    3 1   
     2    1   23 1   
     3    1   24 1   
     4    1   51 1   
     5    2   15 1   
     6    2   17 2   
     7    2   49 1   
     8    3   17 2   
     9    3   18 1   
    10    4    5 2   
    11    4    6 1   
    12    4   22 1   
    13    5   29 1   
    14    5   31 1   
    15    6   25 2   
    16    6   26 1   
    17    7   27 1   
    18    7   28 1   
    19    7   34 1   
    20    7   35 1   
    21    8   10 1   
    22    8   36 1   
    23    8   37 1   
    24    8   38 1   
    25    9   10 1   
    26    9   39 1   
    27    9   40 1   
    28    9   41 1   
    29   10   32 1   
    30   10   33 1   
    31   11   12 2   
    32   12   13 2   
    33   12   14 1   
    34   12   15 1   
    35   14   44 1   
    36   14   45 1   
    37   14   46 1   
    38   15   47 1   
    39   15   64 1   
    40   16   24 3   
    41   16   48 1   
    42   18   19 2   
    43   18   20 2   
    44   18   21 1   
    45   21   22 1   
    46   21   50 1   
    47   22   23 2   
    48   26   27 1   
    49   26   63 1   
    50   27   29 1   
    51   28   30 1   
    52   28   53 1   
    53   28   54 1   
    54   29   30 1   
    55   29   55 1   
    56   30   52 1   
    57   30   56 1   
    58   31   57 1   
    59   32   58 1   
    60   32   59 1   
    61   32   63 1   
    62   33   60 1   
    63   33   61 1   
    64   33   62 1   
    65   42   63 1   
    66   43   63 1   
@<TRIPOS>SUBSTRUCTURE
     1 N34         1 TEMP              0 ****  ****    0 ROOT
