@<TRIPOS>MOLECULE
N34
   63    64     1     0     0
SMALL
bcc


@<TRIPOS>ATOM
      1 C4         -0.2170    0.8150    0.4560 c3        1 N34      0.282800
      2 C5          1.8330   -0.0270    3.3210 c2        1 N34      0.094900
      3 C6          1.1750    0.3030    0.8090 ce        1 N34     -0.326400
      4 C7         -0.6320   -0.6430   -2.9870 ce        1 N34     -0.316800
      5 C8         -1.5950   -1.6040   -2.9450 c2        1 N34      0.212900
      6 C10        -0.2070   -0.1070   -4.2840 c         1 N34      0.690700
      7 C13        -2.4450   -2.1620   -6.5020 c3        1 N34      0.120800
      8 C15        -2.8860    4.0620   -9.0490 c3        1 N34     -0.085100
      9 C17        -3.7240    6.3090   -8.4030 c3        1 N34     -0.085100
     10 C21        -3.0750    5.0320   -7.8930 c3        1 N34     -0.060000
     11 O31        -0.0080   -2.6180    3.0010 o         1 N34     -0.643300
     12 S34         1.2240   -2.6860    3.6670 s6        1 N34      1.460900
     13 O30         1.2640   -3.4500    4.8510 o         1 N34     -0.643300
     14 C18         2.4050   -3.2440    2.6080 c3        1 N34     -0.400300
     15 N26         1.7600   -1.1790    4.0860 nu        1 N34     -0.756900
     16 C2         -0.2160    3.4600    0.5650 c1        1 N34     -0.111500
     17 C3          1.4920    0.1010    2.0560 c1        1 N34     -0.007800
     18 S33         2.3370   -0.0380   -0.3980 sy        1 N34      1.499800
     19 O28         3.2890    0.9840   -0.4860 o         1 N34     -0.649300
     20 O29         2.8700   -1.3110   -0.1170 o         1 N34     -0.649300
     21 N23         1.4180   -0.0810   -1.7400 nu        1 N34     -0.878100
     22 C9          0.0040   -0.1010   -1.7540 ce        1 N34      0.736500
     23 N22        -0.7670    0.3010   -0.7860 n2        1 N34     -0.601900
     24 C1         -0.2060    2.2660    0.5030 c1        1 N34     -0.155100
     25 O27         0.6840    0.7410   -4.4290 o         1 N34     -0.574500
     26 N24        -0.7970   -0.6730   -5.4980 n         1 N34     -0.185800
     27 N25        -2.0910   -1.2110   -5.4060 n3        1 N34     -0.410600
     28 C11        -2.3720   -3.6040   -5.9820 c3        1 N34     -0.102400
     29 C14        -2.3790   -1.9940   -4.1620 c3        1 N34      0.107700
     30 C12        -2.2870   -3.5030   -4.4650 c3        1 N34     -0.107400
     31 O32        -1.8810   -2.2330   -1.7730 oh        1 N34     -0.443100
     32 C19        -3.9680    4.3960   -6.8380 c3        1 N34     -0.085100
     33 C16        -1.7220    5.3600   -7.2800 c3        1 N34     -0.085100
     34 H13        -3.5050   -1.8880   -6.7600 h1        1 N34      0.099200
     35 H13A       -1.8090   -2.0250   -7.4190 h1        1 N34      0.099200
     36 H15        -3.8720    3.8110   -9.5090 hc        1 N34      0.033367
     37 H15A       -2.4100    3.1190   -8.6890 hc        1 N34      0.033367
     38 H15B       -2.2320    4.5150   -9.8320 hc        1 N34      0.033367
     39 H17        -4.7190    6.0840   -8.8560 hc        1 N34      0.033367
     40 H17A       -3.0790    6.7880   -9.1790 hc        1 N34      0.033367
     41 H17B       -3.8690    7.0320   -7.5650 hc        1 N34      0.033367
     42 H20        -3.5040    3.4560   -6.4540 hc        1 N34      0.033367
     43 H20A        0.7450   -0.0030   -6.6950 ha        1 N34      0.030500
     44 H18         2.5740   -2.6010    1.6980 h1        1 N34      0.138033
     45 H18A        2.1260   -4.2500    2.1990 h1        1 N34      0.138033
     46 H18B        3.4110   -3.3730    3.0780 h1        1 N34      0.138033
     47 HN26        2.0680   -1.0390    5.0250 hn        1 N34      0.459800
     48 H2         -0.2190    4.5190    0.6170 ha        1 N34      0.168500
     49 H3          2.2540    0.8640    3.8420 h4        1 N34      0.176000
     50 HN23        1.8290   -0.0230   -2.6480 hn        1 N34      0.479800
     51 H1         -0.9430    0.4440    1.2530 h1        1 N34      0.115700
     52 H11        -1.3260   -3.9280   -4.0830 hc        1 N34      0.060700
     53 H11A       -1.4740   -4.1260   -6.3960 hc        1 N34      0.062200
     54 H14        -3.2770   -4.1760   -6.3010 hc        1 N34      0.062200
     55 H12        -3.4630   -1.7270   -3.9530 h1        1 N34      0.106700
     56 H12A       -3.1270   -4.0480   -3.9700 hc        1 N34      0.060700
     57 HO32       -2.6350   -2.8290   -1.9130 ho        1 N34      0.437000
     58 H19        -4.1150    5.0970   -5.9810 hc        1 N34      0.033367
     59 H19A       -4.9660    4.1500   -7.2730 hc        1 N34      0.033367
     60 H16        -1.2340    4.4310   -6.9000 hc        1 N34      0.033367
     61 H16A       -1.8440    6.0720   -6.4290 hc        1 N34      0.033367
     62 H16B       -1.0550    5.8270   -8.0430 hc        1 N34      0.033367
     63 C20        -0.2040   -0.5760   -6.6780 c1        1 N34     -0.078500
@<TRIPOS>BOND
     1    1    3 1   
     2    1   23 1   
     3    1   24 1   
     4    1   51 1   
     5    2   15 1   
     6    2   17 2   
     7    2   49 1   
     8    3   17 2   
     9    3   18 1   
    10    4    5 2   
    11    4    6 1   
    12    4   22 1   
    13    5   29 1   
    14    5   31 1   
    15    6   25 2   
    16    6   26 1   
    17    7   27 1   
    18    7   28 1   
    19    7   34 1   
    20    7   35 1   
    21    8   10 1   
    22    8   36 1   
    23    8   37 1   
    24    8   38 1   
    25    9   10 1   
    26    9   39 1   
    27    9   40 1   
    28    9   41 1   
    29   10   32 1   
    30   10   33 1   
    31   11   12 2   
    32   12   13 2   
    33   12   14 1   
    34   12   15 1   
    35   14   44 1   
    36   14   45 1   
    37   14   46 1   
    38   15   47 1   
    39   16   24 3   
    40   16   48 1   
    41   18   19 2   
    42   18   20 2   
    43   18   21 1   
    44   21   22 1   
    45   21   50 1   
    46   22   23 2   
    47   26   27 1   
    48   26   63 3   
    49   27   29 1   
    50   28   30 1   
    51   28   53 1   
    52   28   54 1   
    53   29   30 1   
    54   29   55 1   
    55   30   52 1   
    56   30   56 1   
    57   31   57 1   
    58   32   42 1   
    59   32   58 1   
    60   32   59 1   
    61   33   60 1   
    62   33   61 1   
    63   33   62 1   
    64   43   63 1   
@<TRIPOS>SUBSTRUCTURE
     1 N34         1 TEMP              0 ****  ****    0 ROOT
