@<TRIPOS>MOLECULE
N35
   64    63     1     0     0
SMALL
bcc


@<TRIPOS>ATOM
      1 C4         -2.4920    0.4170    0.7240 c3        1 N35      0.325800
      2 C5          0.8920    1.6320    1.8230 c1        1 N35     -0.087900
      3 C6         -1.0660    0.3790    1.2210 ce        1 N35     -1.151200
      4 C7         -1.8640   -1.3110   -2.5540 cc        1 N35     -0.337800
      5 C8         -3.0740   -1.5040   -3.1650 cd        1 N35      0.156500
      6 C10        -3.1050   -1.8130   -4.6460 cd        1 N35      0.706500
      7 C13        -5.6670   -3.1970   -6.9530 c3        1 N35     -0.093400
      8 C15        -4.2640   -2.6430   -6.6690 c3        1 N35      0.198300
      9 C17         2.7830    1.2840   -4.5920 c1        1 N35     -0.176000
     10 C21         2.7160    1.5160   -3.4190 c1        1 N35     -0.176000
     11 O32         4.3380    2.6120    1.7240 o         1 N35     -0.614800
     12 S35         3.4500    1.6820    1.1840 s6        1 N35      1.431000
     13 O31         3.0140    1.8830   -0.1260 o         1 N35     -0.614800
     14 C18         4.0120    0.1310    1.4090 c3        1 N35     -0.421300
     15 N27         2.0790    1.6900    2.2630 n3        1 N35     -0.169900
     16 C2         -3.6380    2.7880    0.9620 c1        1 N35     -0.117500
     17 C3         -0.4180    1.5590    1.5420 ce        1 N35      0.143900
     18 S34        -0.3650   -1.0740    1.2000 s6        1 N35      1.978100
     19 O29         1.0410   -0.9390    1.3670 o         1 N35     -0.631700
     20 O30        -0.9680   -2.0200    2.0300 o         1 N35     -0.675300
     21 N24        -0.6770   -1.5070   -0.3890 nh        1 N35     -0.835100
     22 C9         -1.7250   -0.9280   -1.1140 ce        1 N35      0.713500
     23 N22        -2.6000   -0.0730   -0.6510 n2        1 N35     -0.677900
     24 C1         -3.1040    1.7250    0.8440 c1        1 N35     -0.139100
     25 C11        -0.6350   -1.3660   -3.3380 c         1 N35      0.703700
     26 O28         0.5220   -1.5310   -2.9700 o         1 N35     -0.481500
     27 N26        -0.8440   -1.1930   -4.8190 n         1 N35      0.041600
     28 C19         0.1150    2.3260   -7.0930 c3        1 N35     -0.119800
     29 C16         2.6350   -0.2550   -7.8730 c3        1 N35     -0.119800
     30 N23        -1.9970   -1.5810   -5.4110 nc        1 N35     -0.666300
     31 O33        -4.2840   -1.4400   -2.5810 oh        1 N35     -0.460100
     32 N25        -4.2070   -2.3160   -5.2430 nh        1 N35     -0.648600
     33 C14        -5.4900   -2.5580   -4.5850 c3        1 N35      0.198300
     34 C12        -6.4260   -3.1810   -5.6310 c3        1 N35     -0.093400
     35 H13        -4.0630   -1.7160   -7.2760 h1        1 N35      0.081950
     36 H13A       -6.1810   -2.5630   -7.7180 hc        1 N35      0.077450
     37 H15        -5.5950   -4.2360   -7.3610 hc        1 N35      0.077450
     38 H15A       -3.4690   -3.4030   -6.9080 h1        1 N35      0.081950
     39 H17        -0.6230    3.0550   -6.6910 hc        1 N35      0.030325
     40 H17A        1.0970   -0.4180   -5.0360 h4        1 N35      0.083300
     41 H17B        2.8950    1.1120   -5.6340 ha        1 N35      0.178000
     42 H20         0.6350    1.8180   -6.2490 hc        1 N35      0.030325
     43 H20A        0.0420   -0.5210   -6.6340 h4        1 N35      0.083300
     44 H21         2.4320   -0.9410   -7.0200 hc        1 N35      0.030325
     45 H18         3.2160   -0.6710    1.3730 h1        1 N35      0.157367
     46 H18A        4.7430   -0.1610    0.6070 h1        1 N35      0.157367
     47 H18B        4.5510   -0.0270    2.3780 h1        1 N35      0.157367
     48 HN27        2.6630    1.7230   -2.3720 ha        1 N35      0.178000
     49 H2         -4.1190    3.7280    1.0790 ha        1 N35      0.176500
     50 H3         -0.9590    2.5320    1.4840 ha        1 N35      0.198000
     51 HN24       -0.0910   -2.1360   -0.8850 hn        1 N35      0.460800
     52 H1         -3.1070   -0.2920    1.3780 h1        1 N35      0.092700
     53 H19        -0.4100    1.5720   -7.7200 hc        1 N35      0.030325
     54 H19A        0.8640    2.8660   -7.7140 hc        1 N35      0.030325
     55 H16         1.8970    0.5800   -7.8640 hc        1 N35      0.030325
     56 H16A        2.5520   -0.8160   -8.8290 hc        1 N35      0.030325
     57 H16B        3.6630    0.1580   -7.7780 hc        1 N35      0.030325
     58 HO33       -4.2190   -1.1040   -1.6610 ho        1 N35      0.503000
     59 H14        -5.9050   -1.5830   -4.2040 h1        1 N35      0.081950
     60 H14A       -5.3380   -3.2480   -3.7090 h1        1 N35      0.081950
     61 H12        -7.3630   -2.5760   -5.7130 hc        1 N35      0.077450
     62 H12A       -6.7120   -4.2170   -5.3220 hc        1 N35      0.077450
     63 C20         0.1380   -0.6880   -5.5390 c2        1 N35      0.316400
     64 H272        2.2360    1.6630    3.2590 hn        1 N35      0.292700
@<TRIPOS>BOND
     1    1    3 1   
     2    1   23 1   
     3    1   24 1   
     4    1   52 1   
     5    2   15 2   
     6    2   17 2   
     7    3   17 1   
     8    3   18 2   
     9    4    5 2   
    10    4   22 1   
    11    4   25 1   
    12    5    6 1   
    13    5   31 1   
    14    6   30 2   
    15    6   32 1   
    16    7    8 1   
    17    7   34 1   
    18    7   36 1   
    19    7   37 1   
    20    8   32 1   
    21    8   35 1   
    22    8   38 1   
    23    9   10 3   
    24    9   41 1   
    25   10   48 1   
    26   11   12 2   
    27   12   13 2   
    28   12   14 1   
    29   12   15 1   
    30   14   45 1   
    31   14   46 1   
    32   14   47 1   
    33   15   64 1   
    34   16   24 3   
    35   16   49 1   
    36   17   50 1   
    37   18   19 1   
    38   18   20 2   
    39   18   21 1   
    40   21   22 1   
    41   21   51 1   
    42   22   23 2   
    43   25   26 2   
    44   25   27 1   
    45   27   30 1   
    46   27   63 2   
    47   28   39 1   
    48   28   42 1   
    49   28   53 1   
    50   28   54 1   
    51   29   44 1   
    52   29   55 1   
    53   29   56 1   
    54   29   57 1   
    55   31   58 1   
    56   32   33 1   
    57   33   34 1   
    58   33   59 1   
    59   33   60 1   
    60   34   61 1   
    61   34   62 1   
    62   40   63 1   
    63   43   63 1   
@<TRIPOS>SUBSTRUCTURE
     1 N35         1 TEMP              0 ****  ****    0 ROOT
