@<TRIPOS>MOLECULE
N35
   63    63     1     0     0
SMALL
bcc


@<TRIPOS>ATOM
      1 C4         -0.9100    0.2000    0.0740 c3        1 N35      0.291800
      2 C5          1.6470   -1.5790    1.9040 c2        1 N35      0.072900
      3 C6          0.4860   -0.3830   -0.1140 ce        1 N35     -0.354400
      4 C7         -2.3010   -0.1370   -3.4070 cc        1 N35     -0.364800
      5 C8         -3.3240   -1.0440   -3.3880 cd        1 N35      0.147500
      6 C10        -4.2960   -1.0620   -4.5350 cd        1 N35      0.621500
      7 C13        -7.3510   -3.0070   -5.3470 c3        1 N35     -0.091400
      8 C15        -6.1690   -2.1180   -5.7610 c3        1 N35      0.190300
      9 C17         0.9680    1.6770   -9.2990 c2        1 N35     -0.249000
     10 C21        -0.0470    2.4250   -8.8730 c2        1 N35     -0.151200
     11 O32         2.7050   -3.1280    4.1250 o         1 N35     -0.639800
     12 S35         3.2880   -1.8550    3.9950 s6        1 N35      1.469900
     13 O31         3.4050   -1.0610    5.1460 o         1 N35     -0.639800
     14 C18         4.8220   -2.0270    3.3030 c3        1 N35     -0.380300
     15 N27         2.4700   -0.9970    2.8570 nh        1 N35     -0.762900
     16 C2         -0.7020    2.7160    0.8700 c1        1 N35     -0.096500
     17 C3          1.0820   -0.9560    0.8920 c1        1 N35      0.029200
     18 S34         1.2940   -0.2570   -1.6150 sy        1 N35      1.499800
     19 O29         2.1760    0.8270   -1.6030 o         1 N35     -0.635800
     20 O30         1.8770   -1.4960   -1.9170 o         1 N35     -0.635800
     21 N24         0.0400    0.0260   -2.6310 nh        1 N35     -0.864100
     22 C9         -1.3220   -0.0110   -2.2860 ce        1 N35      0.742500
     23 N22        -1.7920    0.0400   -1.0670 n2        1 N35     -0.664900
     24 C1         -0.7880    1.5840    0.4970 c1        1 N35     -0.167100
     25 C11        -2.1520    0.8070   -4.5320 c         1 N35      0.720700
     26 O28        -1.1800    1.5540   -4.6790 o         1 N35     -0.537500
     27 N26        -3.2340    0.8100   -5.5090 n         1 N35     -0.069400
     28 C19         3.6540    1.1490   -6.7960 c3        1 N35     -0.112800
     29 C16        -0.1400    3.0140   -7.5230 c3        1 N35     -0.086900
     30 N23        -4.2160   -0.1310   -5.4820 nc        1 N35     -0.585300
     31 O33        -3.5560   -1.9600   -2.4180 oh        1 N35     -0.468100
     32 N25        -5.2040   -2.1220   -4.6600 nh        1 N35     -0.689600
     33 C14        -5.8140   -2.7000   -3.4630 c3        1 N35      0.190300
     34 C12        -7.1850   -3.2720   -3.8560 c3        1 N35     -0.091400
     35 H13        -5.6490   -2.5220   -6.6710 h1        1 N35      0.061700
     36 H13A       -8.3180   -2.4920   -5.5640 hc        1 N35      0.056700
     37 H15        -7.3350   -3.9640   -5.9250 hc        1 N35      0.056700
     38 H15A       -6.5430   -1.0830   -6.0000 h1        1 N35      0.061700
     39 H17         4.1540    1.6130   -7.6740 hc        1 N35      0.028450
     40 H17A        1.8360    1.4390   -8.6670 ha        1 N35      0.107000
     41 H17B        1.0010    1.2520  -10.3100 ha        1 N35      0.107000
     42 H20         2.8040    1.7900   -6.4730 hc        1 N35      0.028450
     43 H20A       -4.0490    1.7710   -7.1820 ha        1 N35      0.005500
     44 H21        -0.9030    2.6450   -9.5350 ha        1 N35      0.110000
     45 H18         5.3410   -1.0570    3.1050 h1        1 N35      0.125700
     46 H18A        5.4980   -2.6000    3.9900 h1        1 N35      0.125700
     47 H18B        4.8240   -2.5890    2.3360 h1        1 N35      0.125700
     48 HN27        2.5160   -0.0020    2.8290 hn        1 N35      0.463800
     49 H2         -0.6180    3.7230    1.1970 ha        1 N35      0.172500
     50 H3          1.4850   -2.6780    2.0280 h4        1 N35      0.199000
     51 HN24        0.2120    0.2980   -3.5780 hn        1 N35      0.485800
     52 H1         -1.4270   -0.3700    0.9120 h1        1 N35      0.099700
     53 H19         4.3830    1.0510   -5.9620 hc        1 N35      0.028450
     54 H19A        3.2730    0.1430   -7.0770 hc        1 N35      0.028450
     55 H16        -1.0380    2.6080   -6.9790 hc        1 N35      0.053033
     56 H16A       -0.2540    4.1240   -7.5960 hc        1 N35      0.053033
     57 H16B        0.7670    2.7930   -6.9090 hc        1 N35      0.053033
     58 HO33       -2.9090   -1.8690   -1.6980 ho        1 N35      0.461000
     59 H14        -5.9240   -1.9410   -2.6420 h1        1 N35      0.061700
     60 H14A       -5.1320   -3.5160   -3.0950 h1        1 N35      0.061700
     61 H12        -7.9930   -2.7710   -3.2680 hc        1 N35      0.056700
     62 H12A       -7.2260   -4.3660   -3.6340 hc        1 N35      0.056700
     63 C20        -3.2230    1.7760   -6.4370 c1        1 N35      0.030500
@<TRIPOS>BOND
     1    1    3 1   
     2    1   23 1   
     3    1   24 1   
     4    1   52 1   
     5    2   15 1   
     6    2   17 2   
     7    2   50 1   
     8    3   17 2   
     9    3   18 1   
    10    4    5 2   
    11    4   22 1   
    12    4   25 1   
    13    5    6 1   
    14    5   31 1   
    15    6   30 2   
    16    6   32 1   
    17    7    8 1   
    18    7   34 1   
    19    7   36 1   
    20    7   37 1   
    21    8   32 1   
    22    8   35 1   
    23    8   38 1   
    24    9   10 2   
    25    9   40 1   
    26    9   41 1   
    27   10   29 1   
    28   10   44 1   
    29   11   12 2   
    30   12   13 2   
    31   12   14 1   
    32   12   15 1   
    33   14   45 1   
    34   14   46 1   
    35   14   47 1   
    36   15   48 1   
    37   16   24 3   
    38   16   49 1   
    39   18   19 2   
    40   18   20 2   
    41   18   21 1   
    42   21   22 1   
    43   21   51 1   
    44   22   23 2   
    45   25   26 2   
    46   25   27 1   
    47   27   30 1   
    48   27   63 3   
    49   28   39 1   
    50   28   42 1   
    51   28   53 1   
    52   28   54 1   
    53   29   55 1   
    54   29   56 1   
    55   29   57 1   
    56   31   58 1   
    57   32   33 1   
    58   33   34 1   
    59   33   59 1   
    60   33   60 1   
    61   34   61 1   
    62   34   62 1   
    63   43   63 1   
@<TRIPOS>SUBSTRUCTURE
     1 N35         1 TEMP              0 ****  ****    0 ROOT
