@<TRIPOS>MOLECULE
N35
   63    66     1     0     0
SMALL
bcc


@<TRIPOS>ATOM
      1 C4         -2.1690    0.2910    0.4670 ca        1 N35      0.256400
      2 C5         -4.9500   -0.2540    0.4360 ca        1 N35      0.121600
      3 C6         -2.6630   -0.8610   -0.1890 ca        1 N35     -0.408500
      4 C7          1.5390    0.1460    0.2520 cc        1 N35     -0.377800
      5 C8          1.9730    1.4510    0.1270 cd        1 N35      0.172500
      6 C10         3.4240    1.7410    0.2870 cd        1 N35      0.527500
      7 C13         5.6240    4.6570   -0.3190 c3        1 N35     -0.091400
      8 C15         5.2970    3.3580    0.4340 c3        1 N35      0.178800
      9 C17         7.9120   -3.0210   -0.6140 c3        1 N35     -0.092600
     10 C21         6.7570   -2.9710    0.3660 c3        1 N35     -0.065700
     11 O32        -7.3380    1.6610    1.0670 o         1 N35     -0.649300
     12 S35        -7.5620    0.5070    0.2940 s6        1 N35      1.470900
     13 O31        -8.7530   -0.2060    0.5330 o         1 N35     -0.649300
     14 C18        -7.5230    0.9570   -1.3410 c3        1 N35     -0.373300
     15 N27        -6.3250   -0.5460    0.4260 nh        1 N35     -0.784500
     16 C2         -4.4440    0.9010    1.0850 ca        1 N35     -0.096000
     17 C3         -4.0380   -1.1200   -0.1860 ca        1 N35     -0.042000
     18 S34        -1.6810   -1.9470   -1.0120 sy        1 N35      1.522200
     19 O29        -1.9200   -3.2590   -0.5890 o         1 N35     -0.640300
     20 O30        -1.8050   -1.7440   -2.3920 o         1 N35     -0.640300
     21 N24        -0.1810   -1.4590   -0.5180 nh        1 N35     -0.836100
     22 C9          0.1120   -0.2420    0.0960 ce        1 N35      0.790500
     23 N22        -0.8070    0.6020    0.5400 nf        1 N35     -0.707100
     24 C1         -3.0890    1.1680    1.0940 ca        1 N35     -0.113000
     25 C11         2.5060   -0.9050    0.5920 c         1 N35      0.694700
     26 O28         2.2230   -2.1110    0.7470 o         1 N35     -0.648500
     27 N26         3.8530   -0.4890    0.7680 n         1 N35     -0.181800
     28 C19         5.7630   -1.8990   -0.0610 c3        1 N35     -0.095400
     29 C16         6.0980   -4.3310    0.4640 c3        1 N35     -0.092600
     30 N23         4.2790    0.7480    0.5720 nc        1 N35     -0.466300
     31 O33         1.2000    2.5190   -0.1730 oh        1 N35     -0.472100
     32 N25         3.8680    3.0850    0.2610 nh        1 N35     -0.667600
     33 C14         3.3390    3.9350   -0.8110 c3        1 N35      0.178800
     34 C12         4.4310    4.9320   -1.2250 c3        1 N35     -0.091400
     35 H13         5.7740    5.4960    0.4050 hc        1 N35      0.053450
     36 H13A        6.5650    4.5390   -0.9080 hc        1 N35      0.053450
     37 H15         5.9580    2.5340    0.0460 h1        1 N35      0.058200
     38 H15A        5.4840    3.4660    1.5360 h1        1 N35      0.058200
     39 H17         8.4500   -2.0420   -0.6370 hc        1 N35      0.037033
     40 H17A        8.6370   -3.8160   -0.3150 hc        1 N35      0.037033
     41 H17B        7.5430   -3.2470   -1.6430 hc        1 N35      0.037033
     42 H20         5.5080   -1.0940    1.9460 h1        1 N35      0.079700
     43 H20A        4.3140   -2.4040    1.4920 h1        1 N35      0.079700
     44 H21         7.1670   -2.6980    1.3810 hc        1 N35      0.046700
     45 H18        -6.5390    1.3610   -1.6820 h1        1 N35      0.120033
     46 H18A       -7.7820    0.1200   -2.0370 h1        1 N35      0.120033
     47 H18B       -8.2720    1.7670   -1.5400 h1        1 N35      0.120033
     48 HN27       -6.5140   -1.5240    0.4840 hn        1 N35      0.461800
     49 H2         -5.1340    1.6030    1.5930 ha        1 N35      0.181000
     50 H3         -4.3970   -2.0420   -0.6800 ha        1 N35      0.150000
     51 HN24        0.5950   -2.0890   -0.5910 hn        1 N35      0.490800
     52 H1         -2.7180    2.0680    1.6120 ha        1 N35      0.160000
     53 H19         5.1400   -2.2850   -0.9100 hc        1 N35      0.054700
     54 H19A        6.3230   -1.0010   -0.4330 hc        1 N35      0.054700
     55 H16         5.2630   -4.3140    1.2050 hc        1 N35      0.037033
     56 H16A        5.6840   -4.6390   -0.5260 hc        1 N35      0.037033
     57 H16B        6.8430   -5.0970    0.7890 hc        1 N35      0.037033
     58 HO33        0.2540    2.2850   -0.1270 ho        1 N35      0.472000
     59 H14         2.9950    3.3350   -1.6970 h1        1 N35      0.058200
     60 H14A        2.4440    4.4730   -0.3910 h1        1 N35      0.058200
     61 H12         4.0640    5.9800   -1.1030 hc        1 N35      0.053450
     62 H12A        4.7010    4.7860   -2.2990 hc        1 N35      0.053450
     63 C20         4.8700   -1.5000    1.1100 c3        1 N35      0.108000
@<TRIPOS>BOND
     1    1    3 ar  
     2    1   23 1   
     3    1   24 ar  
     4    2   15 1   
     5    2   16 ar  
     6    2   17 ar  
     7    3   17 ar  
     8    3   18 1   
     9    4    5 2   
    10    4   22 1   
    11    4   25 1   
    12    5    6 1   
    13    5   31 1   
    14    6   30 2   
    15    6   32 1   
    16    7    8 1   
    17    7   34 1   
    18    7   35 1   
    19    7   36 1   
    20    8   32 1   
    21    8   37 1   
    22    8   38 1   
    23    9   10 1   
    24    9   39 1   
    25    9   40 1   
    26    9   41 1   
    27   10   28 1   
    28   10   29 1   
    29   10   44 1   
    30   11   12 2   
    31   12   13 2   
    32   12   14 1   
    33   12   15 1   
    34   14   45 1   
    35   14   46 1   
    36   14   47 1   
    37   15   48 1   
    38   16   24 ar  
    39   16   49 1   
    40   17   50 1   
    41   18   19 2   
    42   18   20 2   
    43   18   21 1   
    44   21   22 1   
    45   21   51 1   
    46   22   23 2   
    47   24   52 1   
    48   25   26 2   
    49   25   27 1   
    50   27   30 1   
    51   27   63 1   
    52   28   53 1   
    53   28   54 1   
    54   28   63 1   
    55   29   55 1   
    56   29   56 1   
    57   29   57 1   
    58   31   58 1   
    59   32   33 1   
    60   33   34 1   
    61   33   59 1   
    62   33   60 1   
    63   34   61 1   
    64   34   62 1   
    65   42   63 1   
    66   43   63 1   
@<TRIPOS>SUBSTRUCTURE
     1 N35         1 TEMP              0 ****  ****    0 ROOT
