@<TRIPOS>MOLECULE
N3A
   58    61     1     0     0
SMALL
bcc


@<TRIPOS>ATOM
      1 C1          3.5090   -2.3470    0.1960 c3        1 N3A     -0.024500
      2 O19         2.1970    3.5590    0.2720 o         1 N3A     -0.527100
      3 O20        -1.7170    1.1800    1.6110 o         1 N3A     -0.626100
      4 N28        -2.2840    1.2330   -0.6320 n         1 N3A     -0.415100
      5 C11        -1.3670    1.1770    0.4120 c         1 N3A      0.644100
      6 C2          0.1040    1.2220    0.0210 c3        1 N3A     -0.164400
      7 C3          0.9790    1.2260    1.2540 c3        1 N3A     -0.061400
      8 C4          2.4880    1.2540    0.9800 c3        1 N3A     -0.131000
      9 C5          2.8940    2.5390    0.2610 c         1 N3A      0.567300
     10 C6          4.2080    2.5140   -0.4080 ce        1 N3A     -0.259200
     11 C7          4.8790    1.3880   -0.6680 c2        1 N3A     -0.075200
     12 C8          4.3680    0.0280   -0.3430 c3        1 N3A     -0.020800
     13 C9          2.8890    0.0670    0.0960 c3        1 N3A     -0.050700
     14 C10         2.4910   -1.2990    0.6480 c3        1 N3A     -0.069400
     15 C14         4.4260   -0.8750   -1.5940 c3        1 N3A     -0.036200
     16 C15         3.7740   -2.1810   -1.2730 c2        1 N3A     -0.113400
     17 C17         3.4630   -3.0960   -2.1910 c2        1 N3A     -0.216000
     18 C18         3.1860    1.2890    2.3380 c3        1 N3A     -0.087100
     19 C28         5.2540   -0.6420    0.7370 c3        1 N3A      0.150100
     20 C29         4.8160   -2.0970    0.9450 c3        1 N3A     -0.107400
     21 O32        -6.8620   -2.5270   -2.1560 o         1 N3A     -0.831300
     22 O33        -4.8110   -2.6430   -3.0120 o         1 N3A     -0.831300
     23 C22        -5.2500   -0.9530   -1.3630 ca        1 N3A     -0.235600
     24 C23        -3.9450   -0.4350   -1.3640 ca        1 N3A      0.186100
     25 C24        -3.5880    0.6780   -0.5370 ca        1 N3A     -0.135400
     26 C25        -4.5870    1.2210    0.3020 ca        1 N3A      0.167100
     27 C26        -5.8870    0.6930    0.3070 ca        1 N3A     -0.224000
     28 C27        -6.2040   -0.3740   -0.5230 ca        1 N3A     -0.040000
     29 O34         6.6030   -0.5640    0.2850 oh        1 N3A     -0.605800
     30 H1          3.1250   -3.3760    0.4240 hc        1 N3A      0.063700
     31 HN28       -1.8910    1.0970   -1.5440 hn        1 N3A      0.308500
     32 H2          0.3150    0.3210   -0.6150 hc        1 N3A      0.069700
     33 H2A         0.3050    2.1420   -0.5900 hc        1 N3A      0.069700
     34 H3          0.7140    2.1310    1.8670 hc        1 N3A      0.067700
     35 H3A         0.7450    0.3210    1.8740 hc        1 N3A      0.067700
     36 H6          4.6080    3.5030   -0.6890 ha        1 N3A      0.145000
     37 H7          5.8730    1.4030   -1.1470 ha        1 N3A      0.141000
     38 H9          2.3110    0.2150   -0.8680 hc        1 N3A      0.062700
     39 H10         1.4700   -1.5700    0.2750 hc        1 N3A      0.056700
     40 H10A        2.4460   -1.2900    1.7670 hc        1 N3A      0.056700
     41 H14         3.9120   -0.3750   -2.4540 hc        1 N3A      0.062200
     42 H14A        5.5000   -1.0390   -1.8770 hc        1 N3A      0.062200
     43 H17         2.9840   -4.0490   -1.9330 ha        1 N3A      0.116000
     44 H17A        3.6590   -2.9420   -3.2600 ha        1 N3A      0.116000
     45 H18         3.1550    0.2860    2.8250 hc        1 N3A      0.042700
     46 H18A        4.2500    1.6110    2.2280 hc        1 N3A      0.042700
     47 H18B        2.6720    2.0210    3.0090 hc        1 N3A      0.042700
     48 H28         5.1740   -0.0770    1.7050 h1        1 N3A      0.043700
     49 H29         4.6690   -2.2960    2.0370 hc        1 N3A      0.048700
     50 H29A        5.6070   -2.7940    0.5680 hc        1 N3A      0.048700
     51 HO30       -3.4600    2.3270    1.3980 ho        1 N3A      0.437000
     52 HO31       -3.2930   -1.6680   -2.6990 ho        1 N3A      0.496000
     53 H26        -6.6380    1.1420    0.9700 ha        1 N3A      0.131000
     54 H27        -7.2230   -0.7980   -0.5350 ha        1 N3A      0.159000
     55 HO34        7.1300   -1.0790    0.9060 ho        1 N3A      0.399000
     56 C21        -5.6720   -2.1200   -2.2350 c         1 N3A      0.921200
     57 O31        -2.9400   -0.9280   -2.1530 oh        1 N3A     -0.575100
     58 O30        -4.3890    2.3080    1.1240 oh        1 N3A     -0.527100
@<TRIPOS>BOND
     1    1   14 1   
     2    1   16 1   
     3    1   20 1   
     4    1   30 1   
     5    2    9 2   
     6    3    5 2   
     7    4    5 1   
     8    4   25 1   
     9    4   31 1   
    10    5    6 1   
    11    6    7 1   
    12    6   32 1   
    13    6   33 1   
    14    7    8 1   
    15    7   34 1   
    16    7   35 1   
    17    8    9 1   
    18    8   13 1   
    19    8   18 1   
    20    9   10 1   
    21   10   11 2   
    22   10   36 1   
    23   11   12 1   
    24   11   37 1   
    25   12   13 1   
    26   12   15 1   
    27   12   19 1   
    28   13   14 1   
    29   13   38 1   
    30   14   39 1   
    31   14   40 1   
    32   15   16 1   
    33   15   41 1   
    34   15   42 1   
    35   16   17 2   
    36   17   43 1   
    37   17   44 1   
    38   18   45 1   
    39   18   46 1   
    40   18   47 1   
    41   19   20 1   
    42   19   29 1   
    43   19   48 1   
    44   20   49 1   
    45   20   50 1   
    46   21   56 1   
    47   22   56 1   
    48   23   24 ar  
    49   23   28 ar  
    50   23   56 1   
    51   24   25 ar  
    52   24   57 1   
    53   25   26 ar  
    54   26   27 ar  
    55   26   58 1   
    56   27   28 ar  
    57   27   53 1   
    58   28   54 1   
    59   29   55 1   
    60   51   58 1   
    61   52   57 1   
@<TRIPOS>SUBSTRUCTURE
     1 N3A         1 TEMP              0 ****  ****    0 ROOT
