@<TRIPOS>MOLECULE
N3A
   58    53     1     0     0
SMALL
bcc


@<TRIPOS>ATOM
      1 C1         -0.6610    1.2780   -1.0210 cg        1 N3A     -0.059300
      2 O19         3.2680   -1.1110    3.0870 o         1 N3A     -0.549100
      3 O20        10.0070   -3.1730    1.9060 o         1 N3A     -0.633100
      4 N28         7.8460   -3.9350    1.5960 n         1 N3A     -0.448100
      5 C11         8.8950   -3.4890    2.3820 c         1 N3A      0.647100
      6 C2          8.6730   -3.4900    3.8770 c3        1 N3A     -0.178100
      7 C3          3.9210    2.1840   -1.5480 c1        1 N3A     -0.098500
      8 C4          3.6330    3.2890   -1.1870 c1        1 N3A     -0.234100
      9 C5          2.6060   -0.7760    2.0990 c         1 N3A      0.577100
     10 C6          1.3240   -0.1490    2.2310 cg        1 N3A     -0.154200
     11 C7          0.2470    0.3720    2.3190 ch        1 N3A     -0.120300
     12 C8         -1.0240    0.9710    2.4300 cf        1 N3A      0.003100
     13 C9          4.8680   -4.0810    3.7270 c3        1 N3A     -0.126800
     14 C10        -0.2150    0.8720   -2.2880 ce        1 N3A     -0.119800
     15 C14        -1.8880    0.6320    3.3970 c2        1 N3A     -0.195000
     16 C15         0.5830   -0.1570   -2.4560 c1        1 N3A      0.002200
     17 C17         1.4030   -1.1490   -2.5860 c2        1 N3A     -0.209100
     18 C18         3.2800    4.6000   -0.7490 c3        1 N3A      0.001000
     19 C28        -1.3450    2.0480    1.4100 c3        1 N3A      0.281400
     20 C29        -1.0020    1.6220    0.0760 c1        1 N3A     -0.235100
     21 O32         4.6220   -0.8230   -2.4010 o         1 N3A     -0.845300
     22 O33         3.7900   -1.8870   -0.6530 o         1 N3A     -0.845300
     23 C22         6.1620   -2.0310   -0.9950 ce        1 N3A     -0.140900
     24 C23         6.3500   -3.0980   -0.1710 cf        1 N3A      0.167100
     25 C24         7.6820   -3.6370    0.2220 cf        1 N3A     -0.092400
     26 C25         8.5920   -3.8660   -0.7610 c2        1 N3A      0.067100
     27 C26         8.1390   -0.6500   -1.9780 c1        1 N3A     -0.208500
     28 C27         7.2460   -1.3060   -1.5200 cg        1 N3A     -0.094300
     29 O34        -2.7020    2.4670    1.5100 oh        1 N3A     -0.599800
     30 H1         -0.5420    1.4900   -3.1430 ha        1 N3A      0.138000
     31 HN28        6.9710   -4.0750    2.0670 hn        1 N3A      0.327500
     32 H2          9.6340   -3.2370    4.3850 hc        1 N3A      0.064367
     33 H2A         8.3250   -4.4900    4.2300 hc        1 N3A      0.064367
     34 H3          4.1710    1.1880   -1.8620 ha        1 N3A      0.217500
     35 H3A         7.9050   -2.7240    4.1460 hc        1 N3A      0.064367
     36 H6          2.9580   -0.9460    1.0470 h4        1 N3A      0.111200
     37 H7          4.2920   -4.8300    4.3120 hc        1 N3A      0.031700
     38 H9          4.8650   -4.3650    2.6490 hc        1 N3A      0.031700
     39 H10         5.9160   -4.0460    4.1020 hc        1 N3A      0.031700
     40 H10A        4.3990   -3.0770    3.8370 hc        1 N3A      0.031700
     41 H14        -1.6560   -0.1290    4.1520 ha        1 N3A      0.122000
     42 H14A       -2.8740    1.1080    3.4810 ha        1 N3A      0.122000
     43 H17         1.0620   -2.1780   -2.7720 ha        1 N3A      0.181000
     44 H17A        2.5090   -1.0300   -2.4790 ha        1 N3A      0.181000
     45 H18         3.9210    5.3720   -1.2480 hc        1 N3A      0.035700
     46 H18A        3.4130    4.6950    0.3600 hc        1 N3A      0.035700
     47 H18B        2.2080    4.8210   -0.9910 hc        1 N3A      0.035700
     48 H28        -0.7570    2.9830    1.6780 h1        1 N3A      0.097700
     49 H29         1.1720    4.6040    1.1170 ha        1 N3A      0.000500
     50 H29A        0.7050    4.7180    1.5950 ha        1 N3A      0.000500
     51 HO30       10.1330   -4.3860    0.2740 ho        1 N3A      0.440000
     52 HO31        4.4770   -3.4040    0.2100 ho        1 N3A      0.482000
     53 H26         8.3650   -3.6360   -1.8190 h4        1 N3A      0.181000
     54 H27         8.9240   -0.0700   -2.3820 ha        1 N3A      0.149500
     55 HO34       -3.2500    1.7590    1.1510 ho        1 N3A      0.403000
     56 C21         4.7820   -1.5450   -1.3780 c         1 N3A      0.927800
     57 O31         5.3400   -3.8260    0.4050 oh        1 N3A     -0.555100
     58 O30         9.8470   -4.3790   -0.6530 oh        1 N3A     -0.515100
@<TRIPOS>BOND
     1    1   14 1   
     2    1   20 3   
     3    2    9 2   
     4    3    5 2   
     5    4    5 1   
     6    4   25 1   
     7    4   31 1   
     8    5    6 1   
     9    6   32 1   
    10    6   33 1   
    11    6   35 1   
    12    7    8 3   
    13    7   34 1   
    14    8   18 1   
    15    9   10 1   
    16    9   36 1   
    17   10   11 3   
    18   11   12 1   
    19   12   15 2   
    20   12   19 1   
    21   13   37 1   
    22   13   38 1   
    23   13   39 1   
    24   13   40 1   
    25   14   16 2   
    26   14   30 1   
    27   15   41 1   
    28   15   42 1   
    29   16   17 2   
    30   17   43 1   
    31   17   44 1   
    32   18   45 1   
    33   18   46 1   
    34   18   47 1   
    35   19   20 1   
    36   19   29 1   
    37   19   48 1   
    38   21   56 1   
    39   22   56 1   
    40   23   24 2   
    41   23   28 1   
    42   23   56 1   
    43   24   25 1   
    44   24   57 1   
    45   25   26 2   
    46   26   53 1   
    47   26   58 1   
    48   27   28 3   
    49   27   54 1   
    50   29   55 1   
    51   49   50 1   
    52   51   58 1   
    53   52   57 1   
@<TRIPOS>SUBSTRUCTURE
     1 N3A         1 TEMP              0 ****  ****    0 ROOT
