@<TRIPOS>MOLECULE
N3B
   61    63     1     0     0
SMALL
bcc


@<TRIPOS>ATOM
      1 C1          1.1680    1.8770    0.3510 ca        1 N3B     -0.166000
      2 C2          2.3810    2.3220    0.9110 ca        1 N3B      0.155900
      3 C3          2.6550    2.0990    2.2740 ca        1 N3B     -0.166000
      4 C4          1.7210    1.4350    3.0600 ca        1 N3B     -0.079500
      5 C5          0.5080    0.9910    2.5130 cp        1 N3B     -0.096000
      6 C6          0.2440    1.2200    1.1540 ca        1 N3B     -0.079500
      7 F7          3.2850    2.9640    0.1380 f         1 N3B     -0.123900
      8 C8         -0.4680    0.2980    3.3470 cp        1 N3B      0.044000
      9 C9         -1.8420    0.5370    3.1880 ca        1 N3B     -0.131500
     10 C10        -2.7710   -0.1250    3.9830 ca        1 N3B     -0.067000
     11 C11        -2.3410   -1.0340    4.9630 ca        1 N3B     -0.196600
     12 C12        -0.9700   -1.2860    5.1200 ca        1 N3B     -0.067000
     13 C13        -0.0460   -0.6250    4.3200 ca        1 N3B     -0.131500
     14 C14        -3.3680   -1.7130    5.7660 c         1 N3B      0.649700
     15 O15        -4.5300   -1.9270    5.3900 o         1 N3B     -0.537100
     16 N16        -3.0610   -2.0970    7.1260 nt        1 N3B     -0.725000
     17 S17        -4.2690   -0.7790    8.7000 s4        1 N3B      1.686300
     18 C18        -5.4340   -1.7750    8.8700 ca        1 N3B     -0.703500
     19 C19        -5.5070   -2.6950    9.9450 ca        1 N3B      0.133000
     20 C20        -6.5760   -3.5520   10.1320 ca        1 N3B     -0.296200
     21 C21        -7.7060   -3.5480    9.2100 ca        1 N3B      0.344600
     22 C22        -7.5930   -2.6280    8.0950 ca        1 N3B     -0.233000
     23 C23        -6.5270   -1.8030    7.9400 ca        1 N3B      0.074000
     24 O24        -4.4370    0.2770    7.8640 o         1 N3B     -0.438900
     25 O25        -3.2550   -0.8370    9.6070 o         1 N3B     -0.438900
     26 N26        -6.5070   -4.4660   11.3060 no        1 N3B      0.327200
     27 O27        -5.4880   -4.4860   11.9370 o         1 N3B     -0.188500
     28 O28        -7.4520   -5.1510   11.5930 o         1 N3B     -0.188500
     29 N29        -8.7840   -4.3270    9.3500 nu        1 N3B     -0.657600
     30 C30        -9.9030   -4.3240    8.4210 c3        1 N3B      0.182800
     31 C31       -10.9870   -5.3260    8.7980 c3        1 N3B     -0.077300
     32 S32       -12.2300   -5.3420    7.5560 ss        1 N3B     -0.151000
     33 C33       -13.3580   -4.1590    8.0300 ca        1 N3B     -0.054100
     34 C34       -13.8380   -3.3100    7.0250 ca        1 N3B     -0.099500
     35 C35       -14.8470   -2.3900    7.3050 ca        1 N3B     -0.126500
     36 C36       -15.3690   -2.2960    8.5960 ca        1 N3B     -0.101000
     37 C37       -14.8880   -3.1340    9.6030 ca        1 N3B     -0.126500
     38 C38       -13.8940   -4.0680    9.3190 ca        1 N3B     -0.099500
     39 HA1         0.9640    2.0520   -0.7160 ha        1 N3B      0.161000
     40 HA2         3.6040    2.4530    2.7040 ha        1 N3B      0.161000
     41 HB1         1.9360    1.2680    4.1280 ha        1 N3B      0.141500
     42 HB2        -0.7010    0.8670    0.7120 ha        1 N3B      0.141500
     43 HC1        -2.1880    1.2590    2.4310 ha        1 N3B      0.158000
     44 HD1        -3.8500    0.0590    3.8490 ha        1 N3B      0.144000
     45 HD2        -0.6020   -2.0250    5.8480 ha        1 N3B      0.144000
     46 HC2         1.0290   -0.8370    4.4380 ha        1 N3B      0.158000
     47 H47        -2.0820   -2.0080    7.3410 hn        1 N3B      0.303000
     48 HG         -4.6620   -2.7160   10.6730 ha        1 N3B      0.199000
     49 HF         -8.4030   -2.6030    7.3440 ha        1 N3B      0.181000
     50 HE         -6.4760   -1.1310    7.0580 ha        1 N3B      0.184000
     51 H51        -8.8620   -4.9620   10.1280 hn        1 N3B      0.494800
     52 HH1        -9.5180   -4.5710    7.3870 h1        1 N3B      0.084200
     53 HH2       -10.3480   -3.2860    8.3970 h1        1 N3B      0.084200
     54 HI1       -11.4060   -5.0970    9.8090 h1        1 N3B      0.096200
     55 HI2       -10.5740   -6.3680    8.8230 h1        1 N3B      0.096200
     56 HJ1       -13.4250   -3.3810    6.0070 ha        1 N3B      0.139500
     57 HK1       -15.2310   -1.7380    6.5060 ha        1 N3B      0.145500
     58 HL        -16.1620   -1.5660    8.8180 ha        1 N3B      0.146000
     59 HK2       -15.3040   -3.0680   10.6200 ha        1 N3B      0.145500
     60 HJ2       -13.5460   -4.7470   10.1130 ha        1 N3B      0.139500
     61 H162       -3.3730   -3.0350    7.3160 hn        1 N3B      0.303000
@<TRIPOS>BOND
     1    1    2 ar  
     2    1    6 ar  
     3    1   39 1   
     4    2    3 ar  
     5    2    7 1   
     6    3    4 ar  
     7    3   40 1   
     8    4    5 ar  
     9    4   41 1   
    10    5    6 ar  
    11    5    8 1   
    12    6   42 1   
    13    8    9 ar  
    14    8   13 ar  
    15    9   10 ar  
    16    9   43 1   
    17   10   11 ar  
    18   10   44 1   
    19   11   12 ar  
    20   11   14 1   
    21   12   13 ar  
    22   12   45 1   
    23   13   46 1   
    24   14   15 2   
    25   14   16 1   
    26   16   47 1   
    27   16   61 1   
    28   17   18 1   
    29   17   24 1   
    30   17   25 1   
    31   18   19 ar  
    32   18   23 ar  
    33   19   20 ar  
    34   19   48 1   
    35   20   21 ar  
    36   20   26 1   
    37   21   22 ar  
    38   21   29 1   
    39   22   23 ar  
    40   22   49 1   
    41   23   50 1   
    42   26   27 1   
    43   26   28 1   
    44   29   30 1   
    45   29   51 1   
    46   30   31 1   
    47   30   52 1   
    48   30   53 1   
    49   31   32 1   
    50   31   54 1   
    51   31   55 1   
    52   32   33 1   
    53   33   34 ar  
    54   33   38 ar  
    55   34   35 ar  
    56   34   56 1   
    57   35   36 ar  
    58   35   57 1   
    59   36   37 ar  
    60   36   58 1   
    61   37   38 ar  
    62   37   59 1   
    63   38   60 1   
@<TRIPOS>SUBSTRUCTURE
     1 N3B         1 TEMP              0 ****  ****    0 ROOT
