@<TRIPOS>MOLECULE
N3B
   60    63     1     0     0
SMALL
bcc


@<TRIPOS>ATOM
      1 C1         -8.5810    3.8150   -0.2440 ca        1 N3B     -0.166000
      2 C2         -9.5350    3.2920    0.6490 ca        1 N3B      0.134900
      3 C3         -9.3340    2.0300    1.2390 ca        1 N3B     -0.166000
      4 C4         -8.1860    1.3070    0.9350 ca        1 N3B     -0.089000
      5 C5         -7.2300    1.8180    0.0450 cp        1 N3B     -0.067000
      6 C6         -7.4410    3.0760   -0.5390 ca        1 N3B     -0.089000
      7 F7        -10.6480    4.0040    0.9400 f         1 N3B     -0.136900
      8 C8         -6.0280    1.0500   -0.2700 cp        1 N3B     -0.003000
      9 C9         -5.5340    1.0080   -1.5810 ca        1 N3B     -0.129000
     10 C10        -4.3890    0.2760   -1.8810 ca        1 N3B     -0.084000
     11 C11        -3.7260   -0.4330   -0.8710 ca        1 N3B     -0.151600
     12 C12        -4.2080   -0.3910    0.4410 ca        1 N3B     -0.084000
     13 C13        -5.3510    0.3460    0.7380 ca        1 N3B     -0.129000
     14 C14        -2.5020   -1.1940   -1.2390 c         1 N3B      0.710700
     15 O15        -1.6940   -0.7710   -2.0870 o         1 N3B     -0.585100
     16 N16        -2.2750   -2.4220   -0.6200 n         1 N3B     -0.670300
     17 S17        -1.0600   -3.5140   -0.9060 sy        1 N3B      1.525900
     18 C18         0.3200   -2.7110   -0.4270 ca        1 N3B     -0.477500
     19 C19         0.8840   -2.9150    0.8270 ca        1 N3B      0.104000
     20 C20         2.0750   -2.2820    1.2200 ca        1 N3B     -0.309200
     21 C21         2.7600   -1.3960    0.3150 ca        1 N3B      0.326600
     22 C22         2.1490   -1.2030   -0.9680 ca        1 N3B     -0.257000
     23 C23         0.9800   -1.8330   -1.3150 ca        1 N3B      0.075000
     24 O24        -0.9830   -3.8260   -2.2690 o         1 N3B     -0.641300
     25 O25        -1.3050   -4.5860   -0.0200 o         1 N3B     -0.641300
     26 N26         2.5600   -2.5720    2.5850 no        1 N3B      0.328200
     27 O27         1.8410   -3.1810    3.3320 o         1 N3B     -0.224500
     28 O28         3.6540   -2.2070    2.9440 o         1 N3B     -0.224500
     29 N29         3.9140   -0.7520    0.6340 nh        1 N3B     -0.744600
     30 C30         4.5900    0.1320   -0.2840 c3        1 N3B      0.217800
     31 C31         5.8690    0.7160    0.3040 c3        1 N3B     -0.063300
     32 S32         6.5220    1.7700   -0.9540 ss        1 N3B     -0.169000
     33 C33         7.9570    2.4020   -0.3070 ca        1 N3B     -0.003100
     34 C34         8.6560    3.2710   -1.1610 ca        1 N3B     -0.129500
     35 C35         9.8470    3.8550   -0.7450 ca        1 N3B     -0.111500
     36 C36        10.3580    3.5810    0.5260 ca        1 N3B     -0.133000
     37 C37         9.6690    2.7190    1.3760 ca        1 N3B     -0.111500
     38 C38         8.4730    2.1310    0.9620 ca        1 N3B     -0.129500
     39 HA1        -8.7440    4.8030   -0.6990 ha        1 N3B      0.153000
     40 HA2       -10.0860    1.6280    1.9330 ha        1 N3B      0.153000
     41 HB1        -8.0320    0.3180    1.3930 ha        1 N3B      0.142500
     42 HB2        -6.6920    3.4880   -1.2340 ha        1 N3B      0.142500
     43 HC1        -6.0580    1.5540   -2.3810 ha        1 N3B      0.144500
     44 HD1        -3.9920    0.2530   -2.9090 ha        1 N3B      0.148500
     45 HD2        -3.6840   -0.9180    1.2530 ha        1 N3B      0.148500
     46 HC2        -5.7210    0.3860    1.7740 ha        1 N3B      0.144500
     47 H47        -2.9670   -2.6720    0.0550 hn        1 N3B      0.338500
     48 HG          0.3820   -3.6120    1.5340 ha        1 N3B      0.190000
     49 HF          2.6240   -0.5300   -1.6990 ha        1 N3B      0.155000
     50 HE          0.5290   -1.6520   -2.3120 ha        1 N3B      0.181000
     51 H51         4.3560   -0.9140    1.5150 hn        1 N3B      0.476800
     52 HH1         4.8450   -0.4350   -1.2290 h1        1 N3B      0.067700
     53 HH2         3.8930    0.9780   -0.5620 h1        1 N3B      0.067700
     54 HI1         5.6540    1.2940    1.2360 h1        1 N3B      0.081200
     55 HI2         6.5950   -0.0930    0.5640 h1        1 N3B      0.081200
     56 HJ1         8.2540    3.4880   -2.1630 ha        1 N3B      0.136500
     57 HK1        10.3870    4.5350   -1.4200 ha        1 N3B      0.136500
     58 HL         11.3000    4.0430    0.8530 ha        1 N3B      0.136000
     59 HK2        10.0650    2.4970    2.3780 ha        1 N3B      0.136500
     60 HJ2         7.9430    1.4530    1.6480 ha        1 N3B      0.136500
@<TRIPOS>BOND
     1    1    2 ar  
     2    1    6 ar  
     3    1   39 1   
     4    2    3 ar  
     5    2    7 1   
     6    3    4 ar  
     7    3   40 1   
     8    4    5 ar  
     9    4   41 1   
    10    5    6 ar  
    11    5    8 1   
    12    6   42 1   
    13    8    9 ar  
    14    8   13 ar  
    15    9   10 ar  
    16    9   43 1   
    17   10   11 ar  
    18   10   44 1   
    19   11   12 ar  
    20   11   14 1   
    21   12   13 ar  
    22   12   45 1   
    23   13   46 1   
    24   14   15 2   
    25   14   16 1   
    26   16   17 1   
    27   16   47 1   
    28   17   18 1   
    29   17   24 2   
    30   17   25 2   
    31   18   19 ar  
    32   18   23 ar  
    33   19   20 ar  
    34   19   48 1   
    35   20   21 ar  
    36   20   26 1   
    37   21   22 ar  
    38   21   29 1   
    39   22   23 ar  
    40   22   49 1   
    41   23   50 1   
    42   26   27 1   
    43   26   28 1   
    44   29   30 1   
    45   29   51 1   
    46   30   31 1   
    47   30   52 1   
    48   30   53 1   
    49   31   32 1   
    50   31   54 1   
    51   31   55 1   
    52   32   33 1   
    53   33   34 ar  
    54   33   38 ar  
    55   34   35 ar  
    56   34   56 1   
    57   35   36 ar  
    58   35   57 1   
    59   36   37 ar  
    60   36   58 1   
    61   37   38 ar  
    62   37   59 1   
    63   38   60 1   
@<TRIPOS>SUBSTRUCTURE
     1 N3B         1 TEMP              0 ****  ****    0 ROOT
