@<TRIPOS>MOLECULE
N3B
   61    63     1     0     0
SMALL
bcc


@<TRIPOS>ATOM
      1 C1          1.1660    1.8960    0.3500 ca        1 N3B     -0.166000
      2 C2          2.3950    2.3030    0.9060 ca        1 N3B      0.155900
      3 C3          2.6800    2.0420    2.2600 ca        1 N3B     -0.166000
      4 C4          1.7420    1.3770    3.0410 ca        1 N3B     -0.079500
      5 C5          0.5140    0.9710    2.4980 cp        1 N3B     -0.096000
      6 C6          0.2380    1.2390    1.1490 ca        1 N3B     -0.079500
      7 F7          3.3020    2.9460    0.1380 f         1 N3B     -0.123900
      8 C8         -0.4660    0.2770    3.3270 cp        1 N3B      0.044000
      9 C9         -1.8360    0.5470    3.1920 ca        1 N3B     -0.131500
     10 C10        -2.7690   -0.1160    3.9820 ca        1 N3B     -0.067000
     11 C11        -2.3460   -1.0580    4.9330 ca        1 N3B     -0.196600
     12 C12        -0.9790   -1.3410    5.0660 ca        1 N3B     -0.067000
     13 C13        -0.0510   -0.6790    4.2710 ca        1 N3B     -0.131500
     14 C14        -3.3770   -1.7370    5.7310 c         1 N3B      0.649700
     15 O15        -4.5470   -1.9180    5.3650 o         1 N3B     -0.537100
     16 N16        -3.0610   -2.1610    7.0770 n         1 N3B     -0.725000
     17 S17        -4.2230   -0.8590    8.6990 s4        1 N3B      1.686300
     18 C18        -5.4050   -1.8360    8.8600 ca        1 N3B     -0.703500
     19 C19        -5.4820   -2.7810    9.9120 ca        1 N3B      0.133000
     20 C20        -6.5650   -3.6220   10.0910 ca        1 N3B     -0.296200
     21 C21        -7.7070   -3.5730    9.1860 ca        1 N3B      0.344600
     22 C22        -7.5910   -2.6270    8.0920 ca        1 N3B     -0.233000
     23 C23        -6.5100   -1.8190    7.9440 ca        1 N3B      0.074000
     24 O24        -4.3810    0.2210    7.8920 o         1 N3B     -0.438900
     25 O25        -3.1990   -0.9580    9.5900 o         1 N3B     -0.438900
     26 N26        -6.4980   -4.5680   11.2400 no        1 N3B      0.327200
     27 O27        -5.4710   -4.6240   11.8560 o         1 N3B     -0.188500
     28 O28        -7.4530   -5.2410   11.5240 o         1 N3B     -0.188500
     29 N29        -8.7970   -4.3360    9.3200 nh        1 N3B     -0.657600
     30 C30        -9.9290   -4.2880    8.4070 c3        1 N3B      0.182800
     31 C31       -11.0250   -5.2800    8.7720 c3        1 N3B     -0.077300
     32 S32       -12.2850   -5.2390    7.5480 ss        1 N3B     -0.151000
     33 C33       -13.3870   -4.0530    8.0730 ca        1 N3B     -0.054100
     34 C34       -13.8660   -3.1660    7.1010 ca        1 N3B     -0.099500
     35 C35       -14.8560   -2.2390    7.4230 ca        1 N3B     -0.126500
     36 C36       -15.3590   -2.1760    8.7230 ca        1 N3B     -0.101000
     37 C37       -14.8790   -3.0530    9.6970 ca        1 N3B     -0.126500
     38 C38       -13.9040   -3.9940    9.3710 ca        1 N3B     -0.099500
     39 HA1         0.9530    2.1010   -0.7090 ha        1 N3B      0.161000
     40 HA2         3.6410    2.3660    2.6860 ha        1 N3B      0.161000
     41 HB1         1.9660    1.1800    4.1010 ha        1 N3B      0.141500
     42 HB2        -0.7190    0.9150    0.7100 ha        1 N3B      0.141500
     43 HC1        -2.1770    1.2950    2.4570 ha        1 N3B      0.158000
     44 HD1        -3.8450    0.0930    3.8650 ha        1 N3B      0.144000
     45 HD2        -0.6170   -2.1050    5.7710 ha        1 N3B      0.144000
     46 HC2         1.0210   -0.9150    4.3710 ha        1 N3B      0.158000
     47 H47        -2.0780   -2.0960    7.2820 hn        1 N3B      0.303000
     48 HG         -4.6280   -2.8380   10.6270 ha        1 N3B      0.199000
     49 HF         -8.4100   -2.5670    7.3540 ha        1 N3B      0.181000
     50 HE         -6.4590   -1.1250    7.0800 ha        1 N3B      0.184000
     51 H51        -8.8770   -4.9890   10.0830 hn        1 N3B      0.494800
     52 HH1        -9.5610   -4.5130    7.3620 h1        1 N3B      0.084200
     53 HH2       -10.3540   -3.2410    8.4170 h1        1 N3B      0.084200
     54 HI1       -11.4260   -5.0710    9.7940 h1        1 N3B      0.096200
     55 HI2       -10.6310   -6.3290    8.7620 h1        1 N3B      0.096200
     56 HJ1       -13.4670   -3.2120    6.0750 ha        1 N3B      0.139500
     57 HK1       -15.2400   -1.5560    6.6500 ha        1 N3B      0.145500
     58 HL        -16.1370   -1.4410    8.9790 ha        1 N3B      0.146000
     59 HK2       -15.2800   -3.0120   10.7210 ha        1 N3B      0.145500
     60 HJ2       -13.5570   -4.7020   10.1390 ha        1 N3B      0.139500
     61 H162       -3.3900   -3.0960    7.2480 hn        1 N3B      0.303000
@<TRIPOS>BOND
     1    1    2 ar  
     2    1    6 ar  
     3    1   39 1   
     4    2    3 ar  
     5    2    7 1   
     6    3    4 ar  
     7    3   40 1   
     8    4    5 ar  
     9    4   41 1   
    10    5    6 ar  
    11    5    8 1   
    12    6   42 1   
    13    8    9 ar  
    14    8   13 ar  
    15    9   10 ar  
    16    9   43 1   
    17   10   11 ar  
    18   10   44 1   
    19   11   12 ar  
    20   11   14 1   
    21   12   13 ar  
    22   12   45 1   
    23   13   46 1   
    24   14   15 2   
    25   14   16 1   
    26   16   47 1   
    27   16   61 1   
    28   17   18 1   
    29   17   24 1   
    30   17   25 1   
    31   18   19 ar  
    32   18   23 ar  
    33   19   20 ar  
    34   19   48 1   
    35   20   21 ar  
    36   20   26 1   
    37   21   22 ar  
    38   21   29 1   
    39   22   23 ar  
    40   22   49 1   
    41   23   50 1   
    42   26   27 1   
    43   26   28 1   
    44   29   30 1   
    45   29   51 1   
    46   30   31 1   
    47   30   52 1   
    48   30   53 1   
    49   31   32 1   
    50   31   54 1   
    51   31   55 1   
    52   32   33 1   
    53   33   34 ar  
    54   33   38 ar  
    55   34   35 ar  
    56   34   56 1   
    57   35   36 ar  
    58   35   57 1   
    59   36   37 ar  
    60   36   58 1   
    61   37   38 ar  
    62   37   59 1   
    63   38   60 1   
@<TRIPOS>SUBSTRUCTURE
     1 N3B         1 TEMP              0 ****  ****    0 ROOT
