@<TRIPOS>MOLECULE
N3B
   60    63     1     0     0
SMALL
bcc


@<TRIPOS>ATOM
      1 C1          0.4560    0.6990    0.0140 ca        1 N3B     -0.166000
      2 C2          1.7310    0.1030    0.0420 ca        1 N3B      0.134900
      3 C3          2.2080   -0.4930    1.2250 ca        1 N3B     -0.166000
      4 C4          1.4090   -0.4900    2.3620 ca        1 N3B     -0.089000
      5 C5          0.1380    0.1020    2.3460 cp        1 N3B     -0.067000
      6 C6         -0.3270    0.6950    1.1630 ca        1 N3B     -0.089000
      7 F7          2.5010    0.1040   -1.0710 f         1 N3B     -0.136900
      8 C8         -0.6930    0.1010    3.5480 cp        1 N3B     -0.003000
      9 C9         -1.4430    1.2350    3.8950 ca        1 N3B     -0.129000
     10 C10        -2.2340    1.2340    5.0400 ca        1 N3B     -0.084000
     11 C11        -2.2800    0.0990    5.8590 ca        1 N3B     -0.151600
     12 C12        -1.5420   -1.0380    5.5160 ca        1 N3B     -0.084000
     13 C13        -0.7540   -1.0350    4.3680 ca        1 N3B     -0.129000
     14 C14        -3.1470    0.1440    7.0670 c         1 N3B      0.710700
     15 O15        -4.2420    0.7370    7.0710 o         1 N3B     -0.585100
     16 N16        -2.7000   -0.4880    8.2260 n         1 N3B     -0.670300
     17 S17        -3.4050   -0.5120    9.7270 sy        1 N3B      1.525900
     18 C18        -4.8220   -1.3580    9.4890 ca        1 N3B     -0.477500
     19 C19        -4.9210   -2.7120    9.7860 ca        1 N3B      0.104000
     20 C20        -6.1250   -3.4210    9.6360 ca        1 N3B     -0.309200
     21 C21        -7.3110   -2.7490    9.1730 ca        1 N3B      0.326600
     22 C22        -7.1730   -1.3540    8.8700 ca        1 N3B     -0.257000
     23 C23        -5.9780   -0.6970    9.0210 ca        1 N3B      0.075000
     24 O24        -3.6910    0.7870   10.1630 o         1 N3B     -0.641300
     25 O25        -2.5370   -1.2790   10.5360 o         1 N3B     -0.641300
     26 N26        -6.0930   -4.8600    9.9720 no        1 N3B      0.328200
     27 O27        -5.0270   -5.3750   10.1830 o         1 N3B     -0.224500
     28 O28        -7.1120   -5.5040   10.0330 o         1 N3B     -0.224500
     29 N29        -8.5060   -3.3770    9.0070 nh        1 N3B     -0.744600
     30 C30        -9.6870   -2.6910    8.5420 c3        1 N3B      0.217800
     31 C31       -10.8990   -3.6100    8.4570 c3        1 N3B     -0.063300
     32 S32       -12.2130   -2.5930    7.8570 ss        1 N3B     -0.169000
     33 C33       -13.5690   -3.6100    7.7860 ca        1 N3B     -0.003100
     34 C34       -14.7480   -2.9920    7.3400 ca        1 N3B     -0.129500
     35 C35       -15.9270   -3.7210    7.2370 ca        1 N3B     -0.111500
     36 C36       -15.9480   -5.0750    7.5770 ca        1 N3B     -0.133000
     37 C37       -14.7810   -5.6930    8.0210 ca        1 N3B     -0.111500
     38 C38       -13.5950   -4.9650    8.1250 ca        1 N3B     -0.129500
     39 HA1         0.0910    1.1600   -0.9140 ha        1 N3B      0.153000
     40 HA2         3.2060   -0.9530    1.2380 ha        1 N3B      0.153000
     41 HB1         1.7840   -0.9520    3.2890 ha        1 N3B      0.142500
     42 HB2        -1.3260    1.1570    1.1390 ha        1 N3B      0.142500
     43 HC1        -1.4010    2.1340    3.2600 ha        1 N3B      0.144500
     44 HD1        -2.8340    2.1190    5.3070 ha        1 N3B      0.148500
     45 HD2        -1.5880   -1.9490    6.1330 ha        1 N3B      0.148500
     46 HC2        -0.1830   -1.9360    4.0960 ha        1 N3B      0.144500
     47 H47        -1.8200   -0.9490    8.1260 hn        1 N3B      0.338500
     48 HG         -4.0220   -3.2460   10.1650 ha        1 N3B      0.190000
     49 HF         -8.0460   -0.7900    8.5040 ha        1 N3B      0.155000
     50 HE         -5.9050    0.3810    8.7670 ha        1 N3B      0.181000
     51 H51        -8.6090   -4.3410    9.2500 hn        1 N3B      0.476800
     52 HH1        -9.9220   -1.8360    9.2440 h1        1 N3B      0.067700
     53 HH2        -9.4820   -2.2550    7.5190 h1        1 N3B      0.067700
     54 HI1       -10.7070   -4.4640    7.7620 h1        1 N3B      0.081200
     55 HI2       -11.1500   -4.0360    9.4600 h1        1 N3B      0.081200
     56 HJ1       -14.7330   -1.9230    7.0720 ha        1 N3B      0.136500
     57 HK1       -16.8460   -3.2280    6.8860 ha        1 N3B      0.136500
     58 HL        -16.8820   -5.6500    7.4950 ha        1 N3B      0.136000
     59 HK2       -14.7890   -6.7600    8.2910 ha        1 N3B      0.136500
     60 HJ2       -12.6840   -5.4710    8.4770 ha        1 N3B      0.136500
@<TRIPOS>BOND
     1    1    2 ar  
     2    1    6 ar  
     3    1   39 1   
     4    2    3 ar  
     5    2    7 1   
     6    3    4 ar  
     7    3   40 1   
     8    4    5 ar  
     9    4   41 1   
    10    5    6 ar  
    11    5    8 1   
    12    6   42 1   
    13    8    9 ar  
    14    8   13 ar  
    15    9   10 ar  
    16    9   43 1   
    17   10   11 ar  
    18   10   44 1   
    19   11   12 ar  
    20   11   14 1   
    21   12   13 ar  
    22   12   45 1   
    23   13   46 1   
    24   14   15 2   
    25   14   16 1   
    26   16   17 1   
    27   16   47 1   
    28   17   18 1   
    29   17   24 2   
    30   17   25 2   
    31   18   19 ar  
    32   18   23 ar  
    33   19   20 ar  
    34   19   48 1   
    35   20   21 ar  
    36   20   26 1   
    37   21   22 ar  
    38   21   29 1   
    39   22   23 ar  
    40   22   49 1   
    41   23   50 1   
    42   26   27 1   
    43   26   28 1   
    44   29   30 1   
    45   29   51 1   
    46   30   31 1   
    47   30   52 1   
    48   30   53 1   
    49   31   32 1   
    50   31   54 1   
    51   31   55 1   
    52   32   33 1   
    53   33   34 ar  
    54   33   38 ar  
    55   34   35 ar  
    56   34   56 1   
    57   35   36 ar  
    58   35   57 1   
    59   36   37 ar  
    60   36   58 1   
    61   37   38 ar  
    62   37   59 1   
    63   38   60 1   
@<TRIPOS>SUBSTRUCTURE
     1 N3B         1 TEMP              0 ****  ****    0 ROOT
