@<TRIPOS>MOLECULE
N3D
   18    17     1     0     0
SMALL
bcc


@<TRIPOS>ATOM
      1 N1         -2.7920   -0.0570   -1.3250 n3        1 N3D     -0.916800
      2 C2         -1.3660   -0.0570   -1.3250 c3        1 N3D      0.159800
      3 C3         -0.8620   -0.0570    0.1010 c3        1 N3D     -0.088400
      4 C4          0.6510   -0.0650    0.1010 c3        1 N3D      0.161800
      5 N5          1.1250   -0.0710    1.4440 n3        1 N3D     -0.826200
      6 C6          2.4870    0.3490    1.4690 c3        1 N3D      0.153100
      7 HN1        -3.0960    0.6890   -1.7530 hn        1 N3D      0.348800
      8 HN1A       -3.0960   -0.8010   -1.7560 hn        1 N3D      0.348800
      9 H2         -1.0410    0.7400   -1.7850 h1        1 N3D      0.025200
     10 H2A        -1.0410   -0.8540   -1.7850 h1        1 N3D      0.025200
     11 H3         -1.1920   -0.8510    0.5630 hc        1 N3D      0.053200
     12 H3A        -1.1830    0.7430    0.5600 hc        1 N3D      0.053200
     13 H4          0.9800    0.7310   -0.3570 h1        1 N3D      0.028200
     14 H4A         0.9720   -0.8630   -0.3610 h1        1 N3D      0.028200
     15 HN5         1.0610   -0.9140    1.7850 hn        1 N3D      0.357800
     16 H6          3.0160   -0.2260    0.8830 h1        1 N3D      0.029033
     17 H6A         2.5480    1.2730    1.1590 h1        1 N3D      0.029033
     18 H6B         2.8300    0.2890    2.3810 h1        1 N3D      0.029033
@<TRIPOS>BOND
     1    1    2 1   
     2    1    7 1   
     3    1    8 1   
     4    2    3 1   
     5    2    9 1   
     6    2   10 1   
     7    3    4 1   
     8    3   11 1   
     9    3   12 1   
    10    4    5 1   
    11    4   13 1   
    12    4   14 1   
    13    5    6 1   
    14    5   15 1   
    15    6   16 1   
    16    6   17 1   
    17    6   18 1   
@<TRIPOS>SUBSTRUCTURE
     1 N3D         1 TEMP              0 ****  ****    0 ROOT
