@<TRIPOS>MOLECULE
N3D
   20    19     1     0     0
SMALL
bcc


@<TRIPOS>ATOM
      1 N1         -0.0330   -0.0000   -0.0880 n4        1 N3D     -0.837600
      2 C2          1.4510    0.0020    0.0450 c3        1 N3D      0.103800
      3 C3          1.9300   -0.0010    1.4980 c3        1 N3D     -0.138400
      4 C4          3.4590    0.0010    1.4990 c3        1 N3D      0.100800
      5 N5          4.0480   -0.0010    2.8710 n4        1 N3D     -0.756000
      6 C6          5.5350    0.0010    2.8310 c3        1 N3D      0.076100
      7 HN1        -0.2860    0.0020   -1.0870 hn        1 N3D      0.479800
      8 HN1A       -0.4410    0.8330    0.3550 hn        1 N3D      0.479800
      9 H2          1.8430   -0.9130   -0.4920 hx        1 N3D      0.130700
     10 H2A         1.8400    0.9220   -0.4870 hx        1 N3D      0.130700
     11 H3          1.5430   -0.9120    2.0310 hc        1 N3D      0.094700
     12 H3A         1.5400    0.9060    2.0360 hc        1 N3D      0.094700
     13 H4          3.8450    0.9180    0.9630 hx        1 N3D      0.125700
     14 H4A         3.8480   -0.9130    0.9590 hx        1 N3D      0.125700
     15 HN5         3.7240    0.8290    3.3860 hn        1 N3D      0.464800
     16 H6          5.9250   -0.0010    3.8880 hx        1 N3D      0.127033
     17 H6A         5.9020   -0.9170    2.2960 hx        1 N3D      0.127033
     18 H6B         5.9000    0.9210    2.2990 hx        1 N3D      0.127033
     19 H13        -0.4380   -0.8370    0.3500 hn        1 N3D      0.479800
     20 H52         3.7260   -0.8350    3.3820 hn        1 N3D      0.464800
@<TRIPOS>BOND
     1    1    2 1   
     2    1    7 1   
     3    1    8 1   
     4    1   19 1   
     5    2    3 1   
     6    2    9 1   
     7    2   10 1   
     8    3    4 1   
     9    3   11 1   
    10    3   12 1   
    11    4    5 1   
    12    4   13 1   
    13    4   14 1   
    14    5    6 1   
    15    5   15 1   
    16    5   20 1   
    17    6   16 1   
    18    6   17 1   
    19    6   18 1   
@<TRIPOS>SUBSTRUCTURE
     1 N3D         1 TEMP              0 ****  ****    0 ROOT
