@<TRIPOS>MOLECULE
N3D
   20    19     1     0     0
SMALL
bcc


@<TRIPOS>ATOM
      1 N1         -0.0330    0.0010   -0.0870 nz        1 N3D     -0.837600
      2 C2          1.4510    0.0040    0.0460 c3        1 N3D      0.103800
      3 C3          1.9300   -0.0020    1.4980 c3        1 N3D     -0.138400
      4 C4          3.4600    0.0020    1.4990 c3        1 N3D      0.100800
      5 N5          4.0480   -0.0030    2.8710 ny        1 N3D     -0.756000
      6 C6          5.5350   -0.0000    2.8300 c3        1 N3D      0.076100
      7 HN1        -0.2870    0.0060   -1.0870 hn        1 N3D      0.479800
      8 HN1A       -0.4420    0.8320    0.3580 hn        1 N3D      0.479800
      9 H2          1.8380    0.9260   -0.4850 hx        1 N3D      0.130700
     10 H2A         1.8440   -0.9090   -0.4940 hx        1 N3D      0.130700
     11 H3          1.5440   -0.9150    2.0290 hc        1 N3D      0.094700
     12 H3A         1.5400    0.9030    2.0390 hc        1 N3D      0.094700
     13 H4          3.8450    0.9210    0.9650 hx        1 N3D      0.125700
     14 H4A         3.8490   -0.9110    0.9570 hx        1 N3D      0.125700
     15 HN5         3.7270   -0.8380    3.3800 hn        1 N3D      0.464800
     16 H6          5.9030   -0.9160    2.2930 hx        1 N3D      0.127033
     17 H6A         5.9000    0.9220    2.3010 hx        1 N3D      0.127033
     18 H6B         5.9260   -0.0040    3.8880 hx        1 N3D      0.127033
     19 H13        -0.4370   -0.8380    0.3480 hn        1 N3D      0.479800
     20 H52         3.7240    0.8260    3.3870 hn        1 N3D      0.464800
@<TRIPOS>BOND
     1    1    2 1   
     2    1    7 1   
     3    1    8 1   
     4    1   19 1   
     5    2    3 1   
     6    2    9 1   
     7    2   10 1   
     8    3    4 1   
     9    3   11 1   
    10    3   12 1   
    11    4    5 1   
    12    4   13 1   
    13    4   14 1   
    14    5    6 1   
    15    5   15 1   
    16    5   20 1   
    17    6   16 1   
    18    6   17 1   
    19    6   18 1   
@<TRIPOS>SUBSTRUCTURE
     1 N3D         1 TEMP              0 ****  ****    0 ROOT
