@<TRIPOS>MOLECULE
N3D
   18    17     1     0     0
SMALL
bcc


@<TRIPOS>ATOM
      1 N1          3.0920   -0.1630   -0.1100 n3        1 N3D     -0.916800
      2 C2          1.8170    0.5050    0.0020 c3        1 N3D      0.159800
      3 C3          0.6300   -0.4570    0.0020 c3        1 N3D     -0.088400
      4 C4         -0.6660    0.3480    0.0480 c3        1 N3D      0.161800
      5 N5         -1.8510   -0.4860    0.1220 n3        1 N3D     -0.826200
      6 C6         -3.0790    0.2430   -0.0440 c3        1 N3D      0.153100
      7 HN1         3.8380    0.4880    0.0290 hn        1 N3D      0.348800
      8 HN1A        3.1710   -0.9030    0.5580 hn        1 N3D      0.348800
      9 H2          1.7450    1.1480    0.9310 h1        1 N3D      0.025200
     10 H2A         1.7260    1.1980   -0.8840 h1        1 N3D      0.025200
     11 H3          0.6570   -1.0950   -0.9190 hc        1 N3D      0.053200
     12 H3A         0.6890   -1.1400    0.8890 hc        1 N3D      0.053200
     13 H4         -0.6630    1.0020    0.9660 h1        1 N3D      0.028200
     14 H4A        -0.6900    1.0370   -0.8490 h1        1 N3D      0.028200
     15 HN5        -1.7920   -1.2380   -0.5380 hn        1 N3D      0.357800
     16 H6         -3.9360   -0.4750    0.0400 h1        1 N3D      0.029033
     17 H6A        -3.1660    1.0050    0.7750 h1        1 N3D      0.029033
     18 H6B        -3.1590    0.7820   -1.0290 h1        1 N3D      0.029033
@<TRIPOS>BOND
     1    1    2 1   
     2    1    7 1   
     3    1    8 1   
     4    2    3 1   
     5    2    9 1   
     6    2   10 1   
     7    3    4 1   
     8    3   11 1   
     9    3   12 1   
    10    4    5 1   
    11    4   13 1   
    12    4   14 1   
    13    5    6 1   
    14    5   15 1   
    15    6   16 1   
    16    6   17 1   
    17    6   18 1   
@<TRIPOS>SUBSTRUCTURE
     1 N3D         1 TEMP              0 ****  ****    0 ROOT
