@<TRIPOS>MOLECULE
N3E
   45    44     1     0     0
SMALL
bcc


@<TRIPOS>ATOM
      1 O2          0.7590   -2.7170    2.6510 o         1 N3E     -0.609500
      2 C2          1.8530   -2.0310    2.4580 c1        1 N3E      0.856900
      3 N3          2.7370   -1.8460    3.4950 n2        1 N3E     -0.832800
      4 C4          3.9560   -1.2660    3.2610 c1        1 N3E      0.810900
      5 O4          4.7810   -1.2260    4.1420 o         1 N3E     -0.589500
      6 C5          4.2880   -0.8760    2.0020 c1        1 N3E     -0.064000
      7 C6          3.4000   -1.0630    0.9670 c1        1 N3E     -0.064000
      8 N1          2.1870   -1.6400    1.2030 n2        1 N3E     -0.610600
      9 C1'         1.3380   -1.9860    0.1040 c3        1 N3E      0.395300
     10 O4'         1.8800   -1.6250   -1.0080 os        1 N3E     -0.436600
     11 C4'         1.3410   -0.2500   -1.2700 c3        1 N3E      0.098100
     12 C5'         2.3350    0.7190   -1.0610 c3        1 N3E      0.120400
     13 O5'         3.5420    0.3280   -1.7570 oh        1 N3E     -0.609800
     14 C2'        -0.0670   -1.1800    0.2100 c3        1 N3E      0.071100
     15 O2'        -0.4910   -1.0840    1.6450 oh        1 N3E     -0.598800
     16 C3'         0.1510   -0.0510   -0.2490 c3        1 N3E      0.141500
     17 N7         -1.0840    0.4880   -0.9860 n3        1 N3E     -0.735600
     18 C13        -2.2340   -0.3890   -0.7400 c3        1 N3E      0.179300
     19 C8         -1.3040    1.8520   -0.6080 c3        1 N3E      0.179300
     20 C9         -2.5780    2.4380   -1.2010 c3        1 N3E     -0.059900
     21 C10        -3.8180    1.5810   -0.9220 c3        1 N3E     -0.194700
     22 C12        -3.5240    0.1500   -1.3390 c3        1 N3E     -0.059900
     23 C11        -5.1220    2.1550   -1.6070 c         1 N3E      0.916600
     24 O13        -5.2150    2.1810   -2.9010 o         1 N3E     -0.837300
     25 O12        -6.0720    2.6030   -0.8930 o         1 N3E     -0.837300
     26 HN3         2.5420   -2.2170    4.3570 hn        1 N3E      0.503400
     27 H5          5.1360   -0.5290    1.8300 ha        1 N3E      0.126500
     28 H6          3.6410   -0.7780    0.0540 ha        1 N3E      0.126500
     29 H1'         1.1750   -2.9300    0.0970 h2        1 N3E      0.123700
     30 H4'         1.0070   -0.1940   -2.1820 h1        1 N3E      0.086700
     31 H5'1        2.5180    0.7950   -0.1180 h1        1 N3E      0.062200
     32 H5'2        2.0090    1.6290   -1.4220 h1        1 N3E      0.062200
     33 H5'         3.8870    1.0550   -2.2070 ho        1 N3E      0.407000
     34 H2'        -0.7770   -1.6430   -0.3350 h1        1 N3E      0.073700
     35 H1         -1.2790   -0.6970    1.6920 ho        1 N3E      0.425000
     36 H3'         0.4240    0.5780    0.4910 h1        1 N3E      0.078700
     37 H131       -2.0440   -1.2810   -1.1360 h1        1 N3E      0.008700
     38 H132       -2.3540   -0.4910    0.2090 h1        1 N3E      0.008700
     39 H81        -0.5630    2.3720   -0.9030 h1        1 N3E      0.008700
     40 H82        -1.3570    1.9050    0.3740 h1        1 N3E      0.008700
     41 H91        -2.4630    2.5230   -2.1740 hc        1 N3E      0.057200
     42 H92        -2.7250    3.3510   -0.8090 hc        1 N3E      0.057200
     43 H10        -4.0550    1.6220   -0.0260 hc        1 N3E      0.033700
     44 H121       -3.4500    0.1180   -2.3480 hc        1 N3E      0.057200
     45 H122       -4.3110   -0.4540   -1.0390 hc        1 N3E      0.057200
@<TRIPOS>BOND
     1    1    2 2   
     2    2    8 2   
     3    3    4 2   
     4    3   26 1   
     5    4    5 2   
     6    6    7 3   
     7    6   27 1   
     8    7   28 1   
     9    8    9 1   
    10    9   10 1   
    11    9   14 1   
    12    9   29 1   
    13   10   11 1   
    14   11   12 1   
    15   11   16 1   
    16   11   30 1   
    17   12   13 1   
    18   12   31 1   
    19   12   32 1   
    20   13   33 1   
    21   14   15 1   
    22   14   16 1   
    23   14   34 1   
    24   15   35 1   
    25   16   17 1   
    26   16   36 1   
    27   17   18 1   
    28   17   19 1   
    29   18   22 1   
    30   18   37 1   
    31   18   38 1   
    32   19   20 1   
    33   19   39 1   
    34   19   40 1   
    35   20   21 1   
    36   20   41 1   
    37   20   42 1   
    38   21   22 1   
    39   21   23 1   
    40   21   43 1   
    41   22   44 1   
    42   22   45 1   
    43   23   24 1   
    44   23   25 1   
@<TRIPOS>SUBSTRUCTURE
     1 N3E         1 TEMP              0 ****  ****    0 ROOT
