@<TRIPOS>MOLECULE
N3E
   45    47     1     0     0
SMALL
bcc


@<TRIPOS>ATOM
      1 O2          1.5830   -1.5510    0.6000 o         1 N3E     -0.645500
      2 C2          2.3090   -0.6820    0.0720 c         1 N3E      0.813500
      3 N3          3.5690   -0.3960    0.6240 n         1 N3E     -0.588500
      4 C4          4.4310    0.5860    0.1050 c         1 N3E      0.719700
      5 O4          5.5350    0.7620    0.6500 o         1 N3E     -0.632500
      6 C5          3.9310    1.3270   -1.0540 cc        1 N3E     -0.346200
      7 C6          2.7150    1.0350   -1.5880 cd        1 N3E      0.081600
      8 N1          1.8860    0.0560   -1.0690 n         1 N3E     -0.370000
      9 C1'         0.6510   -0.3520   -1.7350 c3        1 N3E      0.297500
     10 O4'         0.9380   -1.2410   -2.8170 os        1 N3E     -0.405600
     11 C4'         0.7210   -0.6230   -4.0930 c3        1 N3E      0.130100
     12 C5'         2.0540   -0.4900   -4.8310 c3        1 N3E      0.112400
     13 O5'         2.3640   -1.7650   -5.3680 oh        1 N3E     -0.587800
     14 C2'        -0.2360    0.7780   -2.3350 c3        1 N3E      0.109100
     15 O2'         0.0700    2.0300   -1.7580 oh        1 N3E     -0.603800
     16 C3'         0.0750    0.7680   -3.8610 c3        1 N3E      0.125500
     17 N7         -1.0930    1.0120   -4.7060 n3        1 N3E     -0.713600
     18 C13        -0.7310    0.9710   -6.1230 c3        1 N3E      0.162300
     19 C8         -1.7890    2.2370   -4.3200 c3        1 N3E      0.162300
     20 C9         -2.9170    2.6520   -5.2630 c3        1 N3E     -0.055400
     21 C10        -2.4420    2.7050   -6.6970 c3        1 N3E     -0.192700
     22 C12        -1.8620    1.3590   -7.0710 c3        1 N3E     -0.055400
     23 C11        -3.5840    3.1120   -7.6620 c         1 N3E      0.919600
     24 O13        -4.5750    3.7290   -7.1790 o         1 N3E     -0.839800
     25 O12        -3.4430    2.8290   -8.8840 o         1 N3E     -0.839800
     26 HN3         3.8440   -0.9310    1.4190 hn        1 N3E      0.345500
     27 H5          4.5750    2.1200   -1.4520 ha        1 N3E      0.173000
     28 H6          2.3020    1.5880   -2.4560 h4        1 N3E      0.176000
     29 H1'         0.0610   -0.9710   -0.9900 h2        1 N3E      0.128700
     30 H4'         0.0480   -1.3410   -4.6430 h1        1 N3E      0.114700
     31 H5'1        2.8610   -0.1580   -4.1230 h1        1 N3E      0.031200
     32 H5'2        1.9490    0.2570   -5.6640 h1        1 N3E      0.031200
     33 H5'         3.2260   -1.6790   -5.7920 ho        1 N3E      0.397000
     34 H2'        -1.3070    0.5010   -2.1280 h1        1 N3E      0.084700
     35 H1         -0.5890    2.6550   -2.0900 ho        1 N3E      0.427000
     36 H3'         0.8650    1.5650   -4.0370 h1        1 N3E      0.027700
     37 H131       -0.4080   -0.0840   -6.3530 h1        1 N3E      0.010200
     38 H132        0.1530    1.6470   -6.3290 h1        1 N3E      0.010200
     39 H81        -1.0640    3.1020   -4.2290 h1        1 N3E      0.010200
     40 H82        -2.2350    2.0600   -3.2990 h1        1 N3E      0.010200
     41 H91        -3.7720    1.9320   -5.1820 hc        1 N3E      0.059200
     42 H92        -3.2970    3.6590   -4.9530 hc        1 N3E      0.059200
     43 H10        -1.6470    3.4930   -6.7980 hc        1 N3E      0.028700
     44 H121       -1.4630    1.3990   -8.1180 hc        1 N3E      0.059200
     45 H122       -2.6690    0.5830   -7.0460 hc        1 N3E      0.059200
@<TRIPOS>BOND
     1    1    2 2   
     2    2    3 1   
     3    2    8 1   
     4    3    4 1   
     5    3   26 1   
     6    4    5 2   
     7    4    6 1   
     8    6    7 2   
     9    6   27 1   
    10    7    8 1   
    11    7   28 1   
    12    8    9 1   
    13    9   10 1   
    14    9   14 1   
    15    9   29 1   
    16   10   11 1   
    17   11   12 1   
    18   11   16 1   
    19   11   30 1   
    20   12   13 1   
    21   12   31 1   
    22   12   32 1   
    23   13   33 1   
    24   14   15 1   
    25   14   16 1   
    26   14   34 1   
    27   15   35 1   
    28   16   17 1   
    29   16   36 1   
    30   17   18 1   
    31   17   19 1   
    32   18   22 1   
    33   18   37 1   
    34   18   38 1   
    35   19   20 1   
    36   19   39 1   
    37   19   40 1   
    38   20   21 1   
    39   20   41 1   
    40   20   42 1   
    41   21   22 1   
    42   21   23 1   
    43   21   43 1   
    44   22   44 1   
    45   22   45 1   
    46   23   24 1   
    47   23   25 1   
@<TRIPOS>SUBSTRUCTURE
     1 N3E         1 TEMP              0 ****  ****    0 ROOT
