@<TRIPOS>MOLECULE
N3E
   45    47     1     0     0
SMALL
bcc


@<TRIPOS>ATOM
      1 O2         -4.1940   -1.4770    1.8090 o         1 N3E     -0.645500
      2 C2         -4.1480   -0.7850    0.7680 c         1 N3E      0.808500
      3 N3         -5.3400   -0.4090    0.1290 n         1 N3E     -0.588500
      4 C4         -5.3690    0.3460   -1.0590 c         1 N3E      0.718700
      5 O4         -6.4710    0.6520   -1.5450 o         1 N3E     -0.629500
      6 C5         -4.0650    0.7030   -1.6230 cc        1 N3E     -0.340200
      7 C6         -2.9180    0.3430   -0.9890 cd        1 N3E      0.072600
      8 N1         -2.9090   -0.4050    0.1780 n         1 N3E     -0.376000
      9 C1'        -1.6870   -0.5810    0.9630 c3        1 N3E      0.254500
     10 O4'        -1.3400    0.6300    1.6350 os        1 N3E     -0.405600
     11 C4'        -0.1350    1.2090    1.1110 c3        1 N3E      0.126100
     12 C5'        -0.4480    2.5910    0.5360 c3        1 N3E      0.113400
     13 O5'        -0.5590    3.4850    1.6290 oh        1 N3E     -0.588800
     14 C2'        -0.4240   -1.0210    0.1590 c3        1 N3E      0.110100
     15 O2'        -0.6980   -1.4890   -1.1430 oh        1 N3E     -0.584800
     16 C3'         0.4340    0.2700    0.0150 c3        1 N3E      0.163500
     17 N7          1.8670    0.0150    0.1410 n3        1 N3E     -0.713600
     18 C13         2.6380    1.2580    0.1010 c3        1 N3E      0.163800
     19 C8          2.3200   -0.9600   -0.8530 c3        1 N3E      0.163800
     20 C9          3.8280   -1.1970   -0.8470 c3        1 N3E     -0.055400
     21 C10         4.5860    0.1050   -0.9770 c3        1 N3E     -0.190700
     22 C12         4.1500    1.0460    0.1250 c3        1 N3E     -0.055400
     23 C11         6.1190   -0.1160   -0.9420 c         1 N3E      0.918600
     24 O13         6.5590   -1.2780   -1.1610 o         1 N3E     -0.841800
     25 O12         6.8470    0.8940   -0.7210 o         1 N3E     -0.841800
     26 HN3        -6.1930   -0.6820    0.5650 hn        1 N3E      0.346500
     27 H5         -4.0680    1.2600   -2.5660 ha        1 N3E      0.175000
     28 H6         -1.9140    0.5940   -1.3880 h4        1 N3E      0.181000
     29 H1'        -1.9260   -1.3200    1.7880 h2        1 N3E      0.122700
     30 H4'         0.5430    1.3100    2.0050 h1        1 N3E      0.112700
     31 H5'1       -1.4090    2.5660   -0.0430 h1        1 N3E      0.032200
     32 H5'2        0.3930    2.9130   -0.1380 h1        1 N3E      0.032200
     33 H5'        -0.7380    4.3550    1.2530 ho        1 N3E      0.397000
     34 H2'         0.1010   -1.8060    0.7690 h1        1 N3E      0.086700
     35 H1         -1.0300   -2.3910   -1.0560 ho        1 N3E      0.411000
     36 H3'         0.1940    0.7140   -1.0020 h1        1 N3E      0.035700
     37 H131        2.3770    1.8620   -0.8200 h1        1 N3E      0.013950
     38 H132        2.3430    1.8700    1.0000 h1        1 N3E      0.013950
     39 H81         1.7960   -1.9330   -0.6320 h1        1 N3E      0.013950
     40 H82         2.0070   -0.6450   -1.8930 h1        1 N3E      0.013950
     41 H91         4.0910   -1.8750   -1.6990 hc        1 N3E      0.056950
     42 H92         4.1380   -1.7140    0.0980 hc        1 N3E      0.056950
     43 H10         4.3550    0.5710   -1.9730 hc        1 N3E      0.028700
     44 H121        4.6590    2.0360   -0.0030 hc        1 N3E      0.056950
     45 H122        4.4630    0.6300    1.1170 hc        1 N3E      0.056950
@<TRIPOS>BOND
     1    1    2 2   
     2    2    3 1   
     3    2    8 1   
     4    3    4 1   
     5    3   26 1   
     6    4    5 2   
     7    4    6 1   
     8    6    7 2   
     9    6   27 1   
    10    7    8 1   
    11    7   28 1   
    12    8    9 1   
    13    9   10 1   
    14    9   14 1   
    15    9   29 1   
    16   10   11 1   
    17   11   12 1   
    18   11   16 1   
    19   11   30 1   
    20   12   13 1   
    21   12   31 1   
    22   12   32 1   
    23   13   33 1   
    24   14   15 1   
    25   14   16 1   
    26   14   34 1   
    27   15   35 1   
    28   16   17 1   
    29   16   36 1   
    30   17   18 1   
    31   17   19 1   
    32   18   22 1   
    33   18   37 1   
    34   18   38 1   
    35   19   20 1   
    36   19   39 1   
    37   19   40 1   
    38   20   21 1   
    39   20   41 1   
    40   20   42 1   
    41   21   22 1   
    42   21   23 1   
    43   21   43 1   
    44   22   44 1   
    45   22   45 1   
    46   23   24 1   
    47   23   25 1   
@<TRIPOS>SUBSTRUCTURE
     1 N3E         1 TEMP              0 ****  ****    0 ROOT
