@<TRIPOS>MOLECULE
N3E
   45    47     1     0     0
SMALL
bcc


@<TRIPOS>ATOM
      1 O2          1.6180   -1.4570    0.6440 o         1 N3E     -0.645500
      2 C2          2.3520   -0.6170    0.0790 c         1 N3E      0.813500
      3 N3          3.6270   -0.3430    0.6000 ns        1 N3E     -0.588500
      4 C4          4.4990    0.6080    0.0380 c         1 N3E      0.719700
      5 O4          5.6160    0.7750    0.5580 o         1 N3E     -0.632500
      6 C5          3.9920    1.3270   -1.1320 cc        1 N3E     -0.346200
      7 C6          2.7610    1.0450   -1.6350 cd        1 N3E      0.081600
      8 N1          1.9220    0.0980   -1.0740 n         1 N3E     -0.370000
      9 C1'         0.6670   -0.3040   -1.7050 c3        1 N3E      0.297500
     10 O4'         0.9160   -1.2270   -2.7680 os        1 N3E     -0.405600
     11 C4'         0.6870   -0.6400   -4.0570 c3        1 N3E      0.130100
     12 C5'         2.0090   -0.5550   -4.8210 c3        1 N3E      0.112400
     13 O5'         2.2830   -1.8490   -5.3290 oh        1 N3E     -0.587800
     14 C2'        -0.2080    0.8280   -2.3210 c3        1 N3E      0.109100
     15 O2'         0.1340    2.0880   -1.7840 oh        1 N3E     -0.603800
     16 C3'         0.0740    0.7700   -3.8510 c3        1 N3E      0.125500
     17 N7         -1.1050    1.0140   -4.6810 n3        1 N3E     -0.713600
     18 C13        -0.7700    0.9260   -6.1030 c3        1 N3E      0.162300
     19 C8         -1.7690    2.2640   -4.3160 c3        1 N3E      0.162300
     20 C9         -2.9050    2.6750   -5.2500 c3        1 N3E     -0.055400
     21 C10        -2.4570    2.6790   -6.6930 c3        1 N3E     -0.192700
     22 C12        -1.9110    1.3120   -7.0400 c3        1 N3E     -0.055400
     23 C11        -3.6090    3.0830   -7.6480 c         1 N3E      0.919600
     24 O13        -4.5760    3.7360   -7.1650 o         1 N3E     -0.839800
     25 O12        -3.4980    2.7610   -8.8640 o         1 N3E     -0.839800
     26 HN3         3.9070   -0.8610    1.4040 hn        1 N3E      0.345500
     27 H5          4.6440    2.0950   -1.5630 ha        1 N3E      0.173000
     28 H6          2.3420    1.5830   -2.5100 h4        1 N3E      0.176000
     29 H1'         0.0790   -0.8900   -0.9330 h2        1 N3E      0.128700
     30 H4'        -0.0100   -1.3590   -4.5740 h1        1 N3E      0.114700
     31 H5'1        2.8350   -0.2200   -4.1380 h1        1 N3E      0.031200
     32 H5'2        1.9030    0.1720   -5.6730 h1        1 N3E      0.031200
     33 H5'         3.1380   -1.7930   -5.7710 ho        1 N3E      0.397000
     34 H2'        -1.2800    0.5780   -2.0860 h1        1 N3E      0.084700
     35 H1         -0.5190    2.7170   -2.1210 ho        1 N3E      0.427000
     36 H3'         0.8760    1.5460   -4.0640 h1        1 N3E      0.027700
     37 H131        0.1220    1.5790   -6.3440 h1        1 N3E      0.010200
     38 H132       -0.4730   -0.1410   -6.3090 h1        1 N3E      0.010200
     39 H81        -2.1990    2.1230   -3.2830 h1        1 N3E      0.010200
     40 H82        -1.0250    3.1150   -4.2630 h1        1 N3E      0.010200
     41 H91        -3.7730    1.9750   -5.1340 hc        1 N3E      0.059200
     42 H92        -3.2600    3.6980   -4.9610 hc        1 N3E      0.059200
     43 H10        -1.6480    3.4470   -6.8310 hc        1 N3E      0.028700
     44 H121       -2.7330    0.5530   -6.9800 hc        1 N3E      0.059200
     45 H122       -1.5320    1.3150   -8.0950 hc        1 N3E      0.059200
@<TRIPOS>BOND
     1    1    2 2   
     2    2    3 1   
     3    2    8 1   
     4    3    4 1   
     5    3   26 1   
     6    4    5 2   
     7    4    6 1   
     8    6    7 2   
     9    6   27 1   
    10    7    8 1   
    11    7   28 1   
    12    8    9 1   
    13    9   10 1   
    14    9   14 1   
    15    9   29 1   
    16   10   11 1   
    17   11   12 1   
    18   11   16 1   
    19   11   30 1   
    20   12   13 1   
    21   12   31 1   
    22   12   32 1   
    23   13   33 1   
    24   14   15 1   
    25   14   16 1   
    26   14   34 1   
    27   15   35 1   
    28   16   17 1   
    29   16   36 1   
    30   17   18 1   
    31   17   19 1   
    32   18   22 1   
    33   18   37 1   
    34   18   38 1   
    35   19   20 1   
    36   19   39 1   
    37   19   40 1   
    38   20   21 1   
    39   20   41 1   
    40   20   42 1   
    41   21   22 1   
    42   21   23 1   
    43   21   43 1   
    44   22   44 1   
    45   22   45 1   
    46   23   24 1   
    47   23   25 1   
@<TRIPOS>SUBSTRUCTURE
     1 N3E         1 TEMP              0 ****  ****    0 ROOT
