@<TRIPOS>MOLECULE
N3F
   38    40     1     0     0
SMALL
bcc


@<TRIPOS>ATOM
      1 NAA         5.0930    1.2200   -1.6700 nh        1 N3F     -0.812200
      2 OAB        -2.9820   -2.3060   -0.8070 o         1 N3F     -0.537100
      3 CAC        -6.0880    1.2690    0.8220 ca        1 N3F     -0.109000
      4 CAD        -4.8680    1.3670    1.4910 ca        1 N3F     -0.142000
      5 CAE        -6.2250    0.3900   -0.2530 ca        1 N3F     -0.142000
      6 CAF         5.8220   -0.7970    1.3600 ca        1 N3F     -0.100000
      7 CAG         4.5660   -0.8710    1.9600 ca        1 N3F     -0.157000
      8 CAH         5.9820   -0.1370    0.1500 ca        1 N3F     -0.184000
      9 CAI        -3.7810    0.5960    1.0820 ca        1 N3F     -0.088500
     10 CAJ        -5.1440   -0.3910   -0.6590 ca        1 N3F     -0.088500
     11 CAK         0.9710   -0.9120   -0.2960 ca        1 N3F     -0.205000
     12 CAL         0.0770    1.3370   -0.5370 ca        1 N3F     -0.205000
     13 CAM         3.4700   -0.2760    1.3480 ca        1 N3F     -0.122000
     14 CAN        -0.3220   -1.4140   -0.3070 ca        1 N3F     -0.047500
     15 CAO        -1.2100    0.8170   -0.5390 ca        1 N3F     -0.047500
     16 NAP         2.4900    1.0090   -0.5210 nh        1 N3F     -0.625000
     17 CAQ        -2.7850   -1.1390   -0.4360 c         1 N3F      0.593300
     18 CAR         4.8870    0.4760   -0.5010 ca        1 N3F      0.135600
     19 CAS         1.2000    0.4790   -0.4170 ca        1 N3F      0.183600
     20 CAT        -3.9130   -0.2840    0.0010 ca        1 N3F     -0.163600
     21 CAU        -1.4290   -0.5590   -0.4160 ca        1 N3F     -0.214600
     22 CAV         3.5970    0.3980    0.1200 ca        1 N3F      0.055600
     23 HNAA        5.9550    1.0120   -2.1270 hn        1 N3F      0.391800
     24 HNAB        4.3210    1.2230   -2.3010 hn        1 N3F      0.391800
     25 HAC        -6.9430    1.8820    1.1440 ha        1 N3F      0.133000
     26 HAD        -4.7620    2.0520    2.3450 ha        1 N3F      0.135500
     27 HAE        -7.1880    0.3080   -0.7780 ha        1 N3F      0.135500
     28 HAF         6.6920   -1.2650    1.8440 ha        1 N3F      0.134000
     29 HAG         4.4400   -1.3950    2.9180 ha        1 N3F      0.136000
     30 HAH         6.9820   -0.0890   -0.3080 ha        1 N3F      0.133000
     31 HAI        -2.8190    0.6710    1.6120 ha        1 N3F      0.145500
     32 HAJ        -5.2490   -1.1030   -1.4920 ha        1 N3F      0.145500
     33 HAK         1.8230   -1.6040   -0.2070 ha        1 N3F      0.142000
     34 HAL         0.2170    2.4230   -0.6400 ha        1 N3F      0.142000
     35 HAM         2.4810   -0.3400    1.8310 ha        1 N3F      0.141000
     36 HAN        -0.4930   -2.5020   -0.2340 ha        1 N3F      0.147500
     37 HAO        -2.0680    1.5010   -0.6430 ha        1 N3F      0.147500
     38 HNAP        2.5360    2.0090   -0.5170 hn        1 N3F      0.420800
@<TRIPOS>BOND
     1    1   18 1   
     2    1   23 1   
     3    1   24 1   
     4    2   17 2   
     5    3    4 ar  
     6    3    5 ar  
     7    3   25 1   
     8    4    9 ar  
     9    4   26 1   
    10    5   10 ar  
    11    5   27 1   
    12    6    7 ar  
    13    6    8 ar  
    14    6   28 1   
    15    7   13 ar  
    16    7   29 1   
    17    8   18 ar  
    18    8   30 1   
    19    9   20 ar  
    20    9   31 1   
    21   10   20 ar  
    22   10   32 1   
    23   11   14 ar  
    24   11   19 ar  
    25   11   33 1   
    26   12   15 ar  
    27   12   19 ar  
    28   12   34 1   
    29   13   22 ar  
    30   13   35 1   
    31   14   21 ar  
    32   14   36 1   
    33   15   21 ar  
    34   15   37 1   
    35   16   19 1   
    36   16   22 1   
    37   16   38 1   
    38   17   20 1   
    39   17   21 1   
    40   18   22 ar  
@<TRIPOS>SUBSTRUCTURE
     1 N3F         1 TEMP              0 ****  ****    0 ROOT
