@<TRIPOS>MOLECULE
N3F
   38    40     1     0     0
SMALL
bcc


@<TRIPOS>ATOM
      1 NAA        -0.1800   -0.5190    0.1540 nv        1 N3F     -0.812200
      2 OAB         2.2140   -1.6990    8.5950 o         1 N3F     -0.537100
      3 CAC         0.9450    2.4030   11.1740 ca        1 N3F     -0.109000
      4 CAD         1.4720    2.7710    9.9350 ca        1 N3F     -0.142000
      5 CAE         0.6840    1.0600   11.4480 ca        1 N3F     -0.142000
      6 CAF         3.4760   -0.1580   -0.3780 ca        1 N3F     -0.100000
      7 CAG         3.8970    0.3170    0.8630 ca        1 N3F     -0.157000
      8 CAH         2.1390   -0.4630   -0.5930 ca        1 N3F     -0.184000
      9 CAI         1.7290    1.8020    8.9680 ca        1 N3F     -0.088500
     10 CAJ         0.9500    0.0860   10.4880 ca        1 N3F     -0.088500
     11 CAK         1.9670   -0.7670    4.4850 ca        1 N3F     -0.205000
     12 CAL         0.2740    0.8730    5.0850 ca        1 N3F     -0.205000
     13 CAM         2.9740    0.4930    1.8870 ca        1 N3F     -0.122000
     14 CAN         2.1960   -1.0050    5.8320 ca        1 N3F     -0.047500
     15 CAO         0.5220    0.6260    6.4280 ca        1 N3F     -0.047500
     16 NAP         0.6570    0.3620    2.7350 nu        1 N3F     -0.625000
     17 CAQ         1.7570   -0.6020    8.2410 c         1 N3F      0.593300
     18 CAR         1.1750   -0.2980    0.4280 ca        1 N3F      0.135600
     19 CAS         0.9930    0.1770    4.0800 ca        1 N3F      0.183600
     20 CAT         1.4640    0.4540    9.2380 ca        1 N3F     -0.163600
     21 CAU         1.4890   -0.3060    6.8210 ca        1 N3F     -0.214600
     22 CAV         1.6130    0.1910    1.7020 ca        1 N3F      0.055600
     23 HNAA       -0.3370   -1.0690   -0.6630 hn        1 N3F      0.391800
     24 HNAB       -0.7150   -0.8370    0.9340 hn        1 N3F      0.391800
     25 HAC         0.7390    3.1710   11.9340 ha        1 N3F      0.133000
     26 HAD         1.6870    3.8290    9.7220 ha        1 N3F      0.135500
     27 HAE         0.2740    0.7680   12.4260 ha        1 N3F      0.135500
     28 HAF         4.2040   -0.2950   -1.1910 ha        1 N3F      0.134000
     29 HAG         4.9560    0.5570    1.0330 ha        1 N3F      0.136000
     30 HAH         1.8260   -0.8370   -1.5810 ha        1 N3F      0.133000
     31 HAI         2.1480    2.0920    7.9920 ha        1 N3F      0.145500
     32 HAJ         0.7670   -0.9790   10.7040 ha        1 N3F      0.145500
     33 HAK         2.5370   -1.3270    3.7280 ha        1 N3F      0.142000
     34 HAL        -0.4960    1.6090    4.8080 ha        1 N3F      0.142000
     35 HAM         3.3180    0.8710    2.8640 ha        1 N3F      0.141000
     36 HAN         2.9420   -1.7580    6.1400 ha        1 N3F      0.147500
     37 HAO        -0.0540    1.1720    7.1930 ha        1 N3F      0.147500
     38 HNAP        0.0190    1.1130    2.5600 hn        1 N3F      0.420800
@<TRIPOS>BOND
     1    1   18 1   
     2    1   23 1   
     3    1   24 1   
     4    2   17 2   
     5    3    4 ar  
     6    3    5 ar  
     7    3   25 1   
     8    4    9 ar  
     9    4   26 1   
    10    5   10 ar  
    11    5   27 1   
    12    6    7 ar  
    13    6    8 ar  
    14    6   28 1   
    15    7   13 ar  
    16    7   29 1   
    17    8   18 ar  
    18    8   30 1   
    19    9   20 ar  
    20    9   31 1   
    21   10   20 ar  
    22   10   32 1   
    23   11   14 ar  
    24   11   19 ar  
    25   11   33 1   
    26   12   15 ar  
    27   12   19 ar  
    28   12   34 1   
    29   13   22 ar  
    30   13   35 1   
    31   14   21 ar  
    32   14   36 1   
    33   15   21 ar  
    34   15   37 1   
    35   16   19 1   
    36   16   22 1   
    37   16   38 1   
    38   17   20 1   
    39   17   21 1   
    40   18   22 ar  
@<TRIPOS>SUBSTRUCTURE
     1 N3F         1 TEMP              0 ****  ****    0 ROOT
