@<TRIPOS>MOLECULE
N3F
   38    40     1     0     0
SMALL
bcc


@<TRIPOS>ATOM
      1 NAA        -0.1770   -0.5240    0.1540 nh        1 N3F     -0.812200
      2 OAB         2.2130   -1.6960    8.5970 o         1 N3F     -0.537100
      3 CAC         0.9410    2.4070   11.1720 ca        1 N3F     -0.109000
      4 CAD         1.4680    2.7750    9.9330 ca        1 N3F     -0.142000
      5 CAE         0.6810    1.0640   11.4480 ca        1 N3F     -0.142000
      6 CAF         3.4790   -0.1590   -0.3760 ca        1 N3F     -0.100000
      7 CAG         3.8990    0.3170    0.8640 ca        1 N3F     -0.157000
      8 CAH         2.1430   -0.4660   -0.5920 ca        1 N3F     -0.184000
      9 CAI         1.7260    1.8040    8.9660 ca        1 N3F     -0.088500
     10 CAJ         0.9480    0.0900   10.4880 ca        1 N3F     -0.088500
     11 CAK         1.9680   -0.7670    4.4860 ca        1 N3F     -0.205000
     12 CAL         0.2730    0.8720    5.0840 ca        1 N3F     -0.205000
     13 CAM         2.9760    0.4930    1.8870 ca        1 N3F     -0.122000
     14 CAN         2.1970   -1.0040    5.8330 ca        1 N3F     -0.047500
     15 CAO         0.5210    0.6260    6.4280 ca        1 N3F     -0.047500
     16 NAP         0.6580    0.3600    2.7350 nh        1 N3F     -0.625000
     17 CAQ         1.7560   -0.6000    8.2410 c         1 N3F      0.593300
     18 CAR         1.1780   -0.3010    0.4280 ca        1 N3F      0.135600
     19 CAS         0.9930    0.1760    4.0800 ca        1 N3F      0.183600
     20 CAT         1.4620    0.4570    9.2380 ca        1 N3F     -0.163600
     21 CAU         1.4880   -0.3050    6.8210 ca        1 N3F     -0.214600
     22 CAV         1.6150    0.1900    1.7020 ca        1 N3F      0.055600
     23 HNAA       -0.7120   -0.8420    0.9340 hn        1 N3F      0.391800
     24 HNAB       -0.3320   -1.0750   -0.6620 hn        1 N3F      0.391800
     25 HAC         0.7340    3.1750   11.9320 ha        1 N3F      0.133000
     26 HAD         1.6820    3.8320    9.7190 ha        1 N3F      0.135500
     27 HAE         0.2710    0.7720   12.4260 ha        1 N3F      0.135500
     28 HAF         4.2080   -0.2970   -1.1890 ha        1 N3F      0.134000
     29 HAG         4.9580    0.5590    1.0350 ha        1 N3F      0.136000
     30 HAH         1.8310   -0.8410   -1.5790 ha        1 N3F      0.133000
     31 HAI         2.1440    2.0950    7.9900 ha        1 N3F      0.145500
     32 HAJ         0.7670   -0.9750   10.7040 ha        1 N3F      0.145500
     33 HAK         2.5390   -1.3270    3.7290 ha        1 N3F      0.142000
     34 HAL        -0.4970    1.6070    4.8060 ha        1 N3F      0.142000
     35 HAM         3.3180    0.8720    2.8650 ha        1 N3F      0.141000
     36 HAN         2.9430   -1.7560    6.1420 ha        1 N3F      0.147500
     37 HAO        -0.0570    1.1710    7.1920 ha        1 N3F      0.147500
     38 HNAP        0.0200    1.1100    2.5590 hn        1 N3F      0.420800
@<TRIPOS>BOND
     1    1   18 1   
     2    1   23 1   
     3    1   24 1   
     4    2   17 2   
     5    3    4 ar  
     6    3    5 ar  
     7    3   25 1   
     8    4    9 ar  
     9    4   26 1   
    10    5   10 ar  
    11    5   27 1   
    12    6    7 ar  
    13    6    8 ar  
    14    6   28 1   
    15    7   13 ar  
    16    7   29 1   
    17    8   18 ar  
    18    8   30 1   
    19    9   20 ar  
    20    9   31 1   
    21   10   20 ar  
    22   10   32 1   
    23   11   14 ar  
    24   11   19 ar  
    25   11   33 1   
    26   12   15 ar  
    27   12   19 ar  
    28   12   34 1   
    29   13   22 ar  
    30   13   35 1   
    31   14   21 ar  
    32   14   36 1   
    33   15   21 ar  
    34   15   37 1   
    35   16   19 1   
    36   16   22 1   
    37   16   38 1   
    38   17   20 1   
    39   17   21 1   
    40   18   22 ar  
@<TRIPOS>SUBSTRUCTURE
     1 N3F         1 TEMP              0 ****  ****    0 ROOT
