@<TRIPOS>MOLECULE
N3F
   40    42     1     0     0
SMALL
bcc


@<TRIPOS>ATOM
      1 NAA         0.3480   -0.7550   -0.3200 n4        1 N3F     -0.716000
      2 OAB         0.8840   -1.8380    8.8730 o         1 N3F     -0.475100
      3 CAC         1.9870    2.7170   10.7100 ca        1 N3F     -0.071000
      4 CAD         2.3070    2.7070    9.3480 ca        1 N3F     -0.131500
      5 CAE         1.3710    1.6090   11.2890 ca        1 N3F     -0.131500
      6 CAF         3.5280    1.1420    0.2770 ca        1 N3F     -0.054000
      7 CAG         3.5520    1.2540    1.6610 ca        1 N3F     -0.048000
      8 CAH         2.4690    0.4790   -0.3540 ca        1 N3F     -0.065000
      9 CAI         2.0050    1.5960    8.5680 ca        1 N3F     -0.079000
     10 CAJ         1.0730    0.4880   10.5130 ca        1 N3F     -0.079000
     11 CAK         1.3670   -1.5690    4.6910 ca        1 N3F     -0.108500
     12 CAL         0.0880    0.5110    4.9060 ca        1 N3F     -0.108500
     13 CAM         2.5190    0.7050    2.4320 ca        1 N3F     -0.049000
     14 CAN         1.5150   -1.6030    6.0740 ca        1 N3F     -0.067000
     15 CAO         0.2550    0.4570    6.2880 ca        1 N3F     -0.067000
     16 NAP         0.3760   -0.5240    2.6610 n4        1 N3F     -0.504800
     17 CAQ         1.0700   -0.7260    8.3690 c         1 N3F      0.578300
     18 CAR         1.4260   -0.0760    0.4020 ca        1 N3F     -0.062400
     19 CAS         0.6370   -0.5130    4.1130 ca        1 N3F     -0.089400
     20 CAT         1.3800    0.4800    9.1440 ca        1 N3F     -0.197600
     21 CAU         0.9590   -0.5980    6.8780 ca        1 N3F     -0.072600
     22 CAV         1.4490    0.0350    1.8260 ca        1 N3F     -0.027400
     23 HNAA       -0.5590   -0.3130   -0.1260 hn        1 N3F      0.477467
     24 HNAB        0.3140   -1.7520   -0.0730 hn        1 N3F      0.477467
     25 HAC         2.2280    3.5990   11.3240 ha        1 N3F      0.159000
     26 HAD         2.8060    3.5790    8.8980 ha        1 N3F      0.155500
     27 HAE         1.1250    1.6110   12.3630 ha        1 N3F      0.155500
     28 HAF         4.3430    1.5730   -0.3390 ha        1 N3F      0.212000
     29 HAG         4.3870    1.7780    2.1680 ha        1 N3F      0.210000
     30 HAH         2.4800    0.4080   -1.4590 ha        1 N3F      0.190000
     31 HAI         2.2760    1.5890    7.5030 ha        1 N3F      0.139000
     32 HAJ         0.6020   -0.3990   10.9700 ha        1 N3F      0.139000
     33 HAK         1.8060   -2.3750    4.0810 ha        1 N3F      0.160500
     34 HAL        -0.4820    1.3470    4.4660 ha        1 N3F      0.160500
     35 HAM         2.5680    0.8100    3.5360 ha        1 N3F      0.205000
     36 HAN         2.0560   -2.4430    6.5520 ha        1 N3F      0.199000
     37 HAO        -0.1810    1.2510    6.9250 ha        1 N3F      0.199000
     38 HNAP        0.2180   -1.5060    2.4000 hn        1 N3F      0.455800
     39 HAA3        0.5220   -0.6860   -1.3380 hn        1 N3F      0.477467
     40 HAP2       -0.4840    0.0210    2.5000 hn        1 N3F      0.455800
@<TRIPOS>BOND
     1    1   18 1   
     2    1   23 1   
     3    1   24 1   
     4    1   39 1   
     5    2   17 2   
     6    3    4 ar  
     7    3    5 ar  
     8    3   25 1   
     9    4    9 ar  
    10    4   26 1   
    11    5   10 ar  
    12    5   27 1   
    13    6    7 ar  
    14    6    8 ar  
    15    6   28 1   
    16    7   13 ar  
    17    7   29 1   
    18    8   18 ar  
    19    8   30 1   
    20    9   20 ar  
    21    9   31 1   
    22   10   20 ar  
    23   10   32 1   
    24   11   14 ar  
    25   11   19 ar  
    26   11   33 1   
    27   12   15 ar  
    28   12   19 ar  
    29   12   34 1   
    30   13   22 ar  
    31   13   35 1   
    32   14   21 ar  
    33   14   36 1   
    34   15   21 ar  
    35   15   37 1   
    36   16   19 1   
    37   16   22 1   
    38   16   38 1   
    39   16   40 1   
    40   17   20 1   
    41   17   21 1   
    42   18   22 ar  
@<TRIPOS>SUBSTRUCTURE
     1 N3F         1 TEMP              0 ****  ****    0 ROOT
