@<TRIPOS>MOLECULE
N3H
   58    57     1     0     0
SMALL
bcc


@<TRIPOS>ATOM
      1 C4         -0.1480   -0.5920   -0.3420 c2        1 N3H      0.027000
      2 C5          8.3660    4.7190   -1.2040 c1        1 N3H     -0.195000
      3 C6         -0.1770   -0.8180    1.9840 c1        1 N3H     -0.472000
      4 C7          6.9070    2.9580   -0.2890 c3        1 N3H      0.126000
      5 C8          9.3420    5.3730   -0.9570 c1        1 N3H      0.010000
      6 C10         1.1980   -0.5000   -0.1160 c2        1 N3H     -0.544000
      7 C13         3.3460    0.5880   -0.8970 c2        1 N3H      0.197000
      8 C15         4.2260   -0.0850   -3.0920 c2        1 N3H      0.352000
      9 C17         0.6640   -5.4650   -5.2680 c2        1 N3H     -0.544000
     10 C21         1.0750   -4.2860   -4.8960 c1        1 N3H      0.157000
     11 O31        11.8510    8.0490   -0.3100 o         1 N3H     -0.916000
     12 S35        10.5130    7.7210   -0.5900 s6        1 N3H      2.825000
     13 O30         9.5400    8.1830    0.3030 o         1 N3H     -0.916000
     14 C18        10.1220    8.2550   -2.1450 c3        1 N3H     -0.960000
     15 N26        10.4560    6.0760   -0.7400 n7        1 N3H     -0.727000
     16 C3          6.5030    4.2590    1.9780 c1        1 N3H     -0.163000
     17 C9          7.1670    3.9890   -1.4260 c3        1 N3H     -0.633000
     18 S34         7.2600    3.2480   -3.0240 s6        1 N3H      2.798000
     19 O28         7.0460    4.2360   -3.9930 o         1 N3H     -0.901000
     20 O29         8.4290    2.4950   -3.1290 o         1 N3H     -0.901000
     21 N24         5.9330    2.2880   -2.9340 n7        1 N3H     -0.843000
     22 C14         5.4170    1.7280   -1.7520 c2        1 N3H      0.234000
     23 N22         5.8400    2.0170   -0.5500 n2        1 N3H     -0.300000
     24 C2          6.6710    3.6720    0.9500 c1        1 N3H     -0.176000
     25 C12         4.2920    0.7570   -1.8790 c2        1 N3H     -0.266000
     26 O32         3.2950    1.2020    0.3060 oh        1 N3H     -0.253000
     27 O27         5.1380   -0.1890   -3.9170 o         1 N3H     -0.258000
     28 N25         2.9980   -0.8570   -3.2810 n         1 N3H     -0.162000
     29 C19         4.6520   -3.6870   -4.8700 c3        1 N3H     -0.276500
     30 C16         2.7240   -3.0500   -7.5440 c3        1 N3H     -0.276500
     31 N23         2.0980   -0.9940   -2.2760 n2        1 N3H     -0.049000
     32 C11         2.2100   -0.3420   -1.1390 c2        1 N3H      0.035000
     33 S33         1.4740   -0.7340    1.5830 s4        1 N3H      0.977000
     34 C1         -0.9400   -0.7720    0.8820 c2        1 N3H     -0.247000
     35 H4         -0.6270   -0.5680   -1.3270 ha        1 N3H      0.166000
     36 H5          6.3100    4.7310   -1.4100 h1        1 N3H      0.180000
     37 H6          1.7790    0.4900    1.9660 hs        1 N3H     -0.016000
     38 H17         3.5500   -3.8260   -4.7660 hc        1 N3H      0.070000
     39 H17A       -0.0040   -6.0960   -4.6590 ha        1 N3H      0.193500
     40 H17B        0.9490   -5.9400   -6.2210 ha        1 N3H      0.193500
     41 H20         4.8970   -2.6030   -4.7740 hc        1 N3H      0.070000
     42 H20A        1.9020   -2.0500   -4.6310 ha        1 N3H      0.104000
     43 H21         3.2100   -2.3980   -6.7810 hc        1 N3H      0.070000
     44 H18        10.9180    8.0430   -2.9010 h1        1 N3H      0.166000
     45 H18A        9.9760    9.3670   -2.1540 h1        1 N3H      0.166000
     46 H18B        9.1750    7.8250   -2.5570 h1        1 N3H      0.166000
     47 HN26       11.2830    5.5190   -0.6520 hn        1 N3H      0.271000
     48 H3          6.3690    4.7900    2.8870 ha        1 N3H      0.231000
     49 HN24        5.4850    1.9780   -3.7720 hn        1 N3H      0.277000
     50 H2          7.8610    2.3470   -0.1590 h1        1 N3H      0.144000
     51 HO32        4.0670    1.7920    0.4300 ho        1 N3H      0.287000
     52 H19         5.1780   -4.2650   -4.0800 hc        1 N3H      0.070000
     53 H19A        4.9690   -4.0470   -5.8730 hc        1 N3H      0.070000
     54 H16         1.9480   -3.6750   -7.0440 hc        1 N3H      0.070000
     55 H16A        2.2450   -2.4220   -8.3260 hc        1 N3H      0.070000
     56 H16B        3.4860   -3.7110   -8.0100 hc        1 N3H      0.070000
     57 H1         -2.0270   -0.8720    0.8370 ha        1 N3H      0.173000
     58 C20         2.8100   -1.4200   -4.4890 c1        1 N3H     -0.024000
@<TRIPOS>BOND
     1    1    6 1   
     2    1   34 1   
     3    1   35 1   
     4    2    5 1   
     5    2   17 1   
     6    3   33 1   
     7    3   34 1   
     8    4   17 1   
     9    4   23 1   
    10    4   24 1   
    11    4   50 1   
    12    5   15 1   
    13    6   32 1   
    14    6   33 1   
    15    7   25 1   
    16    7   26 1   
    17    7   32 1   
    18    8   25 1   
    19    8   27 1   
    20    8   28 1   
    21    9   10 1   
    22    9   39 1   
    23    9   40 1   
    24   11   12 1   
    25   12   13 1   
    26   12   14 1   
    27   12   15 1   
    28   14   44 1   
    29   14   45 1   
    30   14   46 1   
    31   15   47 1   
    32   16   24 1   
    33   16   48 1   
    34   17   18 1   
    35   17   36 1   
    36   18   19 1   
    37   18   20 1   
    38   18   21 1   
    39   21   22 1   
    40   21   49 1   
    41   22   23 1   
    42   22   25 1   
    43   26   51 1   
    44   28   31 1   
    45   28   58 1   
    46   29   38 1   
    47   29   41 1   
    48   29   52 1   
    49   29   53 1   
    50   30   43 1   
    51   30   54 1   
    52   30   55 1   
    53   30   56 1   
    54   31   32 1   
    55   33   37 1   
    56   34   57 1   
    57   42   58 1   
@<TRIPOS>SUBSTRUCTURE
     1 N3H         1 TEMP              0 ****  ****    0 ROOT
