@<TRIPOS>MOLECULE
N3H
   59    60     1     0     0
SMALL
bcc


@<TRIPOS>ATOM
      1 C4          0.0940   -0.6640    0.2620 c2        1 N3H      0.037000
      2 C5          8.2610    4.7650   -0.9440 c1        1 N3H     -0.577000
      3 C6          0.2620   -1.6130    2.3890 c1        1 N3H     -0.440000
      4 C7          6.1170    3.6430   -0.1560 c2        1 N3H      0.130000
      5 C8          8.7780    5.6780   -0.1520 c2        1 N3H     -0.020000
      6 C10         1.4520   -0.8230    0.3020 c2        1 N3H     -0.560000
      7 C13         3.4830    0.4310   -0.4980 c2        1 N3H      0.290000
      8 C15         4.0460    0.2220   -2.8870 c2        1 N3H      0.333000
      9 C17         1.9740   -5.2020   -6.9180 c3        1 N3H     -0.196000
     10 C21         1.7750   -3.9600   -7.6910 c2        1 N3H     -0.161000
     11 O31        11.8860    7.4390   -1.4290 o         1 N3H     -0.860500
     12 S35        10.5280    7.2070   -1.5980 s6        1 N3H      2.762000
     13 O30         9.6240    8.2200   -1.3300 o         1 N3H     -0.860500
     14 C18        10.2050    6.3580   -2.9680 c3        1 N3H     -1.033000
     15 N26        10.2240    5.9360   -0.2960 n4        1 N3H     -0.427000
     16 C3          8.1160    6.4920    0.8650 c2        1 N3H     -0.488000
     17 C9          6.9890    4.1610   -1.2360 c3        1 N3H     -0.690000
     18 S34         7.7950    2.9670   -2.2340 s6        1 N3H      2.821000
     19 O28         8.0410    3.4710   -3.5030 o         1 N3H     -0.871500
     20 O29         8.7540    2.1910   -1.6000 o         1 N3H     -0.871500
     21 N24         6.3960    1.9120   -2.3460 n3        1 N3H     -0.708000
     22 C14         5.4110    1.7660   -1.4340 c2        1 N3H      0.360000
     23 N22         5.4070    2.5600   -0.2520 n2        1 N3H     -0.277000
     24 C2          7.4310    6.0110    1.8810 c1        1 N3H      0.243000
     25 C12         4.3220    0.8160   -1.5640 c2        1 N3H     -0.345000
     26 O32         3.6050    0.7640    0.7940 oh        1 N3H     -0.208000
     27 O27         4.7100    0.4450   -3.9160 o         1 N3H     -0.342000
     28 N25         2.9140   -0.6490   -2.9930 n         1 N3H     -0.189000
     29 C19         3.1270   -2.7210   -4.3980 c3        1 N3H     -0.246000
     30 C16         2.7580   -3.1360   -8.0500 c2        1 N3H     -0.238000
     31 N23         2.1510   -0.9740   -1.9850 n2        1 N3H      0.091000
     32 C11         2.3690   -0.4790   -0.7610 c2        1 N3H     -0.065000
     33 S33         1.8520   -1.6250    1.7900 s4        1 N3H      0.973000
     34 C1         -0.5910   -1.1230    1.4770 c2        1 N3H     -0.241000
     35 H4         -0.4740   -0.2660   -0.5870 ha        1 N3H      0.164000
     36 H5          6.3650    4.8890   -1.8440 h1        1 N3H      0.217000
     37 H6          2.4090   -0.6390    2.4620 hs        1 N3H     -0.028000
     38 H17         1.3780   -5.1680   -5.9710 hc        1 N3H      0.083667
     39 H17A        1.6250   -6.0830   -7.5140 hc        1 N3H      0.083667
     40 H17B        3.0480   -5.3620   -6.6530 hc        1 N3H      0.083667
     41 H20         1.5280   -1.2520   -4.4840 h1        1 N3H      0.132000
     42 H20A        3.1500   -0.6550   -5.0870 h1        1 N3H      0.132000
     43 H21         0.7290   -3.7510   -7.9730 ha        1 N3H      0.123000
     44 H18         9.4250    5.5400   -2.8920 h1        1 N3H      0.215333
     45 H18A        9.8050    7.0150   -3.7940 h1        1 N3H      0.215333
     46 H18B       11.1040    5.8500   -3.4160 h1        1 N3H      0.215333
     47 HN26       10.6750    5.0470   -0.5260 hn        1 N3H      0.256500
     48 H3          8.1430    7.5950    0.7000 ha        1 N3H      0.225000
     49 HN24        6.3410    1.3180   -3.1610 hn        1 N3H      0.296000
     50 H2          6.0520    4.2190    0.7980 h4        1 N3H      0.213000
     51 HO32        4.3130    1.4250    0.9430 ho        1 N3H      0.288000
     52 H19         2.6240   -3.3750   -3.6450 hc        1 N3H      0.103667
     53 H19A        4.2320   -2.7880   -4.2530 hc        1 N3H      0.103667
     54 H16         2.8790   -3.1060   -5.4240 hc        1 N3H      0.103667
     55 H16A        3.8110   -3.3220   -7.8000 ha        1 N3H      0.111500
     56 H16B        2.5760   -2.2280   -8.6380 ha        1 N3H      0.111500
     57 H1         -1.6800   -1.0680    1.5650 ha        1 N3H      0.184000
     58 H262       10.5940    6.2370    0.6060 hn        1 N3H      0.256500
     59 C20         2.6410   -1.2900   -4.3060 c3        1 N3H     -0.015000
@<TRIPOS>BOND
     1    1    6 1   
     2    1   34 1   
     3    1   35 1   
     4    2    5 1   
     5    2   17 1   
     6    3   33 1   
     7    3   34 1   
     8    4   17 1   
     9    4   23 1   
    10    4   50 1   
    11    5   15 1   
    12    5   16 1   
    13    6   32 1   
    14    6   33 1   
    15    7   25 1   
    16    7   26 1   
    17    7   32 1   
    18    8   25 1   
    19    8   27 1   
    20    8   28 1   
    21    9   10 1   
    22    9   38 1   
    23    9   39 1   
    24    9   40 1   
    25   10   30 1   
    26   10   43 1   
    27   11   12 1   
    28   12   13 1   
    29   12   14 1   
    30   12   15 1   
    31   14   44 1   
    32   14   45 1   
    33   14   46 1   
    34   15   47 1   
    35   15   58 1   
    36   16   24 1   
    37   16   48 1   
    38   17   18 1   
    39   17   36 1   
    40   18   19 1   
    41   18   20 1   
    42   18   21 1   
    43   21   22 1   
    44   21   49 1   
    45   22   23 1   
    46   22   25 1   
    47   26   51 1   
    48   28   31 1   
    49   28   59 1   
    50   29   52 1   
    51   29   53 1   
    52   29   54 1   
    53   29   59 1   
    54   30   55 1   
    55   30   56 1   
    56   31   32 1   
    57   33   37 1   
    58   34   57 1   
    59   41   59 1   
    60   42   59 1   
@<TRIPOS>SUBSTRUCTURE
     1 N3H         1 TEMP              0 ****  ****    0 ROOT
