@<TRIPOS>MOLECULE
N3H
   58    58     1     0     0
SMALL
bcc


@<TRIPOS>ATOM
      1 C4          0.1540   -0.7600   -1.2910 ce        1 N3H      0.036000
      2 C5          8.4810    4.9470   -1.0460 c1        1 N3H     -0.172100
      3 C6         -0.3010   -0.7410    0.9990 c1        1 N3H     -0.104700
      4 C7          6.9650    3.1540   -0.3040 c3        1 N3H      0.263600
      5 C8          9.3970    5.6320   -0.6780 c1        1 N3H      0.069800
      6 C10         1.4250   -0.5330   -0.8350 cf        1 N3H     -0.210900
      7 C13         3.6160    0.6300   -1.3370 cd        1 N3H      0.165500
      8 C15         4.8040   -0.0540   -3.3590 c         1 N3H      0.649700
      9 C17         0.0700   -4.2120   -5.0180 c2        1 N3H     -0.238000
     10 C21         1.0290   -3.6630   -5.7590 c2        1 N3H     -0.174200
     11 O31        11.7060    8.3850    0.2970 o         1 N3H     -0.635300
     12 S35        10.4320    8.0170   -0.1660 s6        1 N3H      1.469900
     13 O30         9.3280    8.4410    0.5830 o         1 N3H     -0.635300
     14 C18        10.2440    8.5460   -1.7600 c3        1 N3H     -0.381300
     15 N26        10.4500    6.3710   -0.3240 n3        1 N3H     -0.651700
     16 C3          6.1990    4.4710    1.8580 c1        1 N3H     -0.102500
     17 C9          7.3430    4.1780   -1.4130 c3        1 N3H     -0.158800
     18 S34         7.6680    3.4260   -2.9740 s6        1 N3H      1.441900
     19 O28         7.5560    4.3940   -3.9780 o         1 N3H     -0.621800
     20 O29         8.8590    2.7030   -2.9140 o         1 N3H     -0.621800
     21 N24         6.3680    2.4280   -3.0460 nh        1 N3H     -0.864100
     22 C14         5.7310    1.8500   -1.9350 ce        1 N3H      0.756500
     23 N22         5.9820    2.1650   -0.6910 n2        1 N3H     -0.710900
     24 C2          6.5300    3.8760    0.8760 c1        1 N3H     -0.152100
     25 C12         4.6810    0.8210   -2.1870 cc        1 N3H     -0.365800
     26 O32         3.3550    1.2960   -0.1920 oh        1 N3H     -0.494100
     27 O27         5.7110   -0.0030   -4.2040 o         1 N3H     -0.583500
     28 N25         3.7750   -1.0800   -3.5630 n         1 N3H     -0.098400
     29 C19         4.6060   -5.2390   -4.0410 c3        1 N3H     -0.117800
     30 C16         0.9760   -3.5620   -7.2320 c3        1 N3H     -0.064900
     31 N23         2.7220   -1.1880   -2.7230 nc        1 N3H     -0.376300
     32 C11         2.5990   -0.4000   -1.6710 cd        1 N3H      0.484900
     33 S33         1.3850   -0.5710    0.9010 sx        1 N3H     -0.151900
     34 C1         -0.8440   -0.8740   -0.2200 ce        1 N3H     -0.306100
     35 H4         -0.1290   -0.8820   -2.3430 ha        1 N3H      0.171000
     36 H5          6.4720    4.8950   -1.5210 h1        1 N3H      0.140700
     37 H6          1.5410    0.7050    1.1920 hs        1 N3H      0.384000
     38 H17         4.1890   -6.0870   -4.6260 hc        1 N3H      0.029700
     39 H17A       -0.8460   -4.6390   -5.4470 ha        1 N3H      0.105000
     40 H17B        0.1420   -4.2760   -3.9250 ha        1 N3H      0.105000
     41 H20         4.0610   -4.3030   -4.3080 hc        1 N3H      0.029700
     42 H20A        4.7250   -1.8090   -5.2470 ha        1 N3H      0.018500
     43 H21         1.9440   -3.2420   -5.2930 ha        1 N3H      0.154000
     44 H18         9.3730    8.0930   -2.2970 h1        1 N3H      0.127033
     45 H18A       10.0750    9.6540   -1.7900 h1        1 N3H      0.127033
     46 H18B       11.1410    8.3540   -2.4010 h1        1 N3H      0.127033
     47 HN26       11.2770    5.8420   -0.1300 hn        1 N3H      0.475800
     48 H3          5.9200    5.0100    2.7290 ha        1 N3H      0.174500
     49 HN24        6.0300    2.1100   -3.9320 hn        1 N3H      0.482800
     50 H2          7.9130    2.5830   -0.0290 h1        1 N3H      0.105700
     51 HO32        4.0730    1.9300    0.0170 ho        1 N3H      0.490000
     52 H19         4.4830   -5.4430   -2.9550 hc        1 N3H      0.029700
     53 H19A        5.6860   -5.1220   -4.2760 hc        1 N3H      0.029700
     54 H16         1.8440   -4.1030   -7.6840 hc        1 N3H      0.036367
     55 H16A        0.0350   -3.9980   -7.6480 hc        1 N3H      0.036367
     56 H16B        1.0350   -2.4890   -7.5450 hc        1 N3H      0.036367
     57 H1         -1.8950   -1.0670   -0.4500 ha        1 N3H      0.176000
     58 C20         3.8330   -1.9480   -4.5950 c1        1 N3H      0.065500
@<TRIPOS>BOND
     1    1    6 2   
     2    1   34 1   
     3    1   35 1   
     4    2    5 3   
     5    2   17 1   
     6    3   33 2   
     7    3   34 2   
     8    4   17 1   
     9    4   23 1   
    10    4   24 1   
    11    4   50 1   
    12    5   15 1   
    13    6   32 1   
    14    6   33 1   
    15    7   25 2   
    16    7   26 1   
    17    7   32 1   
    18    8   25 1   
    19    8   27 2   
    20    8   28 1   
    21    9   10 2   
    22    9   39 1   
    23    9   40 1   
    24   10   30 1   
    25   10   43 1   
    26   11   12 2   
    27   12   13 2   
    28   12   14 1   
    29   12   15 1   
    30   14   44 1   
    31   14   45 1   
    32   14   46 1   
    33   15   47 1   
    34   16   24 3   
    35   16   48 1   
    36   17   18 1   
    37   17   36 1   
    38   18   19 2   
    39   18   20 2   
    40   18   21 1   
    41   21   22 1   
    42   21   49 1   
    43   22   23 2   
    44   22   25 1   
    45   26   51 1   
    46   28   31 1   
    47   28   58 3   
    48   29   38 1   
    49   29   41 1   
    50   29   52 1   
    51   29   53 1   
    52   30   54 1   
    53   30   55 1   
    54   30   56 1   
    55   31   32 2   
    56   33   37 1   
    57   34   57 1   
    58   42   58 1   
@<TRIPOS>SUBSTRUCTURE
     1 N3H         1 TEMP              0 ****  ****    0 ROOT
