@<TRIPOS>MOLECULE
N3H
   58    61     1     0     0
SMALL
bcc


@<TRIPOS>ATOM
      1 C4          3.8350    3.7890    1.6170 cc        1 N3H     -0.150000
      2 C5         -3.8970   -1.2900    0.6880 ca        1 N3H     -0.044000
      3 C6          5.1690    4.9730    0.1350 cd        1 N3H     -0.178100
      4 C7         -1.9180   -0.1370   -0.1270 ca        1 N3H      0.250400
      5 C8         -4.6890   -0.7010   -0.3090 ca        1 N3H      0.118600
      6 C10         4.0640    2.8550    0.6140 cd        1 N3H     -0.192000
      7 C13         2.1330    1.2380    0.7390 cd        1 N3H      0.164500
      8 C15         2.6720   -1.1560    0.6410 c         1 N3H      0.693700
      9 C17         7.4310   -2.7980   -2.5440 c3        1 N3H     -0.093100
     10 C21         6.5810   -3.0180   -1.3080 c3        1 N3H     -0.064700
     11 O31        -8.4460   -0.7500   -0.9080 o         1 N3H     -0.650300
     12 S35        -7.2700    0.0170   -0.7880 s6        1 N3H      1.470900
     13 O30        -6.9230    0.8310   -1.8820 o         1 N3H     -0.650300
     14 C18        -7.4120    1.0100    0.5800 c3        1 N3H     -0.373300
     15 N26        -6.0600   -1.0000   -0.3940 nh        1 N3H     -0.784500
     16 C3         -4.0660    0.1810   -1.2290 ca        1 N3H     -0.101000
     17 C9         -2.5290   -1.0170    0.7970 ca        1 N3H     -0.404500
     18 S34        -1.7030   -1.7580    2.0620 sy        1 N3H      1.523200
     19 O28        -2.0450   -1.1480    3.2750 o         1 N3H     -0.644800
     20 O29        -1.8950   -3.1450    2.0370 o         1 N3H     -0.644800
     21 N24        -0.1420   -1.4030    1.6750 nh        1 N3H     -0.844100
     22 C14         0.2550   -0.4300    0.7490 ce        1 N3H      0.777500
     23 N22        -0.5510    0.1740   -0.1030 nf        1 N3H     -0.631100
     24 C2         -2.7160    0.4580   -1.1350 ca        1 N3H     -0.107000
     25 C12         1.6950   -0.0700    0.7260 cc        1 N3H     -0.332800
     26 O32         1.2370    2.2420    0.8990 oh        1 N3H     -0.448100
     27 O27         2.3970   -2.3670    0.7160 o         1 N3H     -0.621500
     28 N25         4.0460   -0.7600    0.4880 n         1 N3H     -0.182800
     29 C19         5.5830   -1.8770   -1.1600 c3        1 N3H     -0.095400
     30 C16         5.8820   -4.3590   -1.3890 c3        1 N3H     -0.093100
     31 N23         4.4440    0.4910    0.4610 nc        1 N3H     -0.371300
     32 C11         3.5690    1.4900    0.6030 cd        1 N3H      0.345200
     33 S33         5.0400    3.4890   -0.5920 ss        1 N3H      0.117200
     34 C1          4.4770    5.0280    1.3300 cc        1 N3H     -0.154000
     35 H4          3.2550    3.6060    2.5250 ha        1 N3H      0.162000
     36 H5         -4.3470   -1.9990    1.4070 ha        1 N3H      0.149000
     37 H6          5.7400    5.7970   -0.2930 h4        1 N3H      0.179000
     38 H17         8.0080   -1.8460   -2.4590 hc        1 N3H      0.038200
     39 H17A        8.1540   -3.6400   -2.6680 hc        1 N3H      0.038200
     40 H17B        6.7900   -2.7450   -3.4560 hc        1 N3H      0.038200
     41 H20         5.9220   -1.6190    0.9760 h1        1 N3H      0.083700
     42 H20A        4.5810   -2.7890    0.5530 h1        1 N3H      0.083700
     43 H21         7.2600   -3.0220   -0.4080 hc        1 N3H      0.046700
     44 H18        -7.7910    0.4690    1.4820 h1        1 N3H      0.120033
     45 H18A       -6.4600    1.5090    0.8850 h1        1 N3H      0.120033
     46 H18B       -8.1430    1.8370    0.3860 h1        1 N3H      0.120033
     47 HN26       -6.2680   -1.9440   -0.1480 hn        1 N3H      0.461800
     48 H3         -4.6600    0.6560   -2.0340 ha        1 N3H      0.178000
     49 HN24        0.6110   -1.9430    2.0500 hn        1 N3H      0.480800
     50 H2         -2.2520    1.1470   -1.8610 ha        1 N3H      0.161000
     51 HO32        1.6920    3.0970    0.7870 ho        1 N3H      0.451000
     52 H19         4.7340   -2.0290   -1.8760 hc        1 N3H      0.056200
     53 H19A        6.0830   -0.9100   -1.4270 hc        1 N3H      0.056200
     54 H16         5.2760   -4.5470   -0.4700 hc        1 N3H      0.038200
     55 H16A        5.2010   -4.3950   -2.2740 hc        1 N3H      0.038200
     56 H16B        6.6340   -5.1790   -1.4890 hc        1 N3H      0.038200
     57 H1          4.4210    5.8980    1.9880 ha        1 N3H      0.162000
     58 C20         5.0620   -1.8080    0.2730 c3        1 N3H      0.098000
@<TRIPOS>BOND
     1    1    6 2   
     2    1   34 1   
     3    1   35 1   
     4    2    5 ar  
     5    2   17 ar  
     6    2   36 1   
     7    3   33 1   
     8    3   34 2   
     9    3   37 1   
    10    4   17 ar  
    11    4   23 1   
    12    4   24 ar  
    13    5   15 1   
    14    5   16 ar  
    15    6   32 1   
    16    6   33 1   
    17    7   25 2   
    18    7   26 1   
    19    7   32 1   
    20    8   25 1   
    21    8   27 2   
    22    8   28 1   
    23    9   10 1   
    24    9   38 1   
    25    9   39 1   
    26    9   40 1   
    27   10   29 1   
    28   10   30 1   
    29   10   43 1   
    30   11   12 2   
    31   12   13 2   
    32   12   14 1   
    33   12   15 1   
    34   14   44 1   
    35   14   45 1   
    36   14   46 1   
    37   15   47 1   
    38   16   24 ar  
    39   16   48 1   
    40   17   18 1   
    41   18   19 2   
    42   18   20 2   
    43   18   21 1   
    44   21   22 1   
    45   21   49 1   
    46   22   23 2   
    47   22   25 1   
    48   24   50 1   
    49   26   51 1   
    50   28   31 1   
    51   28   58 1   
    52   29   52 1   
    53   29   53 1   
    54   29   58 1   
    55   30   54 1   
    56   30   55 1   
    57   30   56 1   
    58   31   32 2   
    59   34   57 1   
    60   41   58 1   
    61   42   58 1   
@<TRIPOS>SUBSTRUCTURE
     1 N3H         1 TEMP              0 ****  ****    0 ROOT
