@<TRIPOS>MOLECULE
N3M
   21    21     1     0     0
SMALL
bcc


@<TRIPOS>ATOM
      1 CAA         3.8200   -0.9150   -0.0880 c3        1 N3M     -0.179100
      2 OAC         2.7190    1.2120    0.0820 o         1 N3M     -0.586100
      3 CAD        -1.4280    1.7900   -0.0550 ca        1 N3M     -0.071000
      4 CAE        -2.5270    0.9440   -0.0340 ca        1 N3M     -0.215000
      5 CAF        -0.1260    1.2980   -0.0760 ca        1 N3M     -0.194000
      6 CAG        -1.0210   -0.9660   -0.0490 ca        1 N3M     -0.250000
      7 NAH         1.3740   -0.6690   -0.1020 n         1 N3M     -0.476100
      8 CAI         2.6000   -0.0210   -0.0270 c         1 N3M      0.666100
      9 CAJ        -2.3340   -0.4570   -0.0390 ca        1 N3M      0.162600
     10 CAK         0.0920   -0.0940   -0.0740 ca        1 N3M      0.105600
     11 HAA         4.7320   -0.2750   -0.0170 hc        1 N3M      0.068033
     12 HAAA        3.8190   -1.6400    0.7620 hc        1 N3M      0.068033
     13 HAAB        3.8470   -1.4780   -1.0510 hc        1 N3M      0.068033
     14 HNAB       -4.2810   -0.9370    0.2330 hn        1 N3M      0.387300
     15 HNAA       -3.2520   -2.2420    0.2390 hn        1 N3M      0.387300
     16 HAD        -1.5850    2.8800   -0.0560 ha        1 N3M      0.133000
     17 HAE        -3.5430    1.3650   -0.0230 ha        1 N3M      0.132000
     18 HAF         0.7190    2.0040   -0.0900 ha        1 N3M      0.173000
     19 HAG        -0.8660   -2.0560   -0.0490 ha        1 N3M      0.126000
     20 HNAH        1.3950   -1.6620   -0.1730 hn        1 N3M      0.313500
     21 NAB        -3.4310   -1.3260   -0.1100 nh        1 N3M     -0.819200
@<TRIPOS>BOND
     1    1    8 1   
     2    1   11 1   
     3    1   12 1   
     4    1   13 1   
     5    2    8 2   
     6    3    4 ar  
     7    3    5 ar  
     8    3   16 1   
     9    4    9 ar  
    10    4   17 1   
    11    5   10 ar  
    12    5   18 1   
    13    6    9 ar  
    14    6   10 ar  
    15    6   19 1   
    16    7    8 1   
    17    7   10 1   
    18    7   20 1   
    19    9   21 1   
    20   14   21 1   
    21   15   21 1   
@<TRIPOS>SUBSTRUCTURE
     1 N3M         1 TEMP              0 ****  ****    0 ROOT
