@<TRIPOS>MOLECULE
N3M
   21    21     1     0     0
SMALL
bcc


@<TRIPOS>ATOM
      1 CAA         0.3950   -0.1460    0.9430 c3        1 N3M     -0.247000
      2 OAC         2.7970   -0.2660    0.9730 o         1 N3M     -0.338000
      3 CAD         5.1770    0.3180   -0.5600 cx        1 N3M     -0.118000
      4 CAE         5.5550    0.0870   -2.0150 cx        1 N3M     -0.101000
      5 CAF         4.1570    0.0360   -1.5640 cu        1 N3M     -0.234000
      6 CAG         5.3780    1.5730   -3.9170 c1        1 N3M      0.241000
      7 NAH         1.7750   -0.1850   -1.0990 ns        1 N3M     -0.332000
      8 CAI         1.7580   -0.2000    0.2930 c2        1 N3M      0.302000
      9 CAJ         6.0690    1.2300   -2.8250 c2        1 N3M     -0.331000
     10 CAK         2.8990   -0.1780   -1.9200 c2        1 N3M      0.042000
     11 HAA        -0.2260   -1.0200    0.6300 hc        1 N3M      0.107333
     12 HAAA        0.5280   -0.1760    2.0530 hc        1 N3M      0.107333
     13 HAAB       -0.1340    0.7980    0.6670 hc        1 N3M      0.107333
     14 HNAB        8.0270    1.2490   -2.4530 hn        1 N3M      0.150500
     15 HNAA        7.1500    2.2060   -1.4660 hn        1 N3M      0.150500
     16 HAD         6.0560   -0.8670   -2.2850 hc        1 N3M      0.130000
     17 HAE         5.4180   -0.4560    0.1940 hc        1 N3M      0.124000
     18 HAF         5.2440    1.3390   -0.1390 hc        1 N3M      0.124000
     19 HAG         2.6520   -0.3680   -2.9860 h4        1 N3M      0.142000
     20 HNAH        0.8970   -0.1550   -1.5650 hn        1 N3M      0.230000
     21 NAB         7.2600    1.8970   -2.4170 n8        1 N3M     -0.255000
@<TRIPOS>BOND
     1    1    8 1   
     2    1   11 1   
     3    1   12 1   
     4    1   13 1   
     5    2    8 1   
     6    3    4 1   
     7    3    5 1   
     8    3   17 1   
     9    3   18 1   
    10    4    5 1   
    11    4    9 1   
    12    4   16 1   
    13    5   10 1   
    14    6    9 1   
    15    7    8 1   
    16    7   10 1   
    17    7   20 1   
    18    9   21 1   
    19   10   19 1   
    20   14   21 1   
    21   15   21 1   
@<TRIPOS>SUBSTRUCTURE
     1 N3M         1 TEMP              0 ****  ****    0 ROOT
