@<TRIPOS>MOLECULE
N3M
   21    18     1     0     0
SMALL
bcc


@<TRIPOS>ATOM
      1 CAA        -3.7400   -0.6150    1.0420 c3        1 N3M     -0.179100
      2 NAB         2.8860    2.0700    0.2550 n3        1 N3M     -0.796400
      3 OAC        -1.8270    0.6030    1.7950 o         1 N3M     -0.590100
      4 CAD         1.8550   -1.1000   -1.3990 c1        1 N3M     -0.090500
      5 CAE         2.6300   -0.0090   -1.0020 c1        1 N3M     -0.162500
      6 CAF         0.5360   -1.2080   -0.9740 c1        1 N3M     -0.090500
      7 CAG         0.7540    0.8600    0.2480 c1        1 N3M     -0.162500
      8 NAH        -1.4170   -0.6290   -0.0990 n         1 N3M     -0.488700
      9 CAI        -2.2720   -0.1400    0.9540 c         1 N3M      0.666100
     10 CAJ         2.0830    0.9700   -0.1800 c1        1 N3M      0.140800
     11 CAK        -0.0160   -0.2250   -0.1480 c1        1 N3M      0.119200
     12 HAA        -3.9700   -0.7990    1.9860 hc        1 N3M      0.068367
     13 HAAA       -4.3350    0.0890    0.6900 hc        1 N3M      0.068367
     14 HAAB       -3.8510   -1.4300    0.5140 hc        1 N3M      0.068367
     15 HNAB        2.5180    2.7280    0.7870 hn        1 N3M      0.393300
     16 HNAA        3.7520    2.1300   -0.0050 hn        1 N3M      0.393300
     17 HAD         2.2420   -1.7910   -1.9800 ha        1 N3M      0.070500
     18 HAE         3.5590    0.0660   -1.3010 ha        1 N3M      0.074500
     19 HAF         0.0060   -1.9560   -1.2470 ha        1 N3M      0.070500
     20 HAG         0.3710    1.5440    0.8240 ha        1 N3M      0.113500
     21 HNAH       -1.7640   -1.1600   -0.7610 hn        1 N3M      0.314500
@<TRIPOS>BOND
     1    1    9 1   
     2    1   12 1   
     3    1   13 1   
     4    1   14 1   
     5    2   10 1   
     6    2   15 1   
     7    2   16 1   
     8    3    9 2   
     9    4    6 3   
    10    4   17 1   
    11    5   10 3   
    12    5   18 1   
    13    6   19 1   
    14    7   11 3   
    15    7   20 1   
    16    8    9 1   
    17    8   11 1   
    18    8   21 1   
@<TRIPOS>SUBSTRUCTURE
     1 N3M         1 TEMP              0 ****  ****    0 ROOT
