@<TRIPOS>MOLECULE
N3M
   23    22     1     0     0
SMALL
bcc


@<TRIPOS>ATOM
      1 CAA      -250.9230 -220.7500  243.1170 c3        1 N3M     -0.183100
      2 OAC      -252.2600 -222.1370  244.6060 o         1 N3M     -0.435100
      3 CAD      -253.9700 -221.9270  247.3900 c1        1 N3M      0.190500
      4 CAE       336.7630  288.4610 -320.1530 cx        1 N3M      0.223000
      5 CAF      -253.3830 -221.0090  246.8740 cg        1 N3M     -0.342200
      6 CAG       335.5570  286.4850 -321.5720 c2        1 N3M     -0.029000
      7 NAH      -252.0140 -219.9150  245.2040 n         1 N3M     -0.376500
      8 CAI      -251.7690 -221.0540  244.3130 c         1 N3M      0.659100
      9 CAJ       336.1370  287.5760 -321.1240 cu        1 N3M     -0.085200
     10 CAK      -252.7230 -219.9170  246.3200 ce        1 N3M      0.488400
     11 HAA      -249.9080 -220.3950  243.4260 hc        1 N3M      0.110033
     12 HAAA     -250.8090 -221.6920  242.5180 hc        1 N3M      0.110033
     13 HAAB     -251.4080 -219.9720  242.4730 hc        1 N3M      0.110033
     14 HNAB      335.2330  286.3500 -322.6180 ha        1 N3M      0.191000
     15 HNAA      335.8860  289.5910 -321.8000 hn        1 N3M      0.477800
     16 HAD       336.1520  289.0020 -319.3900 hx        1 N3M      0.150700
     17 HAE      -254.4920 -222.7400  247.8530 ha        1 N3M      0.217500
     18 HAF       337.8140  288.2910 -319.8130 hx        1 N3M      0.150700
     19 HAG      -252.8080 -218.9470  246.8820 h4        1 N3M      0.082800
     20 HNAH      335.3660  285.6340 -320.8910 ha        1 N3M      0.191000
     21 HAH2     -251.5860 -219.0490  244.9140 hn        1 N3M      0.368500
     22 HAB3      337.3950  288.9450 -322.1840 hn        1 N3M      0.477800
     23 NAB       336.5810  288.8840 -321.5800 n4        1 N3M     -0.747800
@<TRIPOS>BOND
     1    1    8 1   
     2    1   11 1   
     3    1   12 1   
     4    1   13 1   
     5    2    8 2   
     6    3    5 3   
     7    3   17 1   
     8    4    9 1   
     9    4   16 1   
    10    4   18 1   
    11    4   23 1   
    12    5   10 1   
    13    6    9 2   
    14    6   14 1   
    15    6   20 1   
    16    7    8 1   
    17    7   10 2   
    18    7   21 1   
    19    9   23 1   
    20   10   19 1   
    21   15   23 1   
    22   22   23 1   
@<TRIPOS>SUBSTRUCTURE
     1 N3M         1 TEMP              0 ****  ****    0 ROOT
