@<TRIPOS>MOLECULE
N3M
   21    19     1     0     0
SMALL
bcc


@<TRIPOS>ATOM
      1 CAA        -0.3800    0.2870    0.3420 c3        1 N3M     -0.251000
      2 OAC         1.4050   -1.0590    1.2340 o         1 N3M     -0.257000
      3 CAD         4.7190   -1.7160    0.5170 c1        1 N3M      0.149000
      4 CAE         6.9510    0.7030   -1.2800 c3        1 N3M     -0.200000
      5 CAF         3.9550   -0.9630   -0.1470 c1        1 N3M     -0.651000
      6 CAG         5.3730    0.3980   -3.0560 c1        1 N3M     -0.048000
      7 NAH         1.8720    0.1770   -0.6760 n         1 N3M     -0.316000
      8 CAI         1.0230   -0.2690    0.3660 c2        1 N3M      0.292000
      9 CAJ         6.4930    1.1960   -2.6380 c2        1 N3M     -0.081000
     10 CAK         3.1790   -0.1520   -0.8800 c2        1 N3M      0.270000
     11 HAA        -0.8990    0.0040   -0.6050 hc        1 N3M      0.113667
     12 HAAA       -0.9460   -0.1390    1.2070 hc        1 N3M      0.113667
     13 HAAB       -0.3630    1.4000    0.4340 hc        1 N3M      0.113667
     14 HNAB        5.5450   -0.5430   -3.5910 ha        1 N3M      0.095000
     15 HNAA        6.6530    2.4790   -4.0790 hn        1 N3M      0.132000
     16 HAD         6.2080   -0.0160   -0.8420 hc        1 N3M      0.113333
     17 HAE         7.9360    0.1870   -1.3930 hc        1 N3M      0.113333
     18 HAF         7.0700    1.5610   -0.5750 hc        1 N3M      0.113333
     19 HAG         3.6260    0.3420   -1.7920 h4        1 N3M      0.181000
     20 HNAH        1.4590    0.8100   -1.3290 hn        1 N3M      0.234000
     21 NAB         7.0250    2.2390   -3.1820 n2        1 N3M     -0.229000
@<TRIPOS>BOND
     1    1    8 1   
     2    1   11 1   
     3    1   12 1   
     4    1   13 1   
     5    2    8 1   
     6    3    5 1   
     7    4    9 1   
     8    4   16 1   
     9    4   17 1   
    10    4   18 1   
    11    5   10 1   
    12    6    9 1   
    13    6   14 1   
    14    7    8 1   
    15    7   10 1   
    16    7   20 1   
    17    9   21 1   
    18   10   19 1   
    19   15   21 1   
@<TRIPOS>SUBSTRUCTURE
     1 N3M         1 TEMP              0 ****  ****    0 ROOT
