@<TRIPOS>MOLECULE
N3P
   36    29     1     0     0
SMALL
bcc


@<TRIPOS>ATOM
      1 CAF        -1.3210    0.3360   -5.5310 c1        1 N3P     -0.093167
      2 CAG         0.0700    0.3690   -5.5070 c1        1 N3P     -0.093167
      3 CAH         3.0200    0.2110    4.5860 c1        1 N3P     -0.093167
      4 CAI         1.7400   -1.8180    4.6890 c1        1 N3P     -0.060500
      5 CAJ         2.3780    0.5550    3.4070 c1        1 N3P     -0.093167
      6 CAK         1.0990   -1.4730    3.5090 c1        1 N3P     -0.105500
      7 CAL        -2.0350    0.2820   -4.3410 c1        1 N3P     -0.093167
      8 CAM         0.7450    0.3480   -4.2930 c1        1 N3P     -0.093167
      9 CAN        -2.0750    0.1890   -1.9050 c1        1 N3P     -0.111500
     10 CAO         0.7050    0.2550   -1.8560 c1        1 N3P     -0.111500
     11 CAR         0.9730    0.0730    0.4780 c1        1 N3P      0.602500
     12 CAS         2.7010   -0.9760    5.2270 c1        1 N3P     -0.038100
     13 CAT         1.4180   -0.2860    2.8680 c1        1 N3P      0.075700
     14 CAU        -1.4000    0.1510   -0.6910 c1        1 N3P      0.369600
     15 CAV        -0.0090    0.1840   -0.6670 c1        1 N3P     -0.261000
     16 CAW        -1.3530    0.2610   -3.1110 cg        1 N3P     -0.068500
     17 CAX         0.0220    0.2930   -3.0870 cg        1 N3P     -0.068500
     18 NAP         0.4980   -0.0980    1.8040 n3        1 N3P     -0.296400
     19 OAA         2.1670    0.0580    0.2540 o         1 N3P     -0.688500
     20 OAB        -4.3190    1.5440    0.1320 o         1 N3P     -0.848167
     21 OAC        -3.7320   -0.7980    0.6290 o         1 N3P     -0.848167
     22 OAD        -3.4600    0.9350    2.3610 o         1 N3P     -0.848167
     23 OAQ        -1.8900    0.9090    0.3850 os        1 N3P     -0.343000
     24 CLA         3.4830   -1.3940    6.7290 cl        1 N3P     -0.195900
     25 PAY        -3.3670    0.6440    0.8820 p5        1 N3P      1.314900
     26 HAF        -1.7950    0.3530   -6.3840 ha        1 N3P      0.053500
     27 HAG         0.5720    0.4080   -6.3430 ha        1 N3P      0.053500
     28 HAH         3.6920    0.8060    4.9680 ha        1 N3P      0.053500
     29 HAI         1.5150   -2.6530    5.1400 ha        1 N3P      0.067500
     30 HAJ         2.6030    1.3910    2.9550 ha        1 N3P      0.053500
     31 HAK         0.4170   -2.0620    3.1340 ha        1 N3P      0.176500
     32 HAL        -3.0110    0.2590   -4.3590 ha        1 N3P      0.053500
     33 HAM         1.7210    0.3530   -4.2770 ha        1 N3P      0.053500
     34 HAN        -3.0510    0.1840   -1.9200 ha        1 N3P      0.070500
     35 HAO         1.6800    0.2960   -1.8380 ha        1 N3P      0.070500
     36 HNAP       -0.3980   -0.0890    1.9730 hn        1 N3P      0.382700
@<TRIPOS>BOND
     1    1    7 3   
     2    1   26 1   
     3    2    8 3   
     4    2   27 1   
     5    3    5 3   
     6    3   28 1   
     7    4   12 3   
     8    4   29 1   
     9    5   30 1   
    10    6   13 3   
    11    6   31 1   
    12    7   32 1   
    13    8   33 1   
    14    9   16 3   
    15    9   34 1   
    16   10   17 3   
    17   10   35 1   
    18   11   18 2   
    19   11   19 2   
    20   12   24 1   
    21   13   18 1   
    22   14   15 3   
    23   14   23 1   
    24   16   17 1   
    25   18   36 1   
    26   20   25 1   
    27   21   25 1   
    28   22   25 1   
    29   23   25 1   
@<TRIPOS>SUBSTRUCTURE
     1 N3P         1 TEMP              0 ****  ****    0 ROOT
