@<TRIPOS>MOLECULE
N3P
   36    37     1     0     0
SMALL
bcc


@<TRIPOS>ATOM
      1 CAF         0.5890    3.0500    4.3010 c2        1 N3P     -0.357000
      2 CAG        -0.4580    2.7320    3.3720 c2        1 N3P     -0.357000
      3 CAH         2.8130    1.0610    9.2480 c2        1 N3P     -0.007000
      4 CAI         0.3330    0.9200    8.8690 c3        1 N3P      0.037000
      5 CAJ         3.0740    0.0570    8.3170 c2        1 N3P     -0.395000
      6 CAK         0.6760   -0.1750    7.9110 c2        1 N3P     -0.142000
      7 CAL         1.3950    4.0740    4.3960 c1        1 N3P      0.063500
      8 CAM        -0.9630    3.3280    2.3290 c1        1 N3P      0.063500
      9 CAN        -0.0500   -2.6220    3.1230 ca        1 N3P     -0.220000
     10 CAO         2.7070   -2.2700    3.2040 ca        1 N3P     -0.056000
     11 CAS         1.5340    1.4530    9.5370 c2        1 N3P     -0.324000
     12 CAT         1.9800   -0.6070    7.6970 c2        1 N3P      0.083000
     13 CAU         0.5560   -2.1860    4.3330 ca        1 N3P      0.267000
     14 CAV         1.9630   -2.0100    4.3620 ca        1 N3P     -0.213000
     15 CAW         0.7150   -2.8760    1.9980 ca        1 N3P     -0.098000
     16 CAX         2.1020   -2.7080    2.0320 ca        1 N3P     -0.226000
     17 NAP         2.2330   -1.7250    6.8330 ns        1 N3P     -0.280000
     18 OAA         3.7960   -0.8740    5.3430 o         1 N3P     -0.370000
     19 OAB        -0.6000    0.4040    5.1880 o         1 N3P     -0.830500
     20 OAC        -2.4670   -1.1660    6.0390 o         1 N3P     -0.830500
     21 OAD        -0.4200   -0.8990    7.4860 os        1 N3P     -0.686000
     22 OAQ        -0.2040   -2.0940    5.4230 os        1 N3P     -0.683000
     23 PAY        -1.0610   -0.7390    6.0040 p5        1 N3P      1.929000
     24 HAF         0.7180    2.2410    5.0900 ha        1 N3P      0.286500
     25 HAG        -0.9400    1.7300    3.6240 ha        1 N3P      0.286500
     26 HAH         4.0980   -0.2060    8.0450 ha        1 N3P      0.108000
     27 HAI        -0.4110    0.5340    9.6250 hc        1 N3P      0.021000
     28 HAJ         3.6660    1.5360    9.7600 ha        1 N3P      0.074000
     29 HAK        -0.2060    1.7470    8.3180 hc        1 N3P      0.021000
     30 HAL         0.2280   -3.2110    1.0710 ha        1 N3P      0.098000
     31 HAM         2.7050   -2.9080    1.1380 ha        1 N3P      0.102000
     32 HAN        -1.1400   -2.7570    3.1050 ha        1 N3P      0.136000
     33 HAO         3.7960   -2.1040    3.2370 ha        1 N3P      0.133000
     34 HNAP        1.4520   -2.3590    6.8360 hn        1 N3P      0.204000
     35 CAR         2.7140   -1.4660    5.5400 c2        1 N3P      0.344000
     36 ClA         1.2510    2.6430   10.7630 cl        1 N3P     -0.181000
@<TRIPOS>BOND
     1    1    2 1   
     2    1    7 1   
     3    1   24 1   
     4    2    8 1   
     5    2   25 1   
     6    3    5 1   
     7    3   11 1   
     8    3   28 1   
     9    4    6 1   
    10    4   11 1   
    11    4   27 1   
    12    4   29 1   
    13    5   12 1   
    14    5   26 1   
    15    6   12 1   
    16    6   21 1   
    17    9   13 1   
    18    9   15 1   
    19    9   32 1   
    20   10   14 1   
    21   10   16 1   
    22   10   33 1   
    23   11   36 1   
    24   12   17 1   
    25   13   14 1   
    26   13   22 1   
    27   14   35 1   
    28   15   16 1   
    29   15   30 1   
    30   16   31 1   
    31   17   34 1   
    32   17   35 1   
    33   18   35 1   
    34   19   23 1   
    35   20   23 1   
    36   21   23 1   
    37   22   23 1   
@<TRIPOS>SUBSTRUCTURE
     1 N3P         1 TEMP              0 ****  ****    0 ROOT
