@<TRIPOS>MOLECULE
N3P
   36    37     1     0     0
SMALL
bcc


@<TRIPOS>ATOM
      1 CAF        -0.0430   -1.1240    0.1580 ca        1 N3P     -0.129000
      2 CAG        -0.7910   -2.2590    0.5720 ca        1 N3P     -0.248000
      3 CAH         5.5690  -10.3840    0.3920 ca        1 N3P     -0.118500
      4 CAI         7.6620   -9.2390   -0.0070 ca        1 N3P     -0.118500
      5 CAJ         4.8790   -9.1860    0.2320 ca        1 N3P     -0.180500
      6 CAK         6.9860   -8.0430   -0.1690 ca        1 N3P     -0.180500
      7 CAL         1.2520   -1.2530   -0.2550 ca        1 N3P     -0.156000
      8 CAM        -0.2050   -3.5000    0.5580 ca        1 N3P     -0.054000
      9 CAN         3.2050   -2.6960   -0.7080 ca        1 N3P     -0.328000
     10 CAO         1.7610   -4.9380    0.1170 ca        1 N3P     -0.010000
     11 CAS         6.9550  -10.4140    0.2740 ca        1 N3P     -0.128000
     12 CAT         5.5640   -7.9800   -0.0530 ca        1 N3P      0.130000
     13 CAU         3.8540   -3.9750   -0.7420 ca        1 N3P      0.341000
     14 CAV         3.0690   -5.1150   -0.2900 ca        1 N3P     -0.261000
     15 CAW         1.8980   -2.5360   -0.2870 ca        1 N3P      0.054000
     16 CAX         1.1350   -3.6740    0.1360 ca        1 N3P     -0.191000
     17 NAP         4.9480   -6.7390   -0.1930 n         1 N3P     -0.301000
     18 OAA         2.7550   -7.4650   -0.2230 o         1 N3P     -0.455000
     19 OAB         7.4140   -3.7300   -2.8070 o         1 N3P     -1.167667
     20 OAC         7.4130   -2.5260   -0.5630 o         1 N3P     -1.167667
     21 OAD         7.3560   -5.0760   -0.6420 o         1 N3P     -1.167667
     22 OAQ         5.0450   -4.0960   -1.1670 o         1 N3P     -0.548000
     23 PAY         7.2420   -3.7690   -1.3410 p3        1 N3P      2.507000
     24 HAF        -0.5300   -0.1380    0.1800 ha        1 N3P      0.088000
     25 HAG        -1.8300   -2.1250    0.8980 ha        1 N3P      0.091000
     26 HAH         5.0080  -11.3030    0.6110 ha        1 N3P      0.119000
     27 HAI         8.7570   -9.2610   -0.1030 ha        1 N3P      0.119000
     28 HAJ         3.7820   -9.1970    0.3300 ha        1 N3P      0.200000
     29 HAK         7.5510   -7.1090   -0.3900 ha        1 N3P      0.200000
     30 HAL         1.8370   -0.3790   -0.5740 ha        1 N3P      0.112000
     31 HAM        -0.7720   -4.3880    0.8770 ha        1 N3P      0.096000
     32 HAN         3.8030   -1.8310   -1.0250 ha        1 N3P      0.137000
     33 HAO         1.1760   -5.8170    0.4400 ha        1 N3P      0.119000
     34 HNAP        5.5830   -5.9480   -0.3640 hn        1 N3P      0.333000
     35 CAR         3.5790   -6.5120   -0.2490 c2        1 N3P      0.369000
     36 CLA         7.8000  -11.8950    0.4730 cl        1 N3P     -0.106000
@<TRIPOS>BOND
     1    1    2 1   
     2    1    7 1   
     3    1   24 1   
     4    2    8 1   
     5    2   25 1   
     6    3    5 1   
     7    3   11 1   
     8    3   26 1   
     9    4    6 1   
    10    4   11 1   
    11    4   27 1   
    12    5   12 1   
    13    5   28 1   
    14    6   12 1   
    15    6   29 1   
    16    7   15 1   
    17    7   30 1   
    18    8   16 1   
    19    8   31 1   
    20    9   13 1   
    21    9   15 1   
    22    9   32 1   
    23   10   14 1   
    24   10   16 1   
    25   10   33 1   
    26   11   36 1   
    27   12   17 1   
    28   13   14 1   
    29   13   22 1   
    30   14   35 1   
    31   15   16 1   
    32   17   34 1   
    33   17   35 1   
    34   18   35 1   
    35   19   23 1   
    36   20   23 1   
    37   21   23 1   
@<TRIPOS>SUBSTRUCTURE
     1 N3P         1 TEMP              0 ****  ****    0 ROOT
