@<TRIPOS>MOLECULE
N3P
   37    36     1     0     0
SMALL
bcc


@<TRIPOS>ATOM
      1 CAF         3.1860    1.7810    2.3510 c2        1 N3P     -0.393000
      2 CAG         2.5370    1.1320    1.2450 c2        1 N3P     -0.393000
      3 CAH         3.2630    1.2270    9.3140 c2        1 N3P     -0.136000
      4 CAI         2.5580   -0.9190   10.3130 c3        1 N3P     -0.186000
      5 CAJ         2.6690    0.8440    8.0660 c2        1 N3P     -0.110000
      6 CAK         2.0340   -1.3170    9.0180 c1        1 N3P     -0.051000
      7 CAL         4.1110    2.7110    2.3880 c1        1 N3P      0.157500
      8 CAM         2.6370    1.3660   -0.0450 c1        1 N3P      0.157500
      9 CAN        -1.4660   -1.3350    3.2930 ca        1 N3P     -0.162000
     10 CAO         1.3260   -1.3530    3.3590 ca        1 N3P     -0.071000
     11 CAS         3.1990    0.4150   10.3960 c2        1 N3P     -0.109000
     12 CAT         1.9970   -0.3560    7.9400 c2        1 N3P      0.001000
     13 CAU        -0.7810   -0.7710    4.3960 ca        1 N3P      0.168000
     14 CAV         0.6220   -0.7900    4.4350 ca        1 N3P     -0.207000
     15 CAW        -0.7470   -1.8930    2.2500 ca        1 N3P     -0.085000
     16 CAX         0.6530   -1.8970    2.2740 ca        1 N3P     -0.203000
     17 NAP         1.2940   -0.7570    6.7950 n         1 N3P     -0.269000
     18 OAA         2.2950    0.6750    5.2840 o         1 N3P     -0.427000
     19 OAB        -3.7870   -0.1140    7.5620 o         1 N3P     -1.129000
     20 OAC        -3.4690   -2.4920    6.6340 o         1 N3P     -1.129000
     21 OAD        -1.4750   -1.1520    7.5030 o         1 N3P     -1.129000
     22 OAQ        -1.5830   -0.2160    5.3510 oh        1 N3P     -0.291000
     23 PAY        -2.9300   -1.2530    7.2090 p3        1 N3P      2.420000
     24 HAF         2.8440    1.4350    3.3700 ha        1 N3P      0.230500
     25 HAG         1.8380    0.3040    1.5340 ha        1 N3P      0.230500
     26 HAH         2.7690    1.5520    7.2250 ha        1 N3P      0.171000
     27 HAI         3.2830   -1.7180   10.6470 hc        1 N3P      0.168000
     28 HAJ         3.7470    2.2160    9.3580 ha        1 N3P      0.141000
     29 HAK         1.6760   -0.9780   11.0240 hc        1 N3P      0.168000
     30 HAL        -1.2800   -2.3400    1.3970 ha        1 N3P      0.128000
     31 HAM         1.2150   -2.3450    1.4440 ha        1 N3P      0.126000
     32 HAN        -2.5670   -1.3360    3.3030 ha        1 N3P      0.165000
     33 HAO         2.4270   -1.3550    3.3900 ha        1 N3P      0.138000
     34 HNAP       -1.0460    0.0980    6.1120 ho        1 N3P      0.284000
     35 CAR         1.4450   -0.2140    5.5400 c2        1 N3P      0.350000
     36 HAP2        0.5280   -1.4000    6.9730 hn        1 N3P      0.320000
     37 CLA         3.8320    0.8880   11.9030 cl        1 N3P     -0.041000
@<TRIPOS>BOND
     1    1    2 1   
     2    1    7 1   
     3    1   24 1   
     4    2    8 1   
     5    2   25 1   
     6    3    5 1   
     7    3   11 1   
     8    3   28 1   
     9    4    6 1   
    10    4   11 1   
    11    4   27 1   
    12    4   29 1   
    13    5   12 1   
    14    5   26 1   
    15    6   12 1   
    16    9   13 1   
    17    9   15 1   
    18    9   32 1   
    19   10   14 1   
    20   10   16 1   
    21   10   33 1   
    22   11   37 1   
    23   12   17 1   
    24   13   14 1   
    25   13   22 1   
    26   14   35 1   
    27   15   16 1   
    28   15   30 1   
    29   16   31 1   
    30   17   35 1   
    31   17   36 1   
    32   18   35 1   
    33   19   23 1   
    34   20   23 1   
    35   21   23 1   
    36   22   34 1   
@<TRIPOS>SUBSTRUCTURE
     1 N3P         1 TEMP              0 ****  ****    0 ROOT
