@<TRIPOS>MOLECULE
N3T
   43    44     1     0     0
SMALL
bcc


@<TRIPOS>ATOM
      1 N1'         0.0000    0.0000    0.0000 nb        1 N3T     -0.660000
      2 C2'         1.3630    0.0000    0.0000 ca        1 N3T      0.390600
      3 CM2         2.0560    0.4200   -1.2230 c3        1 N3T     -0.042400
      4 C3'         2.0500    0.0000    1.2130 ca        1 N3T     -0.283300
      5 C4'         1.2750   -0.2920    2.3490 ca        1 N3T      0.084600
      6 N4'         1.8890   -0.2510    3.4840 nv        1 N3T     -0.476200
      7 C5'        -0.0520   -0.7840    2.2240 ca        1 N3T     -0.262600
      8 C6'        -0.7030   -0.4000    1.1130 ca        1 N3T      0.429200
      9 C7'        -0.8190   -1.2850    3.4290 c3        1 N3T      0.015600
     10 N3         -0.3260   -2.6350    3.9930 na        1 N3T      0.495900
     11 C2          0.6610   -2.7910    4.9050 cc        1 N3T     -0.571400
     12 S1          0.9730   -4.4100    5.2250 ss        1 N3T     -0.080800
     13 C5         -0.2310   -4.8570    4.0620 cc        1 N3T     -0.027400
     14 C4         -0.8920   -3.7710    3.6070 cd        1 N3T     -0.285600
     15 CM4        -2.0400   -3.7640    2.6240 c3        1 N3T      0.089200
     16 C6         -0.5130   -6.2760    3.6640 c3        1 N3T      0.062900
     17 C7         -0.1100   -7.3420    4.6060 c3        1 N3T      0.266400
     18 O7          1.2820   -7.2660    4.3520 os        1 N3T     -0.476200
     19 PA          2.2590   -8.3860    4.7260 p5        1 N3T      1.012800
     20 O1A         3.5590   -8.0000    4.1080 o         1 N3T     -0.671500
     21 O2A         1.7090   -9.7350    4.3230 o         1 N3T     -0.671500
     22 O3A         2.3870   -8.4490    6.3250 os        1 N3T     -0.507800
     23 PB          1.9960   -9.4650    7.4930 p5        1 N3T      0.968900
     24 O1B         2.7460   -9.0290    8.6720 o         1 N3T     -0.559500
     25 O2B         2.3870  -10.7520    6.8410 o         1 N3T     -0.559500
     26 O3B         0.5520   -9.2610    7.5430 o         1 N3T     -0.559500
     27 HM21        2.4510    1.4200   -1.0890 hc        1 N3T      0.007033
     28 HM22        1.3600    0.4150   -2.0530 hc        1 N3T      0.007033
     29 HM23        2.8700   -0.2640   -1.4300 hc        1 N3T      0.007033
     30 H3'         3.1320   -0.0050    1.2500 ha        1 N3T      0.122000
     31 HN41        1.6510    0.4520    4.1560 hn        1 N3T      0.277800
     32 HN42        2.6450   -0.8800    3.6670 hn        1 N3T      0.277800
     33 H6'        -1.7860   -0.3920    1.0990 h4        1 N3T     -0.031900
     34 H7'1       -1.8600   -1.3900    3.1500 h1        1 N3T      0.019700
     35 H7'2       -0.7470   -0.5400    4.2120 h1        1 N3T      0.019700
     36 H2          1.1720   -1.9680    5.3900 h5        1 N3T      0.159000
     37 HM41       -1.6870   -3.4260    1.6580 hc        1 N3T      0.001367
     38 HM42       -2.8160   -3.0960    2.9790 hc        1 N3T      0.001367
     39 HM43       -2.4420   -4.7660    2.5310 hc        1 N3T      0.001367
     40 H61        -0.0120   -6.4610    2.7220 hc        1 N3T     -0.001800
     41 H62        -1.5800   -6.3670    3.5000 hc        1 N3T     -0.001800
     42 H71        -0.5180   -8.3040    4.3220 h1        1 N3T      0.004700
     43 H72        -0.3460   -7.0830    5.6310 h1        1 N3T      0.004700
@<TRIPOS>BOND
     1    1    2 ar  
     2    1    8 ar  
     3    2    3 1   
     4    2    4 ar  
     5    3   27 1   
     6    3   28 1   
     7    3   29 1   
     8    4    5 ar  
     9    4   30 1   
    10    5    6 1   
    11    5    7 ar  
    12    6   31 1   
    13    6   32 1   
    14    7    8 ar  
    15    7    9 1   
    16    8   33 1   
    17    9   10 1   
    18    9   34 1   
    19    9   35 1   
    20   10   11 2   
    21   10   14 1   
    22   11   12 1   
    23   11   36 1   
    24   12   13 1   
    25   13   14 2   
    26   13   16 1   
    27   14   15 1   
    28   15   37 1   
    29   15   38 1   
    30   15   39 1   
    31   16   17 1   
    32   16   40 1   
    33   16   41 1   
    34   17   18 1   
    35   17   42 1   
    36   17   43 1   
    37   18   19 1   
    38   19   20 1   
    39   19   21 1   
    40   19   22 1   
    41   22   23 1   
    42   23   24 1   
    43   23   25 1   
    44   23   26 1   
@<TRIPOS>SUBSTRUCTURE
     1 N3T         1 TEMP              0 ****  ****    0 ROOT
