@<TRIPOS>MOLECULE
N41
   49    52     1     0     0
SMALL
bcc


@<TRIPOS>ATOM
      1 C2         -2.0900   -0.2480   -1.4780 ca        1 N41      0.919900
      2 C10         1.8310    0.2200   -0.2020 c3        1 N41      0.137400
      3 C11         3.3400    0.4340   -0.1370 c3        1 N41     -0.072700
      4 C12         3.7420    0.7440    1.2980 c3        1 N41     -0.073400
      5 C13         5.2420    0.9270    1.4120 c3        1 N41     -0.075900
      6 C14         5.9900   -0.2810    0.8850 c3        1 N41     -0.078400
      7 C15         5.5820   -0.6020   -0.5380 c3        1 N41     -0.075900
      8 C16         4.0840   -0.7880   -0.6530 c3        1 N41     -0.073400
      9 C19        -1.7550   -1.0470    2.9180 ca        1 N41     -0.077500
     10 C20        -2.6800   -0.3050    3.6560 ca        1 N41     -0.155600
     11 C21        -3.7320    0.3390    2.9930 ca        1 N41     -0.077500
     12 C22        -3.8410    0.2680    1.6100 ca        1 N41     -0.150000
     13 N25        -1.3790   -0.1870    5.7410 n         1 N41     -0.674000
     14 N1         -0.7790   -0.0960   -1.0280 nb        1 N41     -0.824000
     15 C6          0.1760    0.1660   -1.9450 ca        1 N41      0.756600
     16 O6          1.4880    0.3300   -1.5990 os        1 N41     -0.417100
     17 C5         -0.1280    0.2930   -3.3280 ca        1 N41     -0.211200
     18 N7          0.6220    0.5510   -4.4840 nc        1 N41     -0.500100
     19 N9         -1.6000    0.3020   -5.0600 na        1 N41     -0.383000
     20 C4         -1.5400    0.1300   -3.6740 ca        1 N41      0.473800
     21 N3         -2.5360   -0.1250   -2.7830 nb        1 N41     -0.772000
     22 N2         -3.0830   -0.6070   -0.5390 nh        1 N41     -0.713300
     23 C17        -2.9010   -0.4710    0.8550 ca        1 N41      0.161600
     24 C18        -1.8600   -1.1390    1.5330 ca        1 N41     -0.150000
     25 C8         -0.2720    0.5500   -5.4830 cd        1 N41      0.391700
     26 O24        -3.6440   -0.0930    5.8390 o         1 N41     -0.611100
     27 H101        1.2860    1.0120    0.3730 h1        1 N41      0.054700
     28 H102        1.5440   -0.7950    0.1740 h1        1 N41      0.054700
     29 H11         3.6030    1.3140   -0.7890 hc        1 N41      0.072700
     30 H121        3.2230    1.6770    1.6420 hc        1 N41      0.043700
     31 H122        3.4130   -0.0940    1.9670 hc        1 N41      0.043700
     32 H131        5.5510    1.8380    0.8340 hc        1 N41      0.041950
     33 H132        5.5150    1.1000    2.4850 hc        1 N41      0.041950
     34 H141        7.0930   -0.0860    0.9260 hc        1 N41      0.039700
     35 H142        5.7790   -1.1660    1.5420 hc        1 N41      0.039700
     36 H151        5.9090    0.2300   -1.2170 hc        1 N41      0.041950
     37 H152        6.1010   -1.5360   -0.8760 hc        1 N41      0.041950
     38 H161        3.7720   -1.6920   -0.0670 hc        1 N41      0.043700
     39 H162        3.8000   -0.9620   -1.7240 hc        1 N41      0.043700
     40 H19        -0.9420   -1.5920    3.4220 ha        1 N41      0.147000
     41 H21        -4.4760    0.9000    3.5820 ha        1 N41      0.147000
     42 H22        -4.6740    0.7880    1.1110 ha        1 N41      0.148000
     43 H251       -1.3190   -0.0830    6.7230 hn        1 N41      0.312000
     44 H252       -0.5500   -0.1880    5.2070 hn        1 N41      0.312000
     45 H9         -2.4090    0.2500   -5.6200 hn        1 N41      0.318700
     46 H2         -4.0220   -0.4520   -0.8490 hn        1 N41      0.444800
     47 H18        -1.1250   -1.7420    0.9770 ha        1 N41      0.148000
     48 H8         -0.0400    0.7200   -6.5410 h5        1 N41      0.074800
     49 C23        -2.6140   -0.1920    5.1390 c         1 N41      0.672700
@<TRIPOS>BOND
     1    1   14 ar  
     2    1   21 ar  
     3    1   22 1   
     4    2    3 1   
     5    2   16 1   
     6    2   27 1   
     7    2   28 1   
     8    3    4 1   
     9    3    8 1   
    10    3   29 1   
    11    4    5 1   
    12    4   30 1   
    13    4   31 1   
    14    5    6 1   
    15    5   32 1   
    16    5   33 1   
    17    6    7 1   
    18    6   34 1   
    19    6   35 1   
    20    7    8 1   
    21    7   36 1   
    22    7   37 1   
    23    8   38 1   
    24    8   39 1   
    25    9   10 ar  
    26    9   24 ar  
    27    9   40 1   
    28   10   11 ar  
    29   10   49 1   
    30   11   12 ar  
    31   11   41 1   
    32   12   23 ar  
    33   12   42 1   
    34   13   43 1   
    35   13   44 1   
    36   13   49 1   
    37   14   15 ar  
    38   15   16 1   
    39   15   17 ar  
    40   17   18 1   
    41   17   20 ar  
    42   18   25 2   
    43   19   20 1   
    44   19   25 1   
    45   19   45 1   
    46   20   21 ar  
    47   22   23 1   
    48   22   46 1   
    49   23   24 ar  
    50   24   47 1   
    51   25   48 1   
    52   26   49 2   
@<TRIPOS>SUBSTRUCTURE
     1 N41         1 TEMP              0 ****  ****    0 ROOT
