@<TRIPOS>MOLECULE
N41
   50    51     1     0     0
SMALL
bcc


@<TRIPOS>ATOM
      1 C2          0.0880   -0.2980    0.1510 ca        1 N41      0.851900
      2 C10         4.0430   -0.0300    1.4140 c3        1 N41      0.176600
      3 C11         4.2060    1.1430    0.5210 c2        1 N41     -0.207200
      4 C12         6.0140    0.6160   -3.4060 c3        1 N41     -0.102100
      5 C13         7.1910    0.0370   -2.6620 c3        1 N41     -0.078400
      6 C14         7.4640    0.7420   -1.3490 c3        1 N41     -0.078400
      7 C15         6.4540    0.4220   -0.2650 c3        1 N41     -0.060200
      8 C16         5.2870    1.3350   -0.2430 c2        1 N41     -0.157200
      9 C19         2.2750    1.0080   -3.4590 ca        1 N41     -0.011500
     10 C20         1.8740    0.4810   -4.7030 ca        1 N41     -0.286600
     11 C21         0.7480   -0.3740   -4.7420 ca        1 N41     -0.011500
     12 C22         0.0670   -0.7010   -3.5900 ca        1 N41     -0.202000
     13 N25         3.7650    1.6490   -5.9100 nz        1 N41     -0.769400
     14 N1          1.4130   -0.2020    0.5210 nb        1 N41     -0.764000
     15 C6          1.6550    0.0130    1.8340 ca        1 N41      0.649600
     16 O6          2.9380    0.1170    2.3180 os        1 N41     -0.443100
     17 C5          0.6090    0.1410    2.8150 ca        1 N41     -0.111000
     18 N7          0.8750    0.4880    4.1500 nu        1 N41     -0.489200
     19 N9         -0.7550   -0.2370    5.9490 n1        1 N41     -0.333800
     20 C4         -0.7100    0.0030    2.3060 ca        1 N41      0.447200
     21 N3         -0.9880   -0.2080    1.0120 nb        1 N41     -0.696000
     22 N2         -0.2300   -0.5680   -1.2100 nu        1 N41     -0.706300
     23 C17         0.4830   -0.1930   -2.3180 ca        1 N41      0.295600
     24 C18         1.6040    0.6910   -2.2980 ca        1 N41     -0.202000
     25 C8          0.0020    0.0530    5.1080 c1        1 N41      0.302600
     26 O24         2.2720    0.3610   -7.0900 o         1 N41     -0.449100
     27 H101        3.9450   -0.9840    0.8300 h1        1 N41      0.082200
     28 H102        4.9100   -0.1160    2.1340 h1        1 N41      0.082200
     29 H11         3.3790    1.8710    0.5350 ha        1 N41      0.137000
     30 H121        5.0970    0.5820   -2.7670 hc        1 N41      0.021033
     31 H122        5.8310    0.0220   -4.3360 hc        1 N41      0.021033
     32 H131        6.2130    1.6790   -3.6870 hc        1 N41      0.021033
     33 H132        7.0100   -1.0540   -2.4720 hc        1 N41      0.053700
     34 H141        8.1060    0.1120   -3.3090 hc        1 N41      0.053700
     35 H142        8.4800    0.4200   -0.9900 hc        1 N41      0.052700
     36 H151        7.5130    1.8500   -1.5170 hc        1 N41      0.052700
     37 H152        6.9680    0.4920    0.7360 hc        1 N41      0.059200
     38 H161        6.1040   -0.6410   -0.3720 hc        1 N41      0.059200
     39 H162        5.3600    2.2330   -0.8790 ha        1 N41      0.120000
     40 H19         3.1340    1.6930   -3.3760 ha        1 N41      0.145000
     41 H21         0.4170   -0.7860   -5.7130 ha        1 N41      0.145000
     42 H22        -0.8070   -1.3710   -3.6590 ha        1 N41      0.174000
     43 H251        3.4940    2.5870   -5.6090 hn        1 N41      0.462800
     44 H252        4.1840    1.7030   -6.8460 hn        1 N41      0.462800
     45 H9         -1.5920    0.0700    2.9770 h4        1 N41      0.066100
     46 H2         -1.1080   -1.0300   -1.3580 hn        1 N41      0.481800
     47 H18         1.9540    1.1400   -1.3540 ha        1 N41      0.174000
     48 H8          1.8420    0.4160    4.4190 hn        1 N41      0.458800
     49 H253        4.4530    1.2700   -5.2490 hn        1 N41      0.462800
     50 C23         2.5320    0.7470   -5.9560 c         1 N41      0.584700
@<TRIPOS>BOND
     1    1   14 ar  
     2    1   21 ar  
     3    1   22 1   
     4    2    3 1   
     5    2   16 1   
     6    2   27 1   
     7    2   28 1   
     8    3    8 2   
     9    3   29 1   
    10    4    5 1   
    11    4   30 1   
    12    4   31 1   
    13    4   32 1   
    14    5    6 1   
    15    5   33 1   
    16    5   34 1   
    17    6    7 1   
    18    6   35 1   
    19    6   36 1   
    20    7    8 1   
    21    7   37 1   
    22    7   38 1   
    23    8   39 1   
    24    9   10 ar  
    25    9   24 ar  
    26    9   40 1   
    27   10   11 ar  
    28   10   50 1   
    29   11   12 ar  
    30   11   41 1   
    31   12   23 ar  
    32   12   42 1   
    33   13   43 1   
    34   13   44 1   
    35   13   49 1   
    36   13   50 1   
    37   14   15 ar  
    38   15   16 1   
    39   15   17 ar  
    40   17   18 1   
    41   17   20 ar  
    42   18   25 1   
    43   18   48 1   
    44   19   25 3   
    45   20   21 ar  
    46   20   45 1   
    47   22   23 1   
    48   22   46 1   
    49   23   24 ar  
    50   24   47 1   
    51   26   50 2   
@<TRIPOS>SUBSTRUCTURE
     1 N41         1 TEMP              0 ****  ****    0 ROOT
