@<TRIPOS>MOLECULE
N41
   49    43     1     0     0
SMALL
bcc


@<TRIPOS>ATOM
      1 C2         -1.6800    0.3520   -1.0460 c1        1 N41      0.575600
      2 C10         2.4100    1.5210    0.6750 c3        1 N41      0.225100
      3 C11         3.9140    1.2460    0.7100 c3        1 N41     -0.070700
      4 C12         4.6540    2.5690    0.6700 c3        1 N41     -0.074400
      5 C13         6.1430    2.4060    0.8840 c3        1 N41     -0.075900
      6 C14         6.4650    1.5990    2.1280 c3        1 N41     -0.078400
      7 C15         5.7250    0.2760    2.1690 c3        1 N41     -0.075900
      8 C16         4.2370    0.4390    1.9550 c3        1 N41     -0.074400
      9 C19        -5.8130   -1.3700   -1.6090 c1        1 N41     -0.004500
     10 C20        -5.6410   -2.4060   -2.5140 cg        1 N41     -0.104200
     11 C21        -4.4850   -2.4760   -3.2760 c1        1 N41     -0.050500
     12 C22        -3.5010   -1.5100   -3.1320 c1        1 N41     -0.050500
     13 N25        -6.5090   -4.5590   -3.5470 n         1 N41     -0.675000
     14 N1         -0.3200    0.4790   -1.0310 n1        1 N41     -0.257000
     15 C6          0.3380    0.5260    0.1390 c1        1 N41      0.260000
     16 O6          1.7350    0.3750    0.2080 o         1 N41     -0.342500
     17 C5         -0.3640    0.4440    1.3320 c1        1 N41     -0.263000
     18 N7          0.0410    0.4560    2.6300 n1        1 N41     -0.432800
     19 N9         -2.1380    0.2520    2.6040 ne        1 N41     -0.503400
     20 C4         -1.7070    0.3180    1.3160 c1        1 N41      0.309400
     21 N3         -2.3720    0.2720    0.1260 n1        1 N41     -0.562800
     22 N2         -2.6560    0.5040   -2.0660 n3        1 N41     -0.548400
     23 C17        -3.6730   -0.4740   -2.2270 c1        1 N41      0.132800
     24 C18        -4.8290   -0.4040   -1.4660 c1        1 N41     -0.119500
     25 C23        -6.6850   -3.4980   -2.6210 c         1 N41      0.621300
     26 C8         -1.0570    0.3380    3.4120 cg        1 N41      0.323800
     27 O24        -7.6660   -3.4740   -1.9040 o         1 N41     -0.611100
     28 H101        2.0970    1.7390    1.5770 h1        1 N41      0.062700
     29 H102        2.2300    2.2730    0.0750 h1        1 N41      0.062700
     30 H11         4.1590    0.7240   -0.0770 hc        1 N41      0.069700
     31 H121        4.5050    2.9890   -0.2010 hc        1 N41      0.044950
     32 H122        4.2970    3.1530    1.3690 hc        1 N41      0.044950
     33 H131        6.5500    3.2920    0.9680 hc        1 N41      0.040950
     34 H132        6.5270    1.9530    0.1060 hc        1 N41      0.040950
     35 H141        7.4280    1.4240    2.1510 hc        1 N41      0.039200
     36 H142        6.2200    2.1230    2.9170 hc        1 N41      0.039200
     37 H151        6.0830   -0.3080    1.4700 hc        1 N41      0.040950
     38 H152        5.8760   -0.1440    3.0400 hc        1 N41      0.040950
     39 H161        3.8530    0.8910    2.7330 hc        1 N41      0.044950
     40 H162        3.8300   -0.4470    1.8720 hc        1 N41      0.044950
     41 H19        -6.6270   -1.3210   -1.0720 ha        1 N41      0.101500
     42 H21        -4.3640   -3.2040   -3.9120 ha        1 N41      0.089000
     43 H22        -2.6870   -1.5590   -3.6690 ha        1 N41      0.089000
     44 H251       -7.1090   -5.2490   -3.5710 hn        1 N41      0.312000
     45 H252       -5.7880   -4.5610   -4.1080 hn        1 N41      0.312000
     46 H9         -3.0040    0.1660    2.8760 DU        1 N41      0.237500
     47 H2         -2.6250    1.2260   -2.6230 hn        1 N41      0.446800
     48 H18        -4.9500    0.3260   -0.8280 ha        1 N41      0.082500
     49 H8         -1.0660    0.3110    4.3870 DU        1 N41      0.237500
@<TRIPOS>BOND
     1    1   21 3   
     2    1   22 1   
     3    2    3 1   
     4    2   16 1   
     5    2   28 1   
     6    2   29 1   
     7    3    4 1   
     8    3    8 1   
     9    3   30 1   
    10    4    5 1   
    11    4   31 1   
    12    4   32 1   
    13    5    6 1   
    14    5   33 1   
    15    5   34 1   
    16    6    7 1   
    17    6   35 1   
    18    6   36 1   
    19    7    8 1   
    20    7   37 1   
    21    7   38 1   
    22    8   39 1   
    23    8   40 1   
    24    9   10 3   
    25    9   41 1   
    26   10   25 1   
    27   11   12 3   
    28   11   42 1   
    29   12   43 1   
    30   13   25 1   
    31   13   44 1   
    32   13   45 1   
    33   14   15 2   
    34   15   17 2   
    35   17   20 2   
    36   18   26 3   
    37   19   20 2   
    38   19   26 1   
    39   22   23 1   
    40   22   47 1   
    41   23   24 3   
    42   24   48 1   
    43   25   27 2   
@<TRIPOS>SUBSTRUCTURE
     1 N41         1 TEMP              0 ****  ****    0 ROOT
