@<TRIPOS>MOLECULE
N41
   49    51     1     0     0
SMALL
bcc


@<TRIPOS>ATOM
      1 C2          0.3440   -0.4420   -0.5840 ca        1 N41      0.910900
      2 C10         4.3590    0.4940   -0.3340 c3        1 N41      0.144400
      3 C11         5.7940    0.6980    0.1440 c3        1 N41     -0.072700
      4 C12         6.7130    0.8100   -1.0640 c3        1 N41     -0.073900
      5 C13         8.1450    1.0500   -0.6320 c3        1 N41     -0.075900
      6 C14         8.2600    2.2730    0.2550 c3        1 N41     -0.078400
      7 C15         7.3350    2.1730    1.4510 c3        1 N41     -0.075900
      8 C16         5.9030    1.9370    1.0200 c3        1 N41     -0.073900
      9 C19         1.5140   -0.1670   -4.8930 c2        1 N41     -0.129200
     10 C20         0.4280    0.3070   -5.8270 c3        1 N41     -0.099300
     11 C21        -0.4790    1.2650   -5.1000 c2        1 N41     -0.166300
     12 C22        -0.5730    1.0360   -3.8040 c1        1 N41     -0.140800
     13 N25        -1.4670   -1.2820   -6.0840 n         1 N41     -0.664000
     14 N1          1.6870   -0.1180   -0.5350 nb        1 N41     -0.795000
     15 C6          2.3080   -0.3030    0.6540 ca        1 N41      0.678600
     16 O6          3.6420   -0.0190    0.8090 os        1 N41     -0.458100
     17 C5          1.6430   -0.8140    1.8190 ca        1 N41     -0.211000
     18 N7          2.3130   -1.1100    3.0340 nh        1 N41     -0.466200
     19 N9          1.5260    0.1270    5.1080 n1        1 N41     -0.379800
     20 C4          0.2640   -1.0980    1.6450 ca        1 N41      0.497200
     21 N3         -0.3940   -0.9230    0.4960 nb        1 N41     -0.748000
     22 N2         -0.3580   -0.3110   -1.7950 nh        1 N41     -0.691700
     23 C17         0.1430    0.2570   -2.9540 ce        1 N41      0.140900
     24 C18         1.4580   -0.0900   -3.5460 ce        1 N41     -0.123000
     25 C8          1.9020   -0.3920    4.1310 c1        1 N41      0.302600
     26 O24         0.3610   -1.5040   -7.4220 o         1 N41     -0.614100
     27 H101        3.8930    1.4580   -0.6620 h1        1 N41      0.058700
     28 H102        4.3130   -0.2600   -1.1620 h1        1 N41      0.058700
     29 H11         5.5300    2.8300    0.4530 hc        1 N41      0.044200
     30 H121        6.1000   -0.1990    0.7530 hc        1 N41      0.065700
     31 H122        6.6570   -0.1320   -1.6690 hc        1 N41      0.044200
     32 H131        6.3690    1.6550   -1.7160 hc        1 N41      0.044200
     33 H132        8.5240    0.1510   -0.0790 hc        1 N41      0.042950
     34 H141        8.7890    1.1830   -1.5400 hc        1 N41      0.042950
     35 H142        8.0050    3.1900   -0.3380 hc        1 N41      0.041700
     36 H151        9.3190    2.3830    0.6070 hc        1 N41      0.041700
     37 H152        7.3930    3.1180    2.0510 hc        1 N41      0.042950
     38 H161        7.6710    1.3320    2.1140 hc        1 N41      0.042950
     39 H162        5.2480    1.8090    1.9200 hc        1 N41      0.044200
     40 H19         2.3900   -0.6010   -5.4020 ha        1 N41      0.156000
     41 H21         0.9210    0.9050   -6.6520 hc        1 N41      0.115700
     42 H22        -0.8730    2.1360   -5.6340 ha        1 N41      0.158000
     43 H251       -1.9290   -0.8040   -5.3540 hn        1 N41      0.318000
     44 H252       -1.9050   -2.0620   -6.5060 hn        1 N41      0.318000
     45 H9         -0.3440   -1.4850    2.4880 h4        1 N41      0.050100
     46 H2         -1.3570   -0.3280   -1.7190 hn        1 N41      0.465800
     47 H18         2.3020   -0.3780   -2.9070 ha        1 N41      0.165000
     48 H8          3.3160   -1.0780    2.9310 hn        1 N41      0.431800
     49 C23        -0.2240   -0.8940   -6.5030 c         1 N41      0.670100
@<TRIPOS>BOND
     1    1   14 ar  
     2    1   21 ar  
     3    1   22 1   
     4    2    3 1   
     5    2   16 1   
     6    2   27 1   
     7    2   28 1   
     8    3    4 1   
     9    3    8 1   
    10    3   30 1   
    11    4    5 1   
    12    4   31 1   
    13    4   32 1   
    14    5    6 1   
    15    5   33 1   
    16    5   34 1   
    17    6    7 1   
    18    6   35 1   
    19    6   36 1   
    20    7    8 1   
    21    7   37 1   
    22    7   38 1   
    23    8   29 1   
    24    8   39 1   
    25    9   10 1   
    26    9   24 2   
    27    9   40 1   
    28   10   11 1   
    29   10   41 1   
    30   10   49 1   
    31   11   12 2   
    32   11   42 1   
    33   12   23 2   
    34   13   43 1   
    35   13   44 1   
    36   13   49 1   
    37   14   15 ar  
    38   15   16 1   
    39   15   17 ar  
    40   17   18 1   
    41   17   20 ar  
    42   18   25 1   
    43   18   48 1   
    44   19   25 3   
    45   20   21 ar  
    46   20   45 1   
    47   22   23 1   
    48   22   46 1   
    49   23   24 1   
    50   24   47 1   
    51   26   49 2   
@<TRIPOS>SUBSTRUCTURE
     1 N41         1 TEMP              0 ****  ****    0 ROOT
