@<TRIPOS>MOLECULE
N44
   59    62     1     0     0
SMALL
bcc


@<TRIPOS>ATOM
      1 C1         -5.3890   -2.1050    1.3100 ca        1 N44     -0.144000
      2 C2          1.5760   -5.0050   -1.4590 ca        1 N44     -0.145000
      3 C3         -4.3940   -1.4940    2.0740 ca        1 N44     -0.152000
      4 C4         -5.2810   -2.1310   -0.0800 ca        1 N44     -0.152000
      5 C5          2.8820   -4.5420   -1.2920 ca        1 N44     -0.131000
      6 C6          0.5260   -4.0970   -1.5420 ca        1 N44     -0.095000
      7 C7         -3.2930   -0.9050    1.4530 ca        1 N44     -0.111000
      8 C8         -4.1810   -1.5460   -0.7070 ca        1 N44     -0.111000
      9 C9          3.1250   -3.1750   -1.2020 ca        1 N44     -0.140000
     10 C10         1.6560    2.6650   -1.5930 ca        1 N44     -0.144000
     11 C11         0.6540    3.5170   -2.0880 ca        1 N44     -0.141000
     12 C12         0.7680   -2.7180   -1.4480 ca        1 N44     -0.096600
     13 C13         0.4060    2.1920    0.4730 ca        1 N44     -0.066600
     14 C14        -3.1900   -0.9250    0.0570 ca        1 N44     -0.096300
     15 C15         2.0730   -2.2490   -1.2720 ca        1 N44     -0.044300
     16 C16         1.5450    2.0310   -0.3550 ca        1 N44     -0.073300
     17 C17        -0.4510    3.6830   -1.2800 ca        1 N44      0.040100
     18 C18        -0.5760    3.0280   -0.0270 ca        1 N44      0.054100
     19 C20         3.1890   -0.5190    2.4970 c2        1 N44     -0.146200
     20 C21        -0.4270   -1.8270   -1.6170 c         1 N44      0.658700
     21 C23        -2.4490    4.2820   -0.3710 c3        1 N44      0.318200
     22 C24        -2.0140   -0.2560   -0.6050 c3        1 N44      0.127300
     23 C25         2.4020   -0.7840   -1.1970 c3        1 N44      0.207100
     24 C26         2.6870    1.1980    0.1570 c3        1 N44      0.208100
     25 C27         3.2690   -0.9750    1.0730 c3        1 N44      0.200000
     26 N28        -0.8060   -1.0380   -0.5700 n         1 N44     -0.524900
     27 N29         2.4170   -0.2360    0.1510 n3        1 N44     -0.715600
     28 O30         1.0440    1.8950    2.7540 o         1 N44     -0.824800
     29 O31        -1.0690   -1.8650   -2.6960 o         1 N44     -0.659100
     30 O32        -0.4740    0.4960    1.9070 o         1 N44     -0.824800
     31 O33        -1.5840    4.4620   -1.5140 os        1 N44     -0.353900
     32 O34        -1.8010    3.3810    0.5460 os        1 N44     -0.317900
     33 H1         -6.2550   -2.5670    1.8030 ha        1 N44      0.110000
     34 H2          1.3780   -6.0840   -1.5280 ha        1 N44      0.123000
     35 H3         -4.4740   -1.4770    3.1700 ha        1 N44      0.117000
     36 H4         -6.0610   -2.6170   -0.6830 ha        1 N44      0.117000
     37 H5          3.7160   -5.2550   -1.2300 ha        1 N44      0.120000
     38 H6         -0.5060   -4.4490   -1.6940 ha        1 N44      0.144000
     39 H7         -2.4930   -0.4170    2.0440 ha        1 N44      0.166000
     40 H8         -4.0870   -1.5770   -1.8020 ha        1 N44      0.166000
     41 H9          4.1540   -2.8080   -1.0650 ha        1 N44      0.128000
     42 H10         2.5540    2.5020   -2.2070 ha        1 N44      0.118000
     43 H11         0.7480    4.0150   -3.0590 ha        1 N44      0.134000
     44 H19         5.1020   -1.2720    3.0920 ha        1 N44      0.096500
     45 H19A        4.0980   -0.4570    4.4160 ha        1 N44      0.096500
     46 H20         2.2560    0.0110    2.7950 ha        1 N44      0.206000
     47 H23        -2.5850    5.2710    0.1310 h2        1 N44      0.054200
     48 H23A       -3.4050    3.8180   -0.7170 h2        1 N44      0.054200
     49 H24        -2.2750   -0.0220   -1.6770 h1        1 N44      0.078700
     50 H24A       -1.7980    0.7100   -0.0480 h1        1 N44      0.078700
     51 H25         3.3980   -0.6300   -1.7170 h1        1 N44      0.041200
     52 H25A        1.6290   -0.1970   -1.7740 h1        1 N44      0.041200
     53 H26         3.6160    1.4380   -0.4420 h1        1 N44      0.053700
     54 H26A        2.8660    1.5160    1.2300 h1        1 N44      0.053700
     55 H27         4.3480   -0.9650    0.7310 h1        1 N44      0.026700
     56 H27A        2.9220   -2.0520    1.0520 h1        1 N44      0.026700
     57 HN28       -0.2450   -0.9470    0.2580 hn        1 N44      0.374500
     58 C22         0.3110    1.4820    1.8150 c         1 N44      0.936200
     59 C19         4.1700   -0.7610    3.3650 c2        1 N44     -0.267000
@<TRIPOS>BOND
     1    1    3 ar  
     2    1    4 ar  
     3    1   33 1   
     4    2    5 ar  
     5    2    6 ar  
     6    2   34 1   
     7    3    7 ar  
     8    3   35 1   
     9    4    8 ar  
    10    4   36 1   
    11    5    9 ar  
    12    5   37 1   
    13    6   12 ar  
    14    6   38 1   
    15    7   14 ar  
    16    7   39 1   
    17    8   14 ar  
    18    8   40 1   
    19    9   15 ar  
    20    9   41 1   
    21   10   11 ar  
    22   10   16 ar  
    23   10   42 1   
    24   11   17 ar  
    25   11   43 1   
    26   12   15 ar  
    27   12   20 1   
    28   13   16 ar  
    29   13   18 ar  
    30   13   58 1   
    31   14   22 1   
    32   15   23 1   
    33   16   24 1   
    34   17   18 ar  
    35   17   31 1   
    36   18   32 1   
    37   19   25 1   
    38   19   46 1   
    39   19   59 2   
    40   20   26 1   
    41   20   29 2   
    42   21   31 1   
    43   21   32 1   
    44   21   47 1   
    45   21   48 1   
    46   22   26 1   
    47   22   49 1   
    48   22   50 1   
    49   23   27 1   
    50   23   51 1   
    51   23   52 1   
    52   24   27 1   
    53   24   53 1   
    54   24   54 1   
    55   25   27 1   
    56   25   55 1   
    57   25   56 1   
    58   26   57 1   
    59   28   58 1   
    60   30   58 1   
    61   44   59 1   
    62   45   59 1   
@<TRIPOS>SUBSTRUCTURE
     1 N44         1 TEMP              0 ****  ****    0 ROOT
