@<TRIPOS>MOLECULE
N44
   61    62     1     0     0
SMALL
bcc


@<TRIPOS>ATOM
      1 C1          2.0570   -0.0960    0.9900 c3        1 N44     -0.212000
      2 C2          4.0100    2.8770    7.8530 c1        1 N44     -0.126000
      3 C3          2.7840    0.4680    2.1210 c1        1 N44     -0.086000
      4 C4          0.7580    0.5270    0.6740 c2        1 N44     -0.042000
      5 C5          3.9340    4.0790    8.5990 c2        1 N44     -0.223000
      6 C6          2.9440    2.5830    6.9040 c3        1 N44     -0.193000
      7 C7          2.2490    1.5310    2.8410 c2        1 N44     -0.253000
      8 C8          0.2740    1.5620    1.4070 c2        1 N44     -0.206000
      9 C9          2.9290    4.9820    8.4140 c2        1 N44      0.003000
     10 C10         5.3830   -1.7980    8.2850 c3        1 N44     -0.209000
     11 C11         5.6490   -3.2020    8.5490 c1        1 N44     -0.088000
     12 C12         1.9020    3.6200    6.7000 c2        1 N44     -0.132000
     13 C13         6.0250   -2.1330    5.9080 c2        1 N44     -0.227000
     14 C14         1.0170    2.0830    2.5190 c2        1 N44      0.109000
     15 C15         1.8840    4.7620    7.4320 c2        1 N44     -0.058000
     16 C16         5.5920   -1.2950    6.9040 c2        1 N44      0.110000
     17 C17         6.1260   -3.9940    7.5000 c2        1 N44     -0.257000
     18 C18         6.3330   -3.5200    6.2210 c2        1 N44      0.208000
     19 C20         6.2510   -0.4480    1.7690 c2        1 N44     -0.277000
     20 C21         0.8770    3.2570    5.6790 c2        1 N44      0.337000
     21 C23         6.2850   -5.9630    8.8330 c1        1 N44      0.012000
     22 C24         0.3750    3.2160    3.2700 c3        1 N44     -0.030000
     23 C25         0.8460    5.8100    7.3000 c3        1 N44     -0.199000
     24 C26         5.3350    0.1620    6.6600 c3        1 N44     -0.135000
     25 C27         6.8210    1.9770    6.3700 c2        1 N44     -0.085000
     26 N28         1.0930    3.7340    4.3920 n         1 N44     -0.381000
     27 N29         6.4750    0.7950    6.0300 n2        1 N44     -0.227000
     28 O30         7.2100   -2.0290    3.7470 oh        1 N44     -0.200000
     29 O31        -0.0990    2.5330    5.9420 o         1 N44     -0.326000
     30 O32         5.2570   -0.9810    3.9360 os        1 N44     -0.067000
     31 O33         6.4370   -5.3760    7.7190 os        1 N44     -0.037000
     32 O34         6.8260   -4.2520    5.1870 oh        1 N44     -0.270000
     33 H1          2.7320   -0.0530    0.0780 hc        1 N44      0.190500
     34 H2          2.4400    1.6370    7.2820 hc        1 N44      0.160500
     35 H3          1.9070   -1.2050    1.1870 hc        1 N44      0.190500
     36 H4          0.1950    0.1170   -0.1810 ha        1 N44      0.161000
     37 H5          4.7250    4.2680    9.3450 ha        1 N44      0.160000
     38 H6          3.4200    2.3120    5.9160 hc        1 N44      0.160500
     39 H7          2.8370    1.9220    3.6870 ha        1 N44      0.150000
     40 H8         -0.7000    2.0210    1.1700 ha        1 N44      0.165000
     41 H9          2.8730    5.9170    8.9990 ha        1 N44      0.154000
     42 H10         4.3140   -1.5840    8.6010 hc        1 N44      0.196000
     43 H11         6.0260   -1.1940    9.0030 hc        1 N44      0.196000
     44 H19         7.6890    2.4220    5.8470 h4        1 N44      0.143500
     45 H19A        7.2710   -0.8150    1.9410 ha        1 N44      0.137000
     46 H20         6.0900    0.0020    0.7790 ha        1 N44      0.137000
     47 H23         6.9720   -5.1710    5.4870 ho        1 N44      0.292000
     48 H23A        5.8980   -5.4600    9.7390 ha        1 N44      0.096000
     49 H24        -0.6400    2.8520    3.6270 h1        1 N44      0.148000
     50 H24A        0.2010    4.0570    2.5320 h1        1 N44      0.148000
     51 H25         0.0780    5.5330    6.5360 hc        1 N44      0.103667
     52 H25A        0.3270    5.9580    8.2810 hc        1 N44      0.103667
     53 H26         4.4620    0.2400    5.9410 h1        1 N44      0.136500
     54 H26A        1.3140    6.7820    7.0020 hc        1 N44      0.103667
     55 H27         6.3250    2.6070    7.1400 h4        1 N44      0.143500
     56 H27A        5.0140    0.6730    7.6210 h1        1 N44      0.136500
     57 HN28        4.0120   -0.0510    2.4510 h4        1 N44      0.341000
     58 C19         5.2430   -0.4940    2.6330 c2        1 N44     -0.214000
     59 H282        1.9050    4.2760    4.2100 hn        1 N44      0.234000
     60 H291        7.8420   -2.6210    4.2070 ho        1 N44      0.296000
     61 C22         6.1890   -1.6960    4.5240 c2        1 N44      0.396000
@<TRIPOS>BOND
     1    1    3 1   
     2    1    4 1   
     3    1   33 1   
     4    1   35 1   
     5    2    5 1   
     6    2    6 1   
     7    3    7 1   
     8    4    8 1   
     9    4   36 1   
    10    5    9 1   
    11    5   37 1   
    12    6   12 1   
    13    6   34 1   
    14    6   38 1   
    15    7   14 1   
    16    7   39 1   
    17    8   14 1   
    18    8   40 1   
    19    9   15 1   
    20    9   41 1   
    21   10   11 1   
    22   10   16 1   
    23   10   42 1   
    24   10   43 1   
    25   11   17 1   
    26   12   15 1   
    27   12   20 1   
    28   13   16 1   
    29   13   18 1   
    30   13   61 1   
    31   14   22 1   
    32   15   23 1   
    33   16   24 1   
    34   17   18 1   
    35   17   31 1   
    36   18   32 1   
    37   19   45 1   
    38   19   46 1   
    39   19   58 1   
    40   20   26 1   
    41   20   29 1   
    42   21   31 1   
    43   21   48 1   
    44   22   26 1   
    45   22   49 1   
    46   22   50 1   
    47   23   51 1   
    48   23   52 1   
    49   23   54 1   
    50   24   27 1   
    51   24   53 1   
    52   24   56 1   
    53   25   27 1   
    54   25   44 1   
    55   25   55 1   
    56   26   59 1   
    57   28   60 1   
    58   28   61 1   
    59   30   58 1   
    60   30   61 1   
    61   32   47 1   
    62   57   58 1   
@<TRIPOS>SUBSTRUCTURE
     1 N44         1 TEMP              0 ****  ****    0 ROOT
