@<TRIPOS>MOLECULE
N44
   61    62     1     0     0
SMALL
bcc


@<TRIPOS>ATOM
      1 C1          1.8650   -1.3190    3.6690 c3        1 N44     -0.239000
      2 C2          4.1410    3.8610    5.5560 c1        1 N44     -0.064000
      3 C3          1.5740   -0.6140    4.9170 c2        1 N44      0.063500
      4 C4          1.4360   -0.6360    2.4480 c2        1 N44      0.063500
      5 C5          4.4350    5.0390    6.2950 c2        1 N44     -0.236000
      6 C6          2.8290    3.7240    4.9300 c3        1 N44     -0.162000
      7 C7          1.0010    0.6380    4.9270 c2        1 N44     -0.218000
      8 C8          0.8830    0.6140    2.4830 c2        1 N44     -0.218000
      9 C9          3.6220    6.1230    6.2600 c2        1 N44      0.004000
     10 C10         7.0110   -3.7900    7.1120 c3        1 N44     -0.200000
     11 C11         6.5880   -4.8670    6.2310 c1        1 N44     -0.104000
     12 C12         1.8210    4.7890    5.2040 c2        1 N44     -0.202000
     13 C13         5.8730   -2.1450    5.6340 c2        1 N44     -0.167000
     14 C14         0.6740    1.2840    3.7210 c2        1 N44      0.171000
     15 C15         2.3550    6.1090    5.5330 c2        1 N44     -0.082000
     16 C16         6.6120   -2.4040    6.7530 c2        1 N44      0.057000
     17 C17         5.8300   -4.5370    5.1060 c2        1 N44     -0.271000
     18 C18         5.4650   -3.2430    4.7790 c2        1 N44      0.227000
     19 C20         7.1990    2.0590    4.1120 c2        1 N44     -0.233000
     20 C21         0.4800    4.5320    5.1990 c2        1 N44      0.130000
     21 C23         5.6750   -6.7900    4.3470 c1        1 N44     -0.003000
     22 C24         0.1260    2.6810    3.6470 c3        1 N44     -0.058000
     23 C25         1.7660    7.2650    5.1730 c2        1 N44     -0.169000
     24 C26         7.0740   -1.3140    7.6780 c3        1 N44     -0.108000
     25 C27         6.0120    0.0430    9.3020 c2        1 N44     -0.096000
     26 N28        -0.1390    3.2900    4.9270 n7        1 N44     -0.289000
     27 N29         5.9720   -0.5120    8.1540 n2        1 N44     -0.199000
     28 O30         4.3200   -0.3950    4.9670 o         1 N44     -0.420000
     29 O31        -0.4840    5.4720    5.5260 oh        1 N44     -0.280000
     30 O32         6.5120    0.0810    5.1370 os        1 N44     -0.222000
     31 O33         5.3760   -5.5610    4.2140 os        1 N44     -0.050000
     32 O34         4.7190   -2.9250    3.6850 oh        1 N44     -0.264000
     33 H1          3.0160   -1.4490    3.6330 hc        1 N44      0.235500
     34 H2          2.4390    2.7100    5.2370 hc        1 N44      0.127500
     35 H3          1.4780   -2.3830    3.7000 hc        1 N44      0.235500
     36 H4          1.5930   -1.1620    1.4890 ha        1 N44      0.181500
     37 H5          5.3810    5.0600    6.8610 ha        1 N44      0.157000
     38 H6          3.0330    3.6750    3.8180 hc        1 N44      0.127500
     39 H7          0.8170    1.1450    5.8930 ha        1 N44      0.188000
     40 H8          0.5920    1.1250    1.5480 ha        1 N44      0.188000
     41 H9          3.8960    7.0730    6.7520 ha        1 N44      0.143000
     42 H10         6.6260   -4.0340    8.1500 hc        1 N44      0.184000
     43 H11         8.1410   -3.8450    7.1880 hc        1 N44      0.184000
     44 H19         5.1460    0.6650    9.5970 h4        1 N44      0.126000
     45 H19A        8.1150    1.5730    3.7550 ha        1 N44      0.135500
     46 H20         7.0990    3.1300    3.8940 ha        1 N44      0.135500
     47 H23         4.6160   -3.7300    3.1430 ho        1 N44      0.268000
     48 H23A        6.3170   -7.1630    5.1680 ha        1 N44      0.092000
     49 H24        -0.8170    2.6320    3.0190 h1        1 N44      0.138500
     50 H24A        0.8840    3.2890    3.0610 h1        1 N44      0.138500
     51 H25        -0.1170    6.0540    6.2120 ho        1 N44      0.247000
     52 H25A        0.8400    7.2990    4.5820 ha        1 N44      0.136500
     53 H26         7.6830   -1.7730    8.5130 h1        1 N44      0.120000
     54 H26A        2.1970    8.2430    5.4310 ha        1 N44      0.136500
     55 H27         7.7670   -0.6380    7.0860 h1        1 N44      0.120000
     56 H27A        6.8290   -0.0260   10.0460 h4        1 N44      0.126000
     57 HN28       -1.1170    3.3050    5.1550 hn        1 N44      0.222000
     58 C19         6.2510    1.4230    4.8030 c2        1 N44     -0.049000
     59 H282        5.3090    1.8510    5.1910 h4        1 N44      0.200000
     60 H291        1.8790   -1.1060    5.8600 ha        1 N44      0.181500
     61 C22         5.4640   -0.7810    5.2390 c2        1 N44      0.413000
@<TRIPOS>BOND
     1    1    3 1   
     2    1    4 1   
     3    1   33 1   
     4    1   35 1   
     5    2    5 1   
     6    2    6 1   
     7    3    7 1   
     8    3   60 1   
     9    4    8 1   
    10    4   36 1   
    11    5    9 1   
    12    5   37 1   
    13    6   12 1   
    14    6   34 1   
    15    6   38 1   
    16    7   14 1   
    17    7   39 1   
    18    8   14 1   
    19    8   40 1   
    20    9   15 1   
    21    9   41 1   
    22   10   11 1   
    23   10   16 1   
    24   10   42 1   
    25   10   43 1   
    26   11   17 1   
    27   12   15 1   
    28   12   20 1   
    29   13   16 1   
    30   13   18 1   
    31   13   61 1   
    32   14   22 1   
    33   15   23 1   
    34   16   24 1   
    35   17   18 1   
    36   17   31 1   
    37   18   32 1   
    38   19   45 1   
    39   19   46 1   
    40   19   58 1   
    41   20   26 1   
    42   20   29 1   
    43   21   31 1   
    44   21   48 1   
    45   22   26 1   
    46   22   49 1   
    47   22   50 1   
    48   23   52 1   
    49   23   54 1   
    50   24   27 1   
    51   24   53 1   
    52   24   55 1   
    53   25   27 1   
    54   25   44 1   
    55   25   56 1   
    56   26   57 1   
    57   28   61 1   
    58   29   51 1   
    59   30   58 1   
    60   30   61 1   
    61   32   47 1   
    62   58   59 1   
@<TRIPOS>SUBSTRUCTURE
     1 N44         1 TEMP              0 ****  ****    0 ROOT
