@<TRIPOS>MOLECULE
N44
   59    51     1     0     0
SMALL
bcc


@<TRIPOS>ATOM
      1 C1         -2.6740    8.6030    2.0360 c1        1 N44     -0.092375
      2 C2         -0.8750    1.8170   -2.8570 c1        1 N44     -0.092375
      3 C3         -3.2000    7.9880    0.9450 c1        1 N44     -0.092375
      4 C4         -1.8940    7.8690    2.9450 c1        1 N44     -0.092375
      5 C5         -0.7530    0.4250   -3.0220 c1        1 N44     -0.092375
      6 C6         -0.9620    2.3620   -1.5830 c1        1 N44     -0.058500
      7 C7         -2.9640    6.6080    0.7210 c1        1 N44     -0.092375
      8 C8         -1.6600    6.5180    2.7290 c1        1 N44     -0.064500
      9 C9         -0.7190   -0.4160   -1.8970 c1        1 N44     -0.065000
     10 C10        -0.1720   -4.6140    1.0360 c1        1 N44     -0.065000
     11 C11        -0.4470   -5.9700    0.7820 c1        1 N44     -0.088500
     12 C12        -0.9290    1.5260   -0.4590 cg        1 N44     -0.099200
     13 C13         1.8220   -4.7440   -0.3420 cg        1 N44     -0.010200
     14 C14        -2.2000    5.8890    1.6100 c1        1 N44     -0.076100
     15 C15        -0.8060    0.1290   -0.6230 c1        1 N44     -0.032600
     16 C16         0.9710   -4.0040    0.4670 c1        1 N44     -0.032600
     17 C17         0.4130   -6.7240   -0.0380 c1        1 N44      0.018600
     18 C18         1.5420   -6.1260   -0.6000 c1        1 N44      0.045600
     19 C19         3.9860   -0.5910   -1.6630 c1        1 N44     -0.092375
     20 C20         2.8270   -1.1720   -1.5190 c1        1 N44     -0.092375
     21 C21        -1.2450    2.2870    0.7780 c         1 N44      0.631300
     22 C22         3.2820   -5.0260   -0.6270 c         1 N44      0.886800
     23 C23         1.6060   -8.3690   -1.1340 c3        1 N44      0.318200
     24 C24        -2.4090    4.3320    1.5900 c3        1 N44      0.104100
     25 C25        -0.3950   -1.0260    0.3290 c3        1 N44      0.015900
     26 C26         1.3250   -2.5390    0.8290 c3        1 N44      0.015900
     27 C27         1.8040   -0.6220   -0.4690 c2        1 N44      0.296100
     28 N28        -1.5450    3.7710    0.7000 n         1 N44     -0.571900
     29 N29         0.8020   -1.6550   -0.1690 nh        1 N44     -0.285100
     30 O30         3.7300   -4.9790   -1.8750 o         1 N44     -0.820800
     31 O31        -1.2240    1.7220    1.8670 o         1 N44     -0.625100
     32 O32         4.1150   -5.1980    0.3530 o         1 N44     -0.820800
     33 O33         0.4410   -8.1270   -0.3710 os        1 N44     -0.340400
     34 O34         2.3150   -7.1560   -1.2470 os        1 N44     -0.294400
     35 H1         -2.8450    9.5960    2.1960 ha        1 N44      0.081125
     36 H2         -0.8980    2.4050   -3.6430 ha        1 N44      0.081125
     37 H3         -3.7120    8.4700    0.3490 ha        1 N44      0.081125
     38 H4         -1.5200    8.3060    3.7190 ha        1 N44      0.081125
     39 H5         -0.6900    0.0420   -3.9290 ha        1 N44      0.081125
     40 H6         -1.0530    3.3880   -1.4640 ha        1 N44      0.069500
     41 H7         -3.3330    6.1790   -0.0440 ha        1 N44      0.081125
     42 H8         -1.0990    5.9920    3.3830 ha        1 N44      0.071500
     43 H9         -0.6340   -1.3790   -2.0100 ha        1 N44      0.114500
     44 H10        -0.7600   -4.1030    1.5950 ha        1 N44      0.114500
     45 H11        -1.2420   -6.3900    1.1770 ha        1 N44      0.073500
     46 H19         4.2170    0.1970   -1.1070 DU        1 N44      0.082000
     47 H19A        4.6230   -0.9280   -2.3140 ha        1 N44      0.081125
     48 H20         2.5980   -1.9530   -2.0690 ha        1 N44      0.081125
     49 H23         1.3620   -8.6830   -2.0040 h2        1 N44      0.050700
     50 H23A        2.1500   -9.0230   -0.6970 h2        1 N44      0.050700
     51 H24        -3.3340    4.1280    1.3230 h1        1 N44      0.062200
     52 H24A       -2.2390    3.9700    2.4820 h1        1 N44      0.062200
     53 H25        -0.2190   -0.6440    1.2850 h1        1 N44      0.044950
     54 H25A       -1.1250   -1.6920    0.3690 h1        1 N44      0.044950
     55 H26         0.9440   -2.3200    1.6820 h1        1 N44      0.044950
     56 H26A        2.3570   -2.4350    0.8740 h1        1 N44      0.044950
     57 H27         1.3520    0.1790   -0.8340 h4        1 N44     -0.072700
     58 H27A        2.2670   -0.3890    0.3310 h4        1 N44     -0.072700
     59 HN28       -1.0720    4.3020    0.1310 hn        1 N44      0.321500
@<TRIPOS>BOND
     1    1    4 3   
     2    1   35 1   
     3    2    5 3   
     4    2   36 1   
     5    3    7 3   
     6    3   37 1   
     7    4   38 1   
     8    5   39 1   
     9    6   12 3   
    10    6   40 1   
    11    7   41 1   
    12    8   14 3   
    13    8   42 1   
    14    9   15 3   
    15    9   43 1   
    16   10   16 3   
    17   10   44 1   
    18   11   17 3   
    19   11   45 1   
    20   12   21 1   
    21   13   18 3   
    22   13   22 1   
    23   14   24 1   
    24   15   25 1   
    25   16   26 1   
    26   17   33 1   
    27   18   34 1   
    28   19   20 3   
    29   19   47 1   
    30   20   48 1   
    31   21   28 1   
    32   21   31 2   
    33   22   30 1   
    34   22   32 1   
    35   23   33 1   
    36   23   34 1   
    37   23   49 1   
    38   23   50 1   
    39   24   28 1   
    40   24   51 1   
    41   24   52 1   
    42   25   29 1   
    43   25   53 1   
    44   25   54 1   
    45   26   29 1   
    46   26   55 1   
    47   26   56 1   
    48   27   29 2   
    49   27   57 1   
    50   27   58 1   
    51   28   59 1   
@<TRIPOS>SUBSTRUCTURE
     1 N44         1 TEMP              0 ****  ****    0 ROOT
