@<TRIPOS>MOLECULE
N44
   61    61     1     0     0
SMALL
bcc


@<TRIPOS>ATOM
      1 C1          3.6120    0.9310   -0.1490 c3        1 N44     -0.218000
      2 C2          3.1360    6.5340    4.6780 c1        1 N44     -0.045000
      3 C3          4.2430    0.6360    1.1440 c2        1 N44      0.024500
      4 C4          2.3090    1.6070   -0.0630 c2        1 N44      0.024500
      5 C5          3.0670    7.1450    5.9590 c2        1 N44     -0.237000
      6 C6          2.7200    5.1430    4.5330 c3        1 N44     -0.177000
      7 C7          3.6640    0.9890    2.3330 c2        1 N44     -0.212000
      8 C8          1.7520    1.9450    1.1360 c2        1 N44     -0.212000
      9 C9          2.3620    6.5870    6.9730 c2        1 N44     -0.009000
     10 C10         6.2330   -3.4250    7.9550 c3        1 N44     -0.200000
     11 C11         5.2670   -4.4230    8.3880 c1        1 N44     -0.102000
     12 C12         2.1820    4.4390    5.7390 c2        1 N44     -0.079000
     13 C13         4.3830   -2.0480    7.0260 c2        1 N44     -0.213000
     14 C14         2.4180    1.6610    2.3610 c2        1 N44      0.207000
     15 C15         1.7230    5.2810    6.8430 c2        1 N44     -0.098000
     16 C16         5.7190   -2.2200    7.2520 c2        1 N44      0.060000
     17 C17         3.9130   -4.1760    8.1510 c2        1 N44     -0.265000
     18 C18         3.4430   -3.0430    7.5130 c2        1 N44      0.215000
     19 C20         7.4430   -1.2530    2.0610 c1        1 N44     -0.231500
     20 C21         2.1440    3.0770    5.7860 c2        1 N44      0.060000
     21 C23         3.1960   -6.2050    9.1710 c1        1 N44      0.001000
     22 C24         1.7410    2.0570    3.6320 c3        1 N44     -0.071000
     23 C25         0.7490    4.9230    7.7020 c2        1 N44     -0.127000
     24 C26         6.7410   -1.2140    6.8050 c3        1 N44     -0.108000
     25 C27         7.3480    0.8980    7.6940 c2        1 N44     -0.091000
     26 N28         2.6380    2.2270    4.7530 n3        1 N44     -0.297000
     27 N29         6.4300    0.1140    7.2800 n2        1 N44     -0.204000
     28 O30         2.8090   -0.1750    6.7670 oh        1 N44     -0.310000
     29 O31         1.6010    2.4180    6.8840 oh        1 N44     -0.290000
     30 O32         4.2350   -0.4790    5.1720 o         1 N44     -0.374000
     31 O33         2.9210   -5.1150    8.5800 os        1 N44     -0.042000
     32 O34         2.1310   -2.7630    7.3040 oh        1 N44     -0.256000
     33 H1          4.3210    1.5650   -0.7730 hc        1 N44      0.204500
     34 H2          3.6260    4.5980    4.1320 hc        1 N44      0.133500
     35 H3          3.4960   -0.0340   -0.7400 hc        1 N44      0.204500
     36 H4          1.7980    1.8390   -1.0160 ha        1 N44      0.185000
     37 H5          3.5570    8.1260    6.0790 ha        1 N44      0.159000
     38 H6          1.9420    5.1260    3.7150 hc        1 N44      0.133500
     39 H7          4.1780    0.7420    3.2860 ha        1 N44      0.202000
     40 H8          0.7730    2.4580    1.1730 ha        1 N44      0.202000
     41 H9          2.2110    7.1120    7.9320 ha        1 N44      0.139000
     42 H10         6.8110   -3.1030    8.8760 hc        1 N44      0.184000
     43 H11         6.9880   -3.9490    7.2920 hc        1 N44      0.184000
     44 H19         7.0430    1.9100    8.0230 h4        1 N44      0.128500
     45 H19A        5.2190    0.1080    1.1330 ha        1 N44      0.185000
     46 H20         8.2100   -1.4230    1.3450 ha        1 N44      0.233000
     47 H23         1.5910   -3.5010    7.6500 ho        1 N44      0.281000
     48 H23A        4.2320   -6.5170    9.4040 ha        1 N44      0.091000
     49 H24         0.9510    1.2570    3.8150 h1        1 N44      0.138500
     50 H24A        1.1850    3.0290    3.4570 h1        1 N44      0.138500
     51 H25         0.2130    3.9660    7.6300 ha        1 N44      0.135500
     52 H25A        2.3220    1.9480    7.3350 ho        1 N44      0.229000
     53 H26         7.7690   -1.5730    7.1090 h1        1 N44      0.115000
     54 H26A        0.4320    5.5820    8.5230 ha        1 N44      0.135500
     55 H27         8.4310    0.6770    7.7600 h4        1 N44      0.128500
     56 H27A        6.7150   -1.1800    5.6710 h1        1 N44      0.115000
     57 HN28        2.9500    1.3420    5.1220 hn        1 N44      0.216000
     58 C19         6.5910   -1.0700    2.8800 c1        1 N44     -0.231500
     59 H282        5.8410   -0.9170    3.6210 ha        1 N44      0.233000
     60 H291        2.4600   -0.5770    7.5780 ho        1 N44      0.261000
     61 C22         3.8540   -0.8970    6.2720 c2        1 N44      0.411000
@<TRIPOS>BOND
     1    1    3 1   
     2    1    4 1   
     3    1   33 1   
     4    1   35 1   
     5    2    5 1   
     6    2    6 1   
     7    3    7 1   
     8    3   45 1   
     9    4    8 1   
    10    4   36 1   
    11    5    9 1   
    12    5   37 1   
    13    6   12 1   
    14    6   34 1   
    15    6   38 1   
    16    7   14 1   
    17    7   39 1   
    18    8   14 1   
    19    8   40 1   
    20    9   15 1   
    21    9   41 1   
    22   10   11 1   
    23   10   16 1   
    24   10   42 1   
    25   10   43 1   
    26   11   17 1   
    27   12   15 1   
    28   12   20 1   
    29   13   16 1   
    30   13   18 1   
    31   13   61 1   
    32   14   22 1   
    33   15   23 1   
    34   16   24 1   
    35   17   18 1   
    36   17   31 1   
    37   18   32 1   
    38   19   46 1   
    39   19   58 1   
    40   20   26 1   
    41   20   29 1   
    42   21   31 1   
    43   21   48 1   
    44   22   26 1   
    45   22   49 1   
    46   22   50 1   
    47   23   51 1   
    48   23   54 1   
    49   24   27 1   
    50   24   53 1   
    51   24   56 1   
    52   25   27 1   
    53   25   44 1   
    54   25   55 1   
    55   26   57 1   
    56   28   60 1   
    57   28   61 1   
    58   29   52 1   
    59   30   61 1   
    60   32   47 1   
    61   58   59 1   
@<TRIPOS>SUBSTRUCTURE
     1 N44         1 TEMP              0 ****  ****    0 ROOT
