@<TRIPOS>MOLECULE
N4A
   66    70     1     0     0
SMALL
bcc


@<TRIPOS>ATOM
      1 O4         -0.3980   -0.9720   -3.8150 o         1 N4A     -0.639300
      2 S1          0.3800   -0.3370   -2.8340 sy        1 N4A      1.528200
      3 O3         -0.2970    0.5120   -1.9540 o         1 N4A     -0.639300
      4 C18         1.3310   -1.4230   -2.0220 ca        1 N4A     -0.438500
      5 C23         1.8570   -1.0780   -0.7450 ca        1 N4A     -0.060000
      6 C22         2.5860   -1.9750   -0.0120 ca        1 N4A     -0.123000
      7 C21         2.8340   -3.2850   -0.5100 ca        1 N4A      0.021000
      8 C27         3.5740   -4.2430    0.2330 ca        1 N4A     -0.139000
      9 C26         3.7770   -5.5060   -0.2710 ca        1 N4A     -0.081000
     10 C25         3.2560   -5.8680   -1.5380 ca        1 N4A     -0.123000
     11 C24         2.5400   -4.9610   -2.2790 ca        1 N4A     -0.098000
     12 C20         2.3130   -3.6470   -1.7810 ca        1 N4A     -0.083000
     13 C19         1.5650   -2.6960   -2.5140 ca        1 N4A      0.054000
     14 N2          1.5640    0.5680   -3.6090 nu        1 N4A     -0.736500
     15 C1          1.3620    1.4560   -4.6500 ca        1 N4A      0.130300
     16 C2          2.2810    2.5280   -4.9240 ca        1 N4A      0.516600
     17 O1          3.3800    2.6480   -4.0580 os        1 N4A     -0.352400
     18 C7          4.6360    2.7360   -4.6280 ca        1 N4A      0.186100
     19 C12         4.9640    2.2500   -5.9020 ca        1 N4A     -0.151500
     20 C11         6.2840    2.3200   -6.3380 ca        1 N4A     -0.062000
     21 C10         7.2710    2.8640   -5.5060 ca        1 N4A     -0.301900
     22 C28         8.6540    2.9780   -6.0040 ce        1 N4A      0.595800
     23 N4          9.5960    2.0700   -5.2520 nz        1 N4A     -0.825600
     24 N3          9.1690    3.6830   -6.9340 n2        1 N4A     -0.707100
     25 C9          6.9360    3.3490   -4.2320 ca        1 N4A     -0.062000
     26 C8          5.6240    3.2920   -3.7880 ca        1 N4A     -0.151500
     27 C5          0.2310    1.3870   -5.5070 ca        1 N4A     -0.144000
     28 C4          0.0460    2.3430   -6.4950 ca        1 N4A     -0.177300
     29 C3          1.0020    3.3730   -6.6230 ca        1 N4A      0.531600
     30 N1          2.1160    3.4830   -5.8640 nb        1 N4A     -0.652000
     31 O2          0.8750    4.2770   -7.6920 os        1 N4A     -0.337400
     32 C6          0.1170    5.4040   -7.4530 ca        1 N4A      0.186100
     33 C17        -0.0730    6.2280   -8.5830 ca        1 N4A     -0.163000
     34 C16        -0.8670    7.3600   -8.4690 ca        1 N4A     -0.056000
     35 C15        -1.4670    7.6790   -7.2400 ca        1 N4A     -0.306900
     36 C29        -2.3820    8.8330   -7.1660 ce        1 N4A      0.595800
     37 N6         -3.5270    9.0470   -7.6870 n2        1 N4A     -0.706100
     38 N5         -1.8170    9.9440   -6.3150 nz        1 N4A     -0.825600
     39 C14        -1.2540    6.8700   -6.1170 ca        1 N4A     -0.056000
     40 C13        -0.4610    5.7310   -6.2170 ca        1 N4A     -0.163000
     41 H1          1.6330   -0.0750   -0.3400 ha        1 N4A      0.153000
     42 H2          2.9780   -1.7060    0.9820 ha        1 N4A      0.151000
     43 H3          3.9690   -3.9590    1.2210 ha        1 N4A      0.149000
     44 H4          4.3420   -6.2550    0.3070 ha        1 N4A      0.152000
     45 H5          3.4280   -6.8890   -1.9130 ha        1 N4A      0.153000
     46 H6          2.1230   -5.2360   -3.2600 ha        1 N4A      0.146000
     47 H7          1.1430   -2.9940   -3.4940 ha        1 N4A      0.160000
     48 H8          2.4870    0.5990   -3.2360 hn        1 N4A      0.454800
     49 H9          4.1900    1.8220   -6.5590 ha        1 N4A      0.177500
     50 H10         6.5430    1.9450   -7.3420 ha        1 N4A      0.149500
     51 H11         9.3310    1.0990   -5.4460 hn        1 N4A      0.471133
     52 H12         9.4870    2.2550   -4.2500 hn        1 N4A      0.471133
     53 H13         8.5780    4.3030   -7.4490 hn        1 N4A      0.490400
     54 H14         7.7040    3.8050   -3.5860 ha        1 N4A      0.149500
     55 H15         5.3400    3.6750   -2.7940 ha        1 N4A      0.177500
     56 H16        -0.5040    0.5650   -5.4030 ha        1 N4A      0.208000
     57 H17        -0.8160    2.2970   -7.1780 ha        1 N4A      0.179000
     58 H18         0.3990    5.9560   -9.5410 ha        1 N4A      0.177500
     59 H19        -1.0320    7.9970   -9.3530 ha        1 N4A      0.150000
     60 H20        -3.9420    8.3330   -8.2510 hn        1 N4A      0.493400
     61 H21        -1.5630    9.5500   -5.4040 hn        1 N4A      0.469800
     62 H22        -2.4890   10.7120   -6.1830 hn        1 N4A      0.469800
     63 H23        -1.7340    7.1060   -5.1540 ha        1 N4A      0.150000
     64 H24        -0.3000    5.0900   -5.3370 ha        1 N4A      0.177500
     65 H43        10.5770    2.2160   -5.5260 hn        1 N4A      0.471133
     66 H53        -0.9750   10.3040   -6.7740 hn        1 N4A      0.469800
@<TRIPOS>BOND
     1    1    2 2   
     2    2    3 2   
     3    2    4 1   
     4    2   14 1   
     5    4    5 ar  
     6    4   13 ar  
     7    5    6 ar  
     8    5   41 1   
     9    6    7 ar  
    10    6   42 1   
    11    7    8 ar  
    12    7   12 ar  
    13    8    9 ar  
    14    8   43 1   
    15    9   10 ar  
    16    9   44 1   
    17   10   11 ar  
    18   10   45 1   
    19   11   12 ar  
    20   11   46 1   
    21   12   13 ar  
    22   13   47 1   
    23   14   15 1   
    24   14   48 1   
    25   15   16 ar  
    26   15   27 ar  
    27   16   17 1   
    28   16   30 ar  
    29   17   18 1   
    30   18   19 ar  
    31   18   26 ar  
    32   19   20 ar  
    33   19   49 1   
    34   20   21 ar  
    35   20   50 1   
    36   21   22 1   
    37   21   25 ar  
    38   22   23 1   
    39   22   24 2   
    40   23   51 1   
    41   23   52 1   
    42   23   65 1   
    43   24   53 1   
    44   25   26 ar  
    45   25   54 1   
    46   26   55 1   
    47   27   28 ar  
    48   27   56 1   
    49   28   29 ar  
    50   28   57 1   
    51   29   30 ar  
    52   29   31 1   
    53   31   32 1   
    54   32   33 ar  
    55   32   40 ar  
    56   33   34 ar  
    57   33   58 1   
    58   34   35 ar  
    59   34   59 1   
    60   35   36 1   
    61   35   39 ar  
    62   36   37 2   
    63   36   38 1   
    64   37   60 1   
    65   38   61 1   
    66   38   62 1   
    67   38   66 1   
    68   39   40 ar  
    69   39   63 1   
    70   40   64 1   
@<TRIPOS>SUBSTRUCTURE
     1 N4A         1 TEMP              0 ****  ****    0 ROOT
