@<TRIPOS>MOLECULE
N4A
   67    70     1     0     0
SMALL
bcc


@<TRIPOS>ATOM
      1 O4          0.0100    0.2840   -2.5130 o         1 N4A     -0.443900
      2 S1          1.1390   -0.0520   -1.8310 s4        1 N4A      1.684300
      3 O3          1.8850    0.8700   -1.1690 o         1 N4A     -0.443900
      4 C18         1.4110   -1.5500   -1.5860 ca        1 N4A     -0.646500
      5 C23         2.5330   -1.9500   -0.7740 ca        1 N4A     -0.056000
      6 C22         2.7720   -3.2560   -0.4690 ca        1 N4A     -0.101000
      7 C21         1.9120   -4.2900   -0.9470 ca        1 N4A      0.069000
      8 C27         2.1260   -5.6500   -0.6300 ca        1 N4A     -0.151000
      9 C26         1.2610   -6.6180   -1.1030 ca        1 N4A     -0.015000
     10 C25         0.1530   -6.2640   -1.9120 ca        1 N4A     -0.114000
     11 C24        -0.0790   -4.9510   -2.2380 ca        1 N4A     -0.074000
     12 C20         0.7940   -3.9260   -1.7620 ca        1 N4A     -0.102000
     13 C19         0.5730   -2.5780   -2.0630 ca        1 N4A      0.117000
     14 N2          2.5160    0.1640   -3.8170 nh        1 N4A     -0.855200
     15 C1          2.2690    1.3550   -4.5690 ca        1 N4A     -0.121700
     16 C2          3.2910    2.3170   -4.8630 ca        1 N4A      0.653600
     17 O1          4.5450    2.0140   -4.3440 os        1 N4A     -0.385400
     18 C7          5.6360    2.8180   -4.6840 ca        1 N4A      0.151100
     19 C12         6.0610    2.9660   -6.0100 ca        1 N4A     -0.114000
     20 C11         7.2450    3.6570   -6.2650 ca        1 N4A     -0.076000
     21 C10         7.9880    4.1880   -5.2040 ca        1 N4A     -0.258900
     22 C28         9.2050    4.9770   -5.4950 ce        1 N4A      0.580800
     23 N4         10.4670    4.2420   -5.1230 n4        1 N4A     -0.822600
     24 N3          9.3530    6.1410   -5.9960 n2        1 N4A     -0.688100
     25 C9          7.5510    4.0370   -3.8810 ca        1 N4A     -0.076000
     26 C8          6.3670    3.3560   -3.6120 ca        1 N4A     -0.114000
     27 C5          0.9770    1.6470   -5.0530 ca        1 N4A     -0.029000
     28 C4          0.7490    2.8130   -5.7750 ca        1 N4A     -0.288300
     29 C3          1.8370    3.6810   -6.0080 ca        1 N4A      0.658600
     30 N1          3.0980    3.4630   -5.5510 nb        1 N4A     -0.701000
     31 O2          1.7550    4.8100   -6.8200 os        1 N4A     -0.334400
     32 C6          0.5180    5.4390   -6.9220 ca        1 N4A      0.139100
     33 C17         0.2040    5.9230   -8.2050 ca        1 N4A     -0.138000
     34 C16        -0.9480    6.6830   -8.3760 ca        1 N4A     -0.066500
     35 C15        -1.7810    6.9530   -7.2810 ca        1 N4A     -0.266900
     36 C29        -3.0400    7.7050   -7.4750 ce        1 N4A      0.581800
     37 N6         -4.2600    7.3340   -7.4220 n2        1 N4A     -0.688100
     38 N5         -2.7960    9.1580   -7.7880 n4        1 N4A     -0.821600
     39 C14        -1.4620    6.4630   -6.0080 ca        1 N4A     -0.066500
     40 C13        -0.3090    5.7030   -5.8230 ca        1 N4A     -0.138000
     41 H1          3.1950   -1.1570   -0.3790 ha        1 N4A      0.164000
     42 H2          3.6310   -3.5390    0.1650 ha        1 N4A      0.178000
     43 H3          2.9860   -5.9270    0.0020 ha        1 N4A      0.173000
     44 H4          1.4240   -7.6810   -0.8510 ha        1 N4A      0.179000
     45 H5         -0.5220   -7.0600   -2.2720 ha        1 N4A      0.178000
     46 H6         -0.9420   -4.6690   -2.8630 ha        1 N4A      0.159000
     47 H7         -0.3050   -2.3090   -2.6850 ha        1 N4A      0.164000
     48 H8          2.3730   -0.6390   -4.4120 hn        1 N4A      0.409300
     49 H9          5.4680    2.5520   -6.8410 ha        1 N4A      0.177500
     50 H10         7.5840    3.7830   -7.3070 ha        1 N4A      0.160000
     51 H11        10.3980    3.9580   -4.1410 hn        1 N4A      0.475467
     52 H12        10.5450    3.4080   -5.7150 hn        1 N4A      0.475467
     53 H13         8.5440    6.6680   -6.2530 hn        1 N4A      0.493400
     54 H14         8.1210    4.4760   -3.0460 ha        1 N4A      0.160000
     55 H15         6.0060    3.2350   -2.5780 ha        1 N4A      0.177500
     56 H16         0.1350    0.9570   -4.8570 ha        1 N4A      0.183000
     57 H17        -0.2510    3.0470   -6.1700 ha        1 N4A      0.178000
     58 H18         0.8720    5.7030   -9.0550 ha        1 N4A      0.178500
     59 H19        -1.2070    7.0450   -9.3850 ha        1 N4A      0.160500
     60 H20        -4.4740    6.3780   -7.2270 hn        1 N4A      0.493400
     61 H21        -2.3550    9.5980   -6.9730 hn        1 N4A      0.475467
     62 H22        -2.1610    9.2150   -8.5910 hn        1 N4A      0.475467
     63 H23        -2.1160    6.6740   -5.1460 ha        1 N4A      0.160500
     64 H24        -0.0480    5.3200   -4.8230 ha        1 N4A      0.178500
     65 H221        3.4710    0.1580   -3.4910 hn        1 N4A      0.409300
     66 H43        11.3050    4.8280   -5.2520 hn        1 N4A      0.475467
     67 H53        -3.6720    9.6560   -8.0080 hn        1 N4A      0.475467
@<TRIPOS>BOND
     1    1    2 1   
     2    2    3 1   
     3    2    4 1   
     4    4    5 ar  
     5    4   13 ar  
     6    5    6 ar  
     7    5   41 1   
     8    6    7 ar  
     9    6   42 1   
    10    7    8 ar  
    11    7   12 ar  
    12    8    9 ar  
    13    8   43 1   
    14    9   10 ar  
    15    9   44 1   
    16   10   11 ar  
    17   10   45 1   
    18   11   12 ar  
    19   11   46 1   
    20   12   13 ar  
    21   13   47 1   
    22   14   15 1   
    23   14   48 1   
    24   14   65 1   
    25   15   16 ar  
    26   15   27 ar  
    27   16   17 1   
    28   16   30 ar  
    29   17   18 1   
    30   18   19 ar  
    31   18   26 ar  
    32   19   20 ar  
    33   19   49 1   
    34   20   21 ar  
    35   20   50 1   
    36   21   22 1   
    37   21   25 ar  
    38   22   23 1   
    39   22   24 2   
    40   23   51 1   
    41   23   52 1   
    42   23   66 1   
    43   24   53 1   
    44   25   26 ar  
    45   25   54 1   
    46   26   55 1   
    47   27   28 ar  
    48   27   56 1   
    49   28   29 ar  
    50   28   57 1   
    51   29   30 ar  
    52   29   31 1   
    53   31   32 1   
    54   32   33 ar  
    55   32   40 ar  
    56   33   34 ar  
    57   33   58 1   
    58   34   35 ar  
    59   34   59 1   
    60   35   36 1   
    61   35   39 ar  
    62   36   37 2   
    63   36   38 1   
    64   37   60 1   
    65   38   61 1   
    66   38   62 1   
    67   38   67 1   
    68   39   40 ar  
    69   39   63 1   
    70   40   64 1   
@<TRIPOS>SUBSTRUCTURE
     1 N4A         1 TEMP              0 ****  ****    0 ROOT
