@<TRIPOS>MOLECULE
N4A
   66    70     1     0     0
SMALL
bcc


@<TRIPOS>ATOM
      1 O4         -0.4230   -0.9330   -3.7390 o         1 N4A     -0.639300
      2 S1          0.4000   -0.3200   -2.7820 sy        1 N4A      1.528200
      3 O3         -0.2310    0.5330   -1.8710 o         1 N4A     -0.639300
      4 C18         1.3600   -1.4300   -2.0140 ca        1 N4A     -0.438500
      5 C23         1.9380   -1.1040   -0.7530 ca        1 N4A     -0.060000
      6 C22         2.6770   -2.0200   -0.0540 ca        1 N4A     -0.123000
      7 C21         2.8840   -3.3300   -0.5710 ca        1 N4A      0.021000
      8 C27         3.6330   -4.3070    0.1370 ca        1 N4A     -0.139000
      9 C26         3.7950   -5.5690   -0.3840 ca        1 N4A     -0.081000
     10 C25         3.2220   -5.9120   -1.6330 ca        1 N4A     -0.123000
     11 C24         2.4950   -4.9860   -2.3410 ca        1 N4A     -0.098000
     12 C20         2.3100   -3.6720   -1.8250 ca        1 N4A     -0.083000
     13 C19         1.5530   -2.7020   -2.5230 ca        1 N4A      0.054000
     14 N2          1.5710    0.5720   -3.5910 nh        1 N4A     -0.736500
     15 C1          1.3490    1.4720   -4.6170 ca        1 N4A      0.130300
     16 C2          2.2750    2.5320   -4.9130 ca        1 N4A      0.516600
     17 O1          3.4060    2.6260   -4.0860 os        1 N4A     -0.352400
     18 C7          4.6430    2.6970   -4.6990 ca        1 N4A      0.186100
     19 C12         4.9170    2.2170   -5.9880 ca        1 N4A     -0.151500
     20 C11         6.2220    2.2690   -6.4690 ca        1 N4A     -0.062000
     21 C10         7.2460    2.7880   -5.6670 ca        1 N4A     -0.301900
     22 C28         8.6130    2.8820   -6.2120 ce        1 N4A      0.595800
     23 N4          9.5650    1.9520   -5.5010 n4        1 N4A     -0.825600
     24 N3          9.1080    3.5870   -7.1540 n2        1 N4A     -0.707100
     25 C9          6.9650    3.2680   -4.3790 ca        1 N4A     -0.062000
     26 C8          5.6680    3.2290   -3.8890 ca        1 N4A     -0.151500
     27 C5          0.1870    1.4300   -5.4340 ca        1 N4A     -0.144000
     28 C4         -0.0170    2.3980   -6.4070 ca        1 N4A     -0.177300
     29 C3          0.9520    3.4130   -6.5590 ca        1 N4A      0.531600
     30 N1          2.0930    3.4970   -5.8400 nb        1 N4A     -0.652000
     31 O2          0.8030    4.3290   -7.6160 os        1 N4A     -0.337400
     32 C6          0.0730    5.4670   -7.3400 ca        1 N4A      0.186100
     33 C17        -0.1420    6.3040   -8.4560 ca        1 N4A     -0.163000
     34 C16        -0.9110    7.4480   -8.3040 ca        1 N4A     -0.056000
     35 C15        -1.4610    7.7660   -7.0510 ca        1 N4A     -0.306900
     36 C29        -2.3530    8.9350   -6.9350 ce        1 N4A      0.595800
     37 N6         -3.5110    9.1740   -7.4140 n2        1 N4A     -0.706100
     38 N5         -1.7390   10.0280   -6.0930 n4        1 N4A     -0.825600
     39 C14        -1.2240    6.9430   -5.9440 ca        1 N4A     -0.056000
     40 C13        -0.4550    5.7920   -6.0820 ca        1 N4A     -0.163000
     41 H1          1.7480   -0.1010   -0.3330 ha        1 N4A      0.153000
     42 H2          3.1100   -1.7650    0.9260 ha        1 N4A      0.151000
     43 H3          4.0680   -4.0380    1.1120 ha        1 N4A      0.149000
     44 H4          4.3670   -6.3320    0.1680 ha        1 N4A      0.152000
     45 H5          3.3620   -6.9320   -2.0230 ha        1 N4A      0.153000
     46 H6          2.0380   -5.2450   -3.3080 ha        1 N4A      0.146000
     47 H7          1.0910   -2.9840   -3.4890 ha        1 N4A      0.160000
     48 H8          2.5080    0.5830   -3.2510 hn        1 N4A      0.454800
     49 H9          4.1140    1.8080   -6.6200 ha        1 N4A      0.177500
     50 H10         6.4390    1.8980   -7.4840 ha        1 N4A      0.149500
     51 H11         9.2760    0.9870   -5.6940 hn        1 N4A      0.471133
     52 H12         9.4950    2.1310   -4.4940 hn        1 N4A      0.471133
     53 H13         8.5110    4.2210   -7.6440 hn        1 N4A      0.490400
     54 H14         7.7630    3.7040   -3.7560 ha        1 N4A      0.149500
     55 H15         5.4260    3.6080   -2.8830 ha        1 N4A      0.177500
     56 H16        -0.5580    0.6190   -5.3110 ha        1 N4A      0.208000
     57 H17        -0.9020    2.3720   -7.0590 ha        1 N4A      0.179000
     58 H18         0.2920    6.0330   -9.4320 ha        1 N4A      0.177500
     59 H19        -1.0960    8.0970   -9.1750 ha        1 N4A      0.150000
     60 H20        -3.9580    8.4740   -7.9700 hn        1 N4A      0.493400
     61 H21        -0.9060   10.3770   -6.5780 hn        1 N4A      0.469800
     62 H22        -2.3920   10.8060   -5.9330 hn        1 N4A      0.469800
     63 H23        -1.6650    7.1790   -4.9630 ha        1 N4A      0.150000
     64 H24        -0.2740    5.1400   -5.2130 ha        1 N4A      0.177500
     65 H43        10.5380    2.0830   -5.8080 hn        1 N4A      0.471133
     66 H53        -1.4620    9.6200   -5.1950 hn        1 N4A      0.469800
@<TRIPOS>BOND
     1    1    2 2   
     2    2    3 2   
     3    2    4 1   
     4    2   14 1   
     5    4    5 ar  
     6    4   13 ar  
     7    5    6 ar  
     8    5   41 1   
     9    6    7 ar  
    10    6   42 1   
    11    7    8 ar  
    12    7   12 ar  
    13    8    9 ar  
    14    8   43 1   
    15    9   10 ar  
    16    9   44 1   
    17   10   11 ar  
    18   10   45 1   
    19   11   12 ar  
    20   11   46 1   
    21   12   13 ar  
    22   13   47 1   
    23   14   15 1   
    24   14   48 1   
    25   15   16 ar  
    26   15   27 ar  
    27   16   17 1   
    28   16   30 ar  
    29   17   18 1   
    30   18   19 ar  
    31   18   26 ar  
    32   19   20 ar  
    33   19   49 1   
    34   20   21 ar  
    35   20   50 1   
    36   21   22 1   
    37   21   25 ar  
    38   22   23 1   
    39   22   24 2   
    40   23   51 1   
    41   23   52 1   
    42   23   65 1   
    43   24   53 1   
    44   25   26 ar  
    45   25   54 1   
    46   26   55 1   
    47   27   28 ar  
    48   27   56 1   
    49   28   29 ar  
    50   28   57 1   
    51   29   30 ar  
    52   29   31 1   
    53   31   32 1   
    54   32   33 ar  
    55   32   40 ar  
    56   33   34 ar  
    57   33   58 1   
    58   34   35 ar  
    59   34   59 1   
    60   35   36 1   
    61   35   39 ar  
    62   36   37 2   
    63   36   38 1   
    64   37   60 1   
    65   38   61 1   
    66   38   62 1   
    67   38   66 1   
    68   39   40 ar  
    69   39   63 1   
    70   40   64 1   
@<TRIPOS>SUBSTRUCTURE
     1 N4A         1 TEMP              0 ****  ****    0 ROOT
