@<TRIPOS>MOLECULE
N4B
   24    24     1     0     0
SMALL
bcc


@<TRIPOS>ATOM
      1 C1         -0.0020   -0.0140   -0.0030 ca        1 N4B     -0.076300
      2 C2          1.3980   -0.0040    0.0060 ca        1 N4B     -0.128000
      3 C3          2.0940    0.0170    1.2130 ca        1 N4B     -0.128000
      4 C4          1.3990    0.0300    2.4220 ca        1 N4B     -0.133000
      5 C5          0.0050    0.0210    2.4210 ca        1 N4B     -0.128000
      6 C6         -0.6930   -0.0010    1.2140 ca        1 N4B     -0.128000
      7 C1'        -0.7460   -0.0340   -1.2910 c3        1 N4B     -0.038100
      8 C2'        -1.0150   -1.4520   -1.7600 c3        1 N4B     -0.076400
      9 C3'        -1.7720   -1.4590   -3.0700 c3        1 N4B     -0.081400
     10 C4'        -2.0440   -2.8640   -3.5420 c3        1 N4B     -0.092100
     11 H2          1.9490   -0.0140   -0.9460 ha        1 N4B      0.130500
     12 H3          3.1940    0.0250    1.2110 ha        1 N4B      0.130000
     13 H4          1.9490    0.0480    3.3740 ha        1 N4B      0.130000
     14 H5         -0.5470    0.0320    3.3720 ha        1 N4B      0.130000
     15 H6         -1.7940   -0.0070    1.2160 ha        1 N4B      0.130500
     16 H1'1       -1.7220    0.5090   -1.1730 hc        1 N4B      0.047700
     17 H1'2       -0.1570    0.5110   -2.0770 hc        1 N4B      0.047700
     18 H2'1       -0.0420   -1.9970   -1.8820 hc        1 N4B      0.044200
     19 H2'2       -1.6060   -1.9990   -0.9790 hc        1 N4B      0.044200
     20 H3'1       -1.1790   -0.9080   -3.8480 hc        1 N4B      0.038200
     21 H3'2       -2.7430   -0.9100   -2.9450 hc        1 N4B      0.038200
     22 H4'1       -2.6540   -3.4210   -2.7910 hc        1 N4B      0.033033
     23 H4'2       -1.0870   -3.4200   -3.6960 hc        1 N4B      0.033033
     24 H4'3       -2.6020   -2.8480   -4.5090 hc        1 N4B      0.033033
@<TRIPOS>BOND
     1    1    2 ar  
     2    1    6 ar  
     3    1    7 1   
     4    2    3 ar  
     5    2   11 1   
     6    3    4 ar  
     7    3   12 1   
     8    4    5 ar  
     9    4   13 1   
    10    5    6 ar  
    11    5   14 1   
    12    6   15 1   
    13    7    8 1   
    14    7   16 1   
    15    7   17 1   
    16    8    9 1   
    17    8   18 1   
    18    8   19 1   
    19    9   10 1   
    20    9   20 1   
    21    9   21 1   
    22   10   22 1   
    23   10   23 1   
    24   10   24 1   
@<TRIPOS>SUBSTRUCTURE
     1 N4B         1 TEMP              0 ****  ****    0 ROOT
