@<TRIPOS>MOLECULE
N4B
   24    24     1     0     0
SMALL
bcc


@<TRIPOS>ATOM
      1 C1         -0.0010   -0.0140   -0.0030 ca        1 N4B     -0.077300
      2 C2          1.3990   -0.0040    0.0060 ca        1 N4B     -0.128000
      3 C3          2.0950    0.0170    1.2140 ca        1 N4B     -0.128000
      4 C4          1.3990    0.0290    2.4230 ca        1 N4B     -0.133000
      5 C5          0.0050    0.0190    2.4210 ca        1 N4B     -0.128000
      6 C6         -0.6930   -0.0020    1.2140 ca        1 N4B     -0.128000
      7 C1'        -0.7450   -0.0340   -1.2920 c3        1 N4B     -0.038100
      8 C2'        -1.0160   -1.4510   -1.7590 c3        1 N4B     -0.076400
      9 C3'        -1.7720   -1.4580   -3.0710 c3        1 N4B     -0.080400
     10 C4'        -2.0450   -2.8630   -3.5420 c3        1 N4B     -0.092100
     11 H2          1.9500   -0.0130   -0.9460 ha        1 N4B      0.131000
     12 H3          3.1950    0.0250    1.2120 ha        1 N4B      0.130000
     13 H4          1.9490    0.0460    3.3750 ha        1 N4B      0.130000
     14 H5         -0.5470    0.0290    3.3720 ha        1 N4B      0.130000
     15 H6         -1.7930   -0.0090    1.2160 ha        1 N4B      0.131000
     16 H1'1       -1.7210    0.5100   -1.1740 hc        1 N4B      0.046700
     17 H1'2       -0.1560    0.5110   -2.0780 hc        1 N4B      0.046700
     18 H2'1       -0.0430   -1.9980   -1.8810 hc        1 N4B      0.044700
     19 H2'2       -1.6080   -1.9970   -0.9790 hc        1 N4B      0.044700
     20 H3'1       -1.1780   -0.9080   -3.8480 hc        1 N4B      0.037700
     21 H3'2       -2.7420   -0.9080   -2.9460 hc        1 N4B      0.037700
     22 H4'1       -2.6560   -3.4200   -2.7920 hc        1 N4B      0.033367
     23 H4'2       -1.0890   -3.4200   -3.6960 hc        1 N4B      0.033367
     24 H4'3       -2.6020   -2.8470   -4.5100 hc        1 N4B      0.033367
@<TRIPOS>BOND
     1    1    2 ar  
     2    1    6 ar  
     3    1    7 1   
     4    2    3 ar  
     5    2   11 1   
     6    3    4 ar  
     7    3   12 1   
     8    4    5 ar  
     9    4   13 1   
    10    5    6 ar  
    11    5   14 1   
    12    6   15 1   
    13    7    8 1   
    14    7   16 1   
    15    7   17 1   
    16    8    9 1   
    17    8   18 1   
    18    8   19 1   
    19    9   10 1   
    20    9   20 1   
    21    9   21 1   
    22   10   22 1   
    23   10   23 1   
    24   10   24 1   
@<TRIPOS>SUBSTRUCTURE
     1 N4B         1 TEMP              0 ****  ****    0 ROOT
