@<TRIPOS>MOLECULE
N4B
   24    24     1     0     0
SMALL
bcc


@<TRIPOS>ATOM
      1 C1          0.0920    0.4270   -0.5730 ca        1 N4B     -0.076300
      2 C2         -1.1330    0.0410   -1.1300 ca        1 N4B     -0.128000
      3 C3         -1.1970   -0.4120   -2.4460 ca        1 N4B     -0.128000
      4 C4         -0.0370   -0.4830   -3.2190 ca        1 N4B     -0.133000
      5 C5          1.1860   -0.0990   -2.6700 ca        1 N4B     -0.128000
      6 C6          1.2510    0.3540   -1.3530 ca        1 N4B     -0.128000
      7 C1'         0.1530    0.9180    0.8310 c3        1 N4B     -0.038100
      8 C2'        -0.0210   -0.2100    1.8310 c3        1 N4B     -0.076400
      9 C3'         0.0090    0.3100    3.2520 c3        1 N4B     -0.081400
     10 C4'        -0.1610   -0.8050    4.2510 c3        1 N4B     -0.092100
     11 H2         -2.0480    0.0960   -0.5210 ha        1 N4B      0.130500
     12 H3         -2.1630   -0.7140   -2.8760 ha        1 N4B      0.130000
     13 H4         -0.0880   -0.8400   -4.2570 ha        1 N4B      0.130000
     14 H5          2.1020   -0.1530   -3.2760 ha        1 N4B      0.130000
     15 H6          2.2190    0.6560   -0.9250 ha        1 N4B      0.130500
     16 H1'1       -0.6540    1.6830    0.9910 hc        1 N4B      0.047700
     17 H1'2        1.1350    1.4300    1.0180 hc        1 N4B      0.047700
     18 H2'1        0.7930   -0.9680    1.6890 hc        1 N4B      0.044200
     19 H2'2       -0.9960   -0.7320    1.6390 hc        1 N4B      0.044200
     20 H3'1       -0.8070    1.0680    3.3900 hc        1 N4B      0.038200
     21 H3'2        0.9830    0.8370    3.4370 hc        1 N4B      0.038200
     22 H4'1       -0.1360   -0.4010    5.2920 hc        1 N4B      0.033033
     23 H4'2       -1.1370   -1.3260    4.0980 hc        1 N4B      0.033033
     24 H4'3        0.6570   -1.5580    4.1450 hc        1 N4B      0.033033
@<TRIPOS>BOND
     1    1    2 ar  
     2    1    6 ar  
     3    1    7 1   
     4    2    3 ar  
     5    2   11 1   
     6    3    4 ar  
     7    3   12 1   
     8    4    5 ar  
     9    4   13 1   
    10    5    6 ar  
    11    5   14 1   
    12    6   15 1   
    13    7    8 1   
    14    7   16 1   
    15    7   17 1   
    16    8    9 1   
    17    8   18 1   
    18    8   19 1   
    19    9   10 1   
    20    9   20 1   
    21    9   21 1   
    22   10   22 1   
    23   10   23 1   
    24   10   24 1   
@<TRIPOS>SUBSTRUCTURE
     1 N4B         1 TEMP              0 ****  ****    0 ROOT
