@<TRIPOS>MOLECULE
N4C
   69    72     1     0     0
SMALL
bcc


@<TRIPOS>ATOM
      1 O3          0.9740    1.2250    0.2870 o         1 N4C     -0.377100
      2 C8          1.7860    0.3300    0.1230 c         1 N4C      0.568700
      3 N2          2.0480   -0.5790    1.3160 n4        1 N4C     -0.678800
      4 C9          1.3860   -0.1310    2.5990 c3        1 N4C      0.118500
      5 C14         2.0930   -0.7290    3.8240 c3        1 N4C     -0.099900
      6 C13         1.4560   -0.2090    5.1000 c3        1 N4C     -0.103900
      7 C12        -0.0320   -0.5780    5.1400 c3        1 N4C      0.114500
      8 N3         -0.6770   -0.1270    6.4200 n4        1 N4C     -0.838600
      9 C11        -0.7400    0.0130    3.9140 c3        1 N4C     -0.103900
     10 C10        -0.1020   -0.5020    2.6380 c3        1 N4C     -0.099900
     11 C5          2.5220    0.0100   -1.1160 ca        1 N4C     -0.111600
     12 C1          1.8400    0.1970   -2.3260 ca        1 N4C     -0.217800
     13 C4          3.8580   -0.3960   -1.1260 ca        1 N4C     -0.217800
     14 C3          4.4730   -0.5940   -2.3970 ca        1 N4C      0.665100
     15 O2          5.8080   -0.9370   -2.2970 os        1 N4C     -0.351400
     16 C6          6.4940   -1.4770   -3.3880 ca        1 N4C      0.143100
     17 C24         7.7710   -0.9360   -3.6140 ca        1 N4C     -0.132000
     18 C23         8.6090   -1.5560   -4.5380 ca        1 N4C     -0.065500
     19 C22         8.1710   -2.6910   -5.2320 ca        1 N4C     -0.255400
     20 C26         9.0440   -3.3270   -6.2470 ce        1 N4C      0.576300
     21 N7         10.2420   -4.0080   -5.6440 n4        1 N4C     -0.819600
     22 N6          8.9380   -3.3880   -7.5180 n2        1 N4C     -0.680600
     23 C21         6.8850   -3.2010   -5.0190 ca        1 N4C     -0.065500
     24 C20         6.0360   -2.5950   -4.0930 ca        1 N4C     -0.132000
     25 N1          3.8530   -0.4220   -3.5920 nb        1 N4C     -0.680000
     26 C2          2.5530   -0.0460   -3.5290 ca        1 N4C      0.665100
     27 O1          1.7730   -0.0470   -4.6800 os        1 N4C     -0.351400
     28 C7          1.9810    0.9070   -5.6720 ca        1 N4C      0.143100
     29 C19         1.0660    0.7890   -6.7390 ca        1 N4C     -0.132000
     30 C18         1.0830    1.7410   -7.7500 ca        1 N4C     -0.065500
     31 C17         2.0070    2.7960   -7.7120 ca        1 N4C     -0.255400
     32 C25         1.9500    3.8870   -8.7110 ce        1 N4C      0.576300
     33 N5          1.7720    5.1420   -8.5610 n2        1 N4C     -0.680600
     34 N4          2.1310    3.4110  -10.1270 n4        1 N4C     -0.819600
     35 C16         2.9350    2.8790   -6.6670 ca        1 N4C     -0.065500
     36 C15         2.9270    1.9340   -5.6380 ca        1 N4C     -0.132000
     37 H1          1.7150   -1.5210    1.0750 hn        1 N4C      0.467300
     38 H2          1.4840    0.9990    2.6270 hx        1 N4C      0.130700
     39 H3          3.1790   -0.4400    3.8370 hc        1 N4C      0.091700
     40 H4          2.0330   -1.8500    3.8010 hc        1 N4C      0.091700
     41 H5          1.5830    0.9060    5.1620 hc        1 N4C      0.098200
     42 H6          2.0010   -0.6640    5.9730 hc        1 N4C      0.098200
     43 H7         -0.1360   -1.7080    5.1210 hx        1 N4C      0.123700
     44 H8         -1.6660   -0.4090    6.4310 hn        1 N4C      0.476467
     45 H9         -0.1990   -0.5560    7.2230 hn        1 N4C      0.476467
     46 H11        -0.6890    1.1360    3.9380 hc        1 N4C      0.098200
     47 H12        -1.8260   -0.2800    3.9060 hc        1 N4C      0.098200
     48 H13        -0.6400   -0.0360    1.7660 hc        1 N4C      0.091700
     49 H14        -0.2300   -1.6160    2.5730 hc        1 N4C      0.091700
     50 H15         0.7860    0.5180   -2.3680 ha        1 N4C      0.187500
     51 H16         4.4720   -0.5310   -0.2260 ha        1 N4C      0.187500
     52 H17         8.1070   -0.0480   -3.0540 ha        1 N4C      0.176500
     53 H18         9.6090   -1.1290   -4.7250 ha        1 N4C      0.163750
     54 H19         9.9200   -4.7980   -5.0730 hn        1 N4C      0.477967
     55 H20        10.8880   -4.3590   -6.3690 hn        1 N4C      0.477967
     56 H21         8.1620   -2.9490   -7.9680 hn        1 N4C      0.491400
     57 H22         6.5330   -4.0880   -5.5740 ha        1 N4C      0.163750
     58 H23         5.0260   -2.9990   -3.9220 ha        1 N4C      0.176500
     59 H24         0.3380   -0.0400   -6.7500 ha        1 N4C      0.176500
     60 H25         0.3350    1.6690   -8.5570 ha        1 N4C      0.163750
     61 H26         1.6330    5.5160   -7.6450 hn        1 N4C      0.491400
     62 H27         1.4400    2.6780  -10.3180 hn        1 N4C      0.477967
     63 H28         3.0750    3.0250  -10.2260 hn        1 N4C      0.477967
     64 H29         3.6730    3.6990   -6.6370 ha        1 N4C      0.163750
     65 H30         3.6540    2.0180   -4.8170 ha        1 N4C      0.176500
     66 H221        3.0630   -0.6290    1.4700 hn        1 N4C      0.467300
     67 H33        -0.6250    0.8940    6.5120 hn        1 N4C      0.476467
     68 H73        10.7360   -3.3360   -5.0480 hn        1 N4C      0.477967
     69 H43         2.0070    4.1800  -10.8050 hn        1 N4C      0.477967
@<TRIPOS>BOND
     1    1    2 2   
     2    2    3 1   
     3    2   11 1   
     4    3    4 1   
     5    3   37 1   
     6    3   66 1   
     7    4    5 1   
     8    4   10 1   
     9    4   38 1   
    10    5    6 1   
    11    5   39 1   
    12    5   40 1   
    13    6    7 1   
    14    6   41 1   
    15    6   42 1   
    16    7    8 1   
    17    7    9 1   
    18    7   43 1   
    19    8   44 1   
    20    8   45 1   
    21    8   67 1   
    22    9   10 1   
    23    9   46 1   
    24    9   47 1   
    25   10   48 1   
    26   10   49 1   
    27   11   12 ar  
    28   11   13 ar  
    29   12   26 ar  
    30   12   50 1   
    31   13   14 ar  
    32   13   51 1   
    33   14   15 1   
    34   14   25 ar  
    35   15   16 1   
    36   16   17 ar  
    37   16   24 ar  
    38   17   18 ar  
    39   17   52 1   
    40   18   19 ar  
    41   18   53 1   
    42   19   20 1   
    43   19   23 ar  
    44   20   21 1   
    45   20   22 2   
    46   21   54 1   
    47   21   55 1   
    48   21   68 1   
    49   22   56 1   
    50   23   24 ar  
    51   23   57 1   
    52   24   58 1   
    53   25   26 ar  
    54   26   27 1   
    55   27   28 1   
    56   28   29 ar  
    57   28   36 ar  
    58   29   30 ar  
    59   29   59 1   
    60   30   31 ar  
    61   30   60 1   
    62   31   32 1   
    63   31   35 ar  
    64   32   33 2   
    65   32   34 1   
    66   33   61 1   
    67   34   62 1   
    68   34   63 1   
    69   34   69 1   
    70   35   36 ar  
    71   35   64 1   
    72   36   65 1   
@<TRIPOS>SUBSTRUCTURE
     1 N4C         1 TEMP              0 ****  ****    0 ROOT
