@<TRIPOS>MOLECULE
N4C
   69    72     1     0     0
SMALL
bcc


@<TRIPOS>ATOM
      1 O3          0.9750    1.2260    0.2880 o         1 N4C     -0.377100
      2 C8          1.7850    0.3300    0.1220 c         1 N4C      0.568700
      3 N2          2.0430   -0.5830    1.3140 ny        1 N4C     -0.678800
      4 C9          1.3820   -0.1350    2.5970 c3        1 N4C      0.118500
      5 C14         2.0860   -0.7370    3.8220 c3        1 N4C     -0.099900
      6 C13         1.4510   -0.2180    5.0980 c3        1 N4C     -0.103900
      7 C12        -0.0380   -0.5820    5.1370 c3        1 N4C      0.114500
      8 N3         -0.6830   -0.1320    6.4180 nz        1 N4C     -0.838600
      9 C11        -0.7440    0.0140    3.9120 c3        1 N4C     -0.103900
     10 C10        -0.1070   -0.5010    2.6350 c3        1 N4C     -0.099900
     11 C5          2.5220    0.0100   -1.1170 ca        1 N4C     -0.111600
     12 C1          1.8400    0.1980   -2.3260 ca        1 N4C     -0.217800
     13 C4          3.8570   -0.3970   -1.1260 ca        1 N4C     -0.217800
     14 C3          4.4730   -0.5940   -2.3970 ca        1 N4C      0.665100
     15 O2          5.8080   -0.9380   -2.2950 os        1 N4C     -0.351400
     16 C6          6.4950   -1.4770   -3.3870 ca        1 N4C      0.143100
     17 C24         7.7710   -0.9360   -3.6110 ca        1 N4C     -0.132000
     18 C23         8.6110   -1.5560   -4.5350 ca        1 N4C     -0.065500
     19 C22         8.1730   -2.6900   -5.2310 ca        1 N4C     -0.255400
     20 C26         9.0470   -3.3260   -6.2450 ce        1 N4C      0.576300
     21 N7         10.2440   -4.0070   -5.6410 nz        1 N4C     -0.819600
     22 N6          8.9420   -3.3860   -7.5160 n2        1 N4C     -0.680600
     23 C21         6.8860   -3.2010   -5.0190 ca        1 N4C     -0.065500
     24 C20         6.0360   -2.5950   -4.0930 ca        1 N4C     -0.132000
     25 N1          3.8540   -0.4210   -3.5920 nb        1 N4C     -0.680000
     26 C2          2.5540   -0.0440   -3.5300 ca        1 N4C      0.665100
     27 O1          1.7750   -0.0440   -4.6810 os        1 N4C     -0.351400
     28 C7          1.9840    0.9110   -5.6720 ca        1 N4C      0.143100
     29 C19         1.0700    0.7930   -6.7400 ca        1 N4C     -0.132000
     30 C18         1.0880    1.7460   -7.7500 ca        1 N4C     -0.065500
     31 C17         2.0130    2.8010   -7.7110 ca        1 N4C     -0.255400
     32 C25         1.9570    3.8920   -8.7090 ce        1 N4C      0.576300
     33 N5          1.7790    5.1480   -8.5590 n2        1 N4C     -0.680600
     34 N4          2.1390    3.4170  -10.1250 nz        1 N4C     -0.819600
     35 C16         2.9390    2.8830   -6.6640 ca        1 N4C     -0.065500
     36 C15         2.9300    1.9380   -5.6370 ca        1 N4C     -0.132000
     37 H1          3.0580   -0.6360    1.4680 hn        1 N4C      0.467300
     38 H2          1.4830    0.9950    2.6280 hx        1 N4C      0.129700
     39 H3          3.1740   -0.4520    3.8360 hc        1 N4C      0.091700
     40 H4          2.0230   -1.8580    3.7960 hc        1 N4C      0.091700
     41 H5          1.9930   -0.6770    5.9710 hc        1 N4C      0.098200
     42 H6          1.5820    0.8960    5.1630 hc        1 N4C      0.098200
     43 H7         -0.1460   -1.7120    5.1150 hx        1 N4C      0.123700
     44 H8         -0.2070   -0.5640    7.2200 hn        1 N4C      0.476467
     45 H9         -0.6280    0.8890    6.5120 hn        1 N4C      0.476467
     46 H11        -0.6900    1.1360    3.9380 hc        1 N4C      0.098200
     47 H12        -1.8310   -0.2760    3.9030 hc        1 N4C      0.098200
     48 H13        -0.2390   -1.6150    2.5680 hc        1 N4C      0.091700
     49 H14        -0.6430   -0.0320    1.7640 hc        1 N4C      0.091700
     50 H15         0.7870    0.5200   -2.3690 ha        1 N4C      0.187500
     51 H16         4.4700   -0.5330   -0.2250 ha        1 N4C      0.187500
     52 H17         8.1070   -0.0490   -3.0500 ha        1 N4C      0.176500
     53 H18         9.6100   -1.1280   -4.7210 ha        1 N4C      0.163750
     54 H19        10.8900   -4.3580   -6.3660 hn        1 N4C      0.477967
     55 H20        10.7380   -3.3350   -5.0440 hn        1 N4C      0.477967
     56 H21         8.1660   -2.9460   -7.9660 hn        1 N4C      0.491400
     57 H22         6.5350   -4.0870   -5.5740 ha        1 N4C      0.163750
     58 H23         5.0260   -2.9990   -3.9230 ha        1 N4C      0.176500
     59 H24         0.3420   -0.0350   -6.7530 ha        1 N4C      0.176500
     60 H25         0.3410    1.6740   -8.5590 ha        1 N4C      0.163750
     61 H26         1.6390    5.5210   -7.6420 hn        1 N4C      0.491400
     62 H27         3.0830    3.0300  -10.2240 hn        1 N4C      0.477967
     63 H28         1.4470    2.6850  -10.3180 hn        1 N4C      0.477967
     64 H29         3.6770    3.7020   -6.6330 ha        1 N4C      0.163750
     65 H30         3.6560    2.0210   -4.8150 ha        1 N4C      0.176500
     66 H221        1.7070   -1.5230    1.0700 hn        1 N4C      0.467300
     67 H33        -1.6730   -0.4110    6.4270 hn        1 N4C      0.476467
     68 H73         9.9210   -4.7970   -5.0720 hn        1 N4C      0.477967
     69 H43         2.0160    4.1860  -10.8030 hn        1 N4C      0.477967
@<TRIPOS>BOND
     1    1    2 2   
     2    2    3 1   
     3    2   11 1   
     4    3    4 1   
     5    3   37 1   
     6    3   66 1   
     7    4    5 1   
     8    4   10 1   
     9    4   38 1   
    10    5    6 1   
    11    5   39 1   
    12    5   40 1   
    13    6    7 1   
    14    6   41 1   
    15    6   42 1   
    16    7    8 1   
    17    7    9 1   
    18    7   43 1   
    19    8   44 1   
    20    8   45 1   
    21    8   67 1   
    22    9   10 1   
    23    9   46 1   
    24    9   47 1   
    25   10   48 1   
    26   10   49 1   
    27   11   12 ar  
    28   11   13 ar  
    29   12   26 ar  
    30   12   50 1   
    31   13   14 ar  
    32   13   51 1   
    33   14   15 1   
    34   14   25 ar  
    35   15   16 1   
    36   16   17 ar  
    37   16   24 ar  
    38   17   18 ar  
    39   17   52 1   
    40   18   19 ar  
    41   18   53 1   
    42   19   20 1   
    43   19   23 ar  
    44   20   21 1   
    45   20   22 2   
    46   21   54 1   
    47   21   55 1   
    48   21   68 1   
    49   22   56 1   
    50   23   24 ar  
    51   23   57 1   
    52   24   58 1   
    53   25   26 ar  
    54   26   27 1   
    55   27   28 1   
    56   28   29 ar  
    57   28   36 ar  
    58   29   30 ar  
    59   29   59 1   
    60   30   31 ar  
    61   30   60 1   
    62   31   32 1   
    63   31   35 ar  
    64   32   33 2   
    65   32   34 1   
    66   33   61 1   
    67   34   62 1   
    68   34   63 1   
    69   34   69 1   
    70   35   36 ar  
    71   35   64 1   
    72   36   65 1   
@<TRIPOS>SUBSTRUCTURE
     1 N4C         1 TEMP              0 ****  ****    0 ROOT
