@<TRIPOS>MOLECULE
N4C
   69    72     1     0     0
SMALL
bcc


@<TRIPOS>ATOM
      1 O3          0.9720    1.2140    0.2880 o         1 N4C     -0.377100
      2 C8          1.7850    0.3210    0.1230 c         1 N4C      0.568700
      3 N2          2.0480   -0.5900    1.3150 n4        1 N4C     -0.678800
      4 C9          1.3880   -0.1420    2.5990 c3        1 N4C      0.118500
      5 C14         2.0950   -0.7420    3.8230 c3        1 N4C     -0.099900
      6 C13         1.4610   -0.2230    5.1000 c3        1 N4C     -0.103900
      7 C12        -0.0280   -0.5910    5.1410 c3        1 N4C      0.114500
      8 N3         -0.6720   -0.1410    6.4230 n4        1 N4C     -0.838600
      9 C11        -0.7370    0.0020    3.9170 c3        1 N4C     -0.103900
     10 C10        -0.1010   -0.5130    2.6400 c3        1 N4C     -0.099900
     11 C5          2.5220    0.0020   -1.1160 ca        1 N4C     -0.111600
     12 C1          1.8380    0.1820   -2.3260 ca        1 N4C     -0.217800
     13 C4          3.8610   -0.3940   -1.1260 ca        1 N4C     -0.217800
     14 C3          4.4770   -0.5910   -2.3970 ca        1 N4C      0.665100
     15 O2          5.8140   -0.9240   -2.2960 os        1 N4C     -0.350900
     16 C6          6.5040   -1.4610   -3.3870 ca        1 N4C      0.143100
     17 C24         7.7760   -0.9110   -3.6150 ca        1 N4C     -0.132000
     18 C23         8.6190   -1.5250   -4.5370 ca        1 N4C     -0.065500
     19 C22         8.1900   -2.6650   -5.2300 ca        1 N4C     -0.255400
     20 C26         9.0670   -3.2960   -6.2440 ce        1 N4C      0.576300
     21 N7         10.2710   -3.9660   -5.6400 n4        1 N4C     -0.819600
     22 N6          8.9610   -3.3600   -7.5140 n2        1 N4C     -0.680600
     23 C21         6.9070   -3.1850   -5.0160 ca        1 N4C     -0.065500
     24 C20         6.0540   -2.5840   -4.0900 ca        1 N4C     -0.132000
     25 N1          3.8550   -0.4260   -3.5920 nb        1 N4C     -0.680000
     26 C2          2.5520   -0.0590   -3.5290 ca        1 N4C      0.665100
     27 O1          1.7720   -0.0680   -4.6800 os        1 N4C     -0.350900
     28 C7          1.9730    0.8860   -5.6740 ca        1 N4C      0.143100
     29 C19         1.0580    0.7580   -6.7400 ca        1 N4C     -0.132000
     30 C18         1.0670    1.7090   -7.7530 ca        1 N4C     -0.065500
     31 C17         1.9840    2.7710   -7.7170 ca        1 N4C     -0.255400
     32 C25         1.9180    3.8590   -8.7180 ce        1 N4C      0.576300
     33 N5          1.7310    5.1140   -8.5700 n2        1 N4C     -0.680600
     34 N4          2.1020    3.3820  -10.1330 n4        1 N4C     -0.819600
     35 C16         2.9110    2.8630   -6.6720 ca        1 N4C     -0.065500
     36 C15         2.9100    1.9200   -5.6420 ca        1 N4C     -0.132000
     37 H1          1.7140   -1.5320    1.0730 hn        1 N4C      0.467300
     38 H2          1.4860    0.9880    2.6280 hx        1 N4C      0.129700
     39 H3          2.0350   -1.8630    3.7980 hc        1 N4C      0.091700
     40 H4          3.1820   -0.4540    3.8350 hc        1 N4C      0.091700
     41 H5          2.0060   -0.6790    5.9720 hc        1 N4C      0.098200
     42 H6          1.5880    0.8920    5.1630 hc        1 N4C      0.098200
     43 H7         -0.1320   -1.7210    5.1210 hx        1 N4C      0.123700
     44 H8         -0.1930   -0.5710    7.2240 hn        1 N4C      0.476467
     45 H9         -0.6190    0.8800    6.5160 hn        1 N4C      0.476467
     46 H11        -0.6850    1.1240    3.9410 hc        1 N4C      0.098200
     47 H12        -1.8230   -0.2900    3.9090 hc        1 N4C      0.098200
     48 H13        -0.2290   -1.6270    2.5730 hc        1 N4C      0.091700
     49 H14        -0.6390   -0.0460    1.7690 hc        1 N4C      0.091700
     50 H15         0.7820    0.4960   -2.3690 ha        1 N4C      0.187500
     51 H16         4.4760   -0.5230   -0.2250 ha        1 N4C      0.187500
     52 H17         8.1050   -0.0190   -3.0550 ha        1 N4C      0.176500
     53 H18         9.6150   -1.0910   -4.7260 ha        1 N4C      0.163750
     54 H19        10.9190   -4.3140   -6.3650 hn        1 N4C      0.477967
     55 H20        10.7600   -3.2890   -5.0450 hn        1 N4C      0.477967
     56 H21         8.1820   -2.9280   -7.9650 hn        1 N4C      0.491400
     57 H22         6.5620   -4.0750   -5.5680 ha        1 N4C      0.163750
     58 H23         5.0470   -2.9950   -3.9180 ha        1 N4C      0.176500
     59 H24         0.3370   -0.0760   -6.7490 ha        1 N4C      0.176500
     60 H25         0.3200    1.6290   -8.5600 ha        1 N4C      0.163750
     61 H26         1.5890    5.4880   -7.6550 hn        1 N4C      0.491400
     62 H27         1.9720    4.1480  -10.8130 hn        1 N4C      0.477967
     63 H28         3.0490    3.0020  -10.2320 hn        1 N4C      0.477967
     64 H29         3.6430    3.6880   -6.6440 ha        1 N4C      0.163750
     65 H30         3.6370    2.0110   -4.8210 ha        1 N4C      0.176500
     66 H221        3.0630   -0.6410    1.4670 hn        1 N4C      0.467300
     67 H33        -1.6610   -0.4220    6.4340 hn        1 N4C      0.476467
     68 H73         9.9550   -4.7580   -5.0680 hn        1 N4C      0.477967
     69 H43         1.4160    2.6440  -10.3230 hn        1 N4C      0.477967
@<TRIPOS>BOND
     1    1    2 2   
     2    2    3 1   
     3    2   11 1   
     4    3    4 1   
     5    3   37 1   
     6    3   66 1   
     7    4    5 1   
     8    4   10 1   
     9    4   38 1   
    10    5    6 1   
    11    5   39 1   
    12    5   40 1   
    13    6    7 1   
    14    6   41 1   
    15    6   42 1   
    16    7    8 1   
    17    7    9 1   
    18    7   43 1   
    19    8   44 1   
    20    8   45 1   
    21    8   67 1   
    22    9   10 1   
    23    9   46 1   
    24    9   47 1   
    25   10   48 1   
    26   10   49 1   
    27   11   12 ar  
    28   11   13 ar  
    29   12   26 ar  
    30   12   50 1   
    31   13   14 ar  
    32   13   51 1   
    33   14   15 1   
    34   14   25 ar  
    35   15   16 1   
    36   16   17 ar  
    37   16   24 ar  
    38   17   18 ar  
    39   17   52 1   
    40   18   19 ar  
    41   18   53 1   
    42   19   20 1   
    43   19   23 ar  
    44   20   21 1   
    45   20   22 2   
    46   21   54 1   
    47   21   55 1   
    48   21   68 1   
    49   22   56 1   
    50   23   24 ar  
    51   23   57 1   
    52   24   58 1   
    53   25   26 ar  
    54   26   27 1   
    55   27   28 1   
    56   28   29 ar  
    57   28   36 ar  
    58   29   30 ar  
    59   29   59 1   
    60   30   31 ar  
    61   30   60 1   
    62   31   32 1   
    63   31   35 ar  
    64   32   33 2   
    65   32   34 1   
    66   33   61 1   
    67   34   62 1   
    68   34   63 1   
    69   34   69 1   
    70   35   36 ar  
    71   35   64 1   
    72   36   65 1   
@<TRIPOS>SUBSTRUCTURE
     1 N4C         1 TEMP              0 ****  ****    0 ROOT
