@<TRIPOS>MOLECULE
N4D
   46    49     1     0     0
SMALL
bcc


@<TRIPOS>ATOM
      1 C13         0.0630    0.0110    0.0040 ca        1 N4D     -0.046300
      2 C18         1.7860   -0.7050    3.8380 c         1 N4D      0.579700
      3 C17         3.5360    0.3460   -1.0880 ca        1 N4D      0.738200
      4 C16         5.5360    0.9260   -2.3980 ca        1 N4D      0.474800
      5 C15         1.4600   -0.2240    0.1360 ca        1 N4D      0.166600
      6 C19        -0.5530    0.2580   -1.3200 c3        1 N4D     -0.081800
      7 C20         2.1360    0.3890    6.0660 c3        1 N4D      0.080100
      8 C11         4.2240    0.2890   -2.3310 ca        1 N4D     -0.486500
      9 C12         1.1550   -0.4480    2.5450 ca        1 N4D     -0.197600
     10 C1          9.7360    1.9490   -5.2440 ca        1 N4D     -0.115000
     11 C2          9.2170    0.7010   -5.5850 ca        1 N4D     -0.120500
     12 C3          9.0150    2.7930   -4.4010 ca        1 N4D     -0.120500
     13 C4         -0.2210   -0.2110    2.4110 ca        1 N4D     -0.124000
     14 C5         -0.7490   -0.0000    1.1460 ca        1 N4D     -0.101000
     15 C6          7.9860    0.2840   -5.0860 ca        1 N4D     -0.111500
     16 C7          7.7770    2.4040   -3.8950 ca        1 N4D     -0.111500
     17 C8          1.9890   -0.4820    1.4210 ca        1 N4D     -0.041000
     18 C9          4.0260   -0.2580   -3.6540 cc        1 N4D      0.370800
     19 C10         5.3450    1.5350   -0.2220 ca        1 N4D      0.683900
     20 C14         7.2600    1.1370   -4.2310 ca        1 N4D      0.003800
     21 N21         5.0900    0.0150   -4.4320 nd        1 N4D     -0.473100
     22 N22         6.1100    1.5640   -1.3290 nb        1 N4D     -0.685000
     23 N23         4.1080    0.9800   -0.0240 nb        1 N4D     -0.800000
     24 N24         5.9940    0.7200   -3.7140 na        1 N4D      0.085100
     25 N25         2.2820   -0.2770   -0.9970 nh        1 N4D     -0.737300
     26 N26         1.1530    0.0370    5.0200 n4        1 N4D     -0.678800
     27 O27         2.7490   -1.4020    4.1130 o         1 N4D     -0.409100
     28 H19        -0.0490    1.1130   -1.8390 hc        1 N4D      0.069033
     29 H19A       -0.4680   -0.6530   -1.9680 hc        1 N4D      0.069033
     30 H19B       -1.6390    0.5070   -1.2220 hc        1 N4D      0.069033
     31 H20         1.6050    0.8750    6.9280 hx        1 N4D      0.112367
     32 H20A        2.8970    1.0970    5.6380 hx        1 N4D      0.112367
     33 H20B        2.6610   -0.5420    6.4170 hx        1 N4D      0.112367
     34 H3          9.4200    3.7810   -4.1330 ha        1 N4D      0.145000
     35 H4         -0.8990   -0.2250    3.2760 ha        1 N4D      0.128000
     36 H5         -1.8340    0.1690    1.0330 ha        1 N4D      0.164000
     37 H6          7.5910   -0.7040   -5.3700 ha        1 N4D      0.154000
     38 H7          7.2220    3.0900   -3.2370 ha        1 N4D      0.154000
     39 H8          3.0610   -0.7170    1.5520 ha        1 N4D      0.187000
     40 H9          3.1700   -0.8230   -4.0300 h4        1 N4D      0.059800
     41 H10         5.7740    2.0400    0.6710 h5        1 N4D      0.059100
     42 HN25        1.8230   -0.4200   -1.8730 hn        1 N4D      0.454800
     43 HN26        0.4270   -0.5660    5.4220 hn        1 N4D      0.458300
     44 H1         10.7120    2.2680   -5.6410 ha        1 N4D      0.145000
     45 H262        0.7030    0.8880    4.6630 hn        1 N4D      0.458300
     46 H2          9.7820    0.0330   -6.2550 ha        1 N4D      0.145000
@<TRIPOS>BOND
     1    1    5 ar  
     2    1    6 1   
     3    1   14 ar  
     4    2    9 1   
     5    2   26 1   
     6    2   27 2   
     7    3    8 ar  
     8    3   23 ar  
     9    3   25 1   
    10    4    8 ar  
    11    4   22 ar  
    12    4   24 1   
    13    5   17 ar  
    14    5   25 1   
    15    6   28 1   
    16    6   29 1   
    17    6   30 1   
    18    7   26 1   
    19    7   31 1   
    20    7   32 1   
    21    7   33 1   
    22    8   18 1   
    23    9   13 ar  
    24    9   17 ar  
    25   10   11 ar  
    26   10   12 ar  
    27   10   44 1   
    28   11   15 ar  
    29   11   46 1   
    30   12   16 ar  
    31   12   34 1   
    32   13   14 ar  
    33   13   35 1   
    34   14   36 1   
    35   15   20 ar  
    36   15   37 1   
    37   16   20 ar  
    38   16   38 1   
    39   17   39 1   
    40   18   21 2   
    41   18   40 1   
    42   19   22 ar  
    43   19   23 ar  
    44   19   41 1   
    45   20   24 1   
    46   21   24 1   
    47   25   42 1   
    48   26   43 1   
    49   26   45 1   
@<TRIPOS>SUBSTRUCTURE
     1 N4D         1 TEMP              0 ****  ****    0 ROOT
