@<TRIPOS>MOLECULE
N4D
   45    48     1     0     0
SMALL
bcc


@<TRIPOS>ATOM
      1 C13        -3.2460    2.2440    0.3100 ca        1 N4D     -0.091300
      2 C18        -5.1200   -1.4520   -0.8280 c         1 N4D      0.670700
      3 C17        -0.1090    0.5050   -0.0980 ca        1 N4D      0.754200
      4 C16         2.2780   -0.0710    0.1210 ca        1 N4D      0.483800
      5 C15        -2.4790    1.1950   -0.2590 ca        1 N4D      0.129600
      6 C19        -2.6210    3.5300    0.7040 c3        1 N4D     -0.061800
      7 C20        -6.6580   -3.2710   -0.1930 c3        1 N4D      0.078300
      8 C11         1.2550    0.8830   -0.2820 ca        1 N4D     -0.503500
      9 C12        -4.4890   -0.1640   -0.4130 ca        1 N4D     -0.131600
     10 C1          7.3320   -1.1950    0.3180 ca        1 N4D     -0.129000
     11 C2          7.0650   -0.3970   -0.7930 ca        1 N4D     -0.123000
     12 C3          6.3360   -1.4120    1.2690 ca        1 N4D     -0.123000
     13 C4         -5.2440    0.8700    0.1450 ca        1 N4D     -0.113000
     14 C5         -4.6200    2.0640    0.4930 ca        1 N4D     -0.123000
     15 C6          5.8100    0.1810   -0.9670 ca        1 N4D     -0.118500
     16 C7          5.0760   -0.8370    1.1240 ca        1 N4D     -0.118500
     17 C8         -3.1200   -0.0050   -0.6300 ca        1 N4D     -0.061000
     18 C9          1.9970    2.0090   -0.8030 cc        1 N4D      0.380800
     19 C10         0.6620   -1.5160    0.7770 ca        1 N4D      0.691900
     20 C14         4.8010   -0.0410   -0.0060 ca        1 N4D      0.025800
     21 N21         3.3190    1.7710   -0.7270 nd        1 N4D     -0.500100
     22 N22         1.9900   -1.2940    0.6620 nb        1 N4D     -0.722000
     23 N23        -0.3940   -0.7190    0.4490 nb        1 N4D     -0.775000
     24 N24         3.5140    0.5490   -0.1710 na        1 N4D      0.063100
     25 N25        -1.1040    1.3820   -0.5160 nh        1 N4D     -0.728300
     26 N26        -6.0390   -2.0060    0.0430 n         1 N4D     -0.572900
     27 O27        -4.8400   -2.0000   -1.9130 o         1 N4D     -0.598100
     28 H19        -2.2370    4.0730   -0.1970 hc        1 N4D      0.048367
     29 H19A       -3.3600    4.1950    1.2150 hc        1 N4D      0.048367
     30 H19B       -1.7680    3.3580    1.4070 hc        1 N4D      0.048367
     31 H20        -6.4750   -3.5990   -1.2510 h1        1 N4D      0.044367
     32 H20A       -6.2480   -4.0510    0.5040 h1        1 N4D      0.044367
     33 H20B       -7.7650   -3.1840   -0.0210 h1        1 N4D      0.044367
     34 H2          7.8480   -0.2210   -1.5460 ha        1 N4D      0.137500
     35 H3          6.5420   -2.0400    2.1490 ha        1 N4D      0.137500
     36 H4         -6.3280    0.7580    0.2950 ha        1 N4D      0.140000
     37 H5         -5.2170    2.8820    0.9250 ha        1 N4D      0.138000
     38 H6          5.6200    0.8090   -1.8510 ha        1 N4D      0.155500
     39 H7          4.3080   -1.0180    1.8920 ha        1 N4D      0.155500
     40 H8         -2.5570   -0.8290   -1.1020 ha        1 N4D      0.175000
     41 H9          1.6030    2.9390   -1.2150 h4        1 N4D      0.054800
     42 H10         0.3780   -2.5020    1.2090 h5        1 N4D      0.057100
     43 HN25       -0.8090    2.3270   -0.6410 hn        1 N4D      0.440800
     44 HN26       -6.1580   -1.5950    0.9370 hn        1 N4D      0.310500
     45 H1          8.3240   -1.6520    0.4440 ha        1 N4D      0.136000
@<TRIPOS>BOND
     1    1    5 ar  
     2    1    6 1   
     3    1   14 ar  
     4    2    9 1   
     5    2   26 1   
     6    2   27 2   
     7    3    8 ar  
     8    3   23 ar  
     9    3   25 1   
    10    4    8 ar  
    11    4   22 ar  
    12    4   24 1   
    13    5   17 ar  
    14    5   25 1   
    15    6   28 1   
    16    6   29 1   
    17    6   30 1   
    18    7   26 1   
    19    7   31 1   
    20    7   32 1   
    21    7   33 1   
    22    8   18 1   
    23    9   13 ar  
    24    9   17 ar  
    25   10   11 ar  
    26   10   12 ar  
    27   10   45 1   
    28   11   15 ar  
    29   11   34 1   
    30   12   16 ar  
    31   12   35 1   
    32   13   14 ar  
    33   13   36 1   
    34   14   37 1   
    35   15   20 ar  
    36   15   38 1   
    37   16   20 ar  
    38   16   39 1   
    39   17   40 1   
    40   18   21 2   
    41   18   41 1   
    42   19   22 ar  
    43   19   23 ar  
    44   19   42 1   
    45   20   24 1   
    46   21   24 1   
    47   25   43 1   
    48   26   44 1   
@<TRIPOS>SUBSTRUCTURE
     1 N4D         1 TEMP              0 ****  ****    0 ROOT
