@<TRIPOS>MOLECULE
N4D
   46    49     1     0     0
SMALL
bcc


@<TRIPOS>ATOM
      1 C13         0.0590    0.0140    0.0040 ca        1 N4D     -0.046300
      2 C18         1.7800   -0.7340    3.8320 c         1 N4D      0.579700
      3 C17         3.5330    0.3450   -1.0870 ca        1 N4D      0.738200
      4 C16         5.5340    0.9280   -2.3930 ca        1 N4D      0.474800
      5 C15         1.4550   -0.2270    0.1330 ca        1 N4D      0.166600
      6 C19        -0.5570    0.2710   -1.3180 c3        1 N4D     -0.081800
      7 C20         2.1590    0.3950    6.0380 c3        1 N4D      0.080100
      8 C11         4.2200    0.2940   -2.3310 ca        1 N4D     -0.486500
      9 C12         1.1510   -0.4650    2.5420 ca        1 N4D     -0.197600
     10 C1          9.7360    1.9560   -5.2350 ca        1 N4D     -0.115000
     11 C2          9.2120    0.7130   -5.5860 ca        1 N4D     -0.120500
     12 C3          9.0180    2.7970   -4.3850 ca        1 N4D     -0.120500
     13 C4         -0.2250   -0.2240    2.4100 ca        1 N4D     -0.124000
     14 C5         -0.7530   -0.0020    1.1460 ca        1 N4D     -0.101000
     15 C6          7.9790    0.2970   -5.0890 ca        1 N4D     -0.111500
     16 C7          7.7790    2.4080   -3.8810 ca        1 N4D     -0.111500
     17 C8          1.9830   -0.4950    1.4170 ca        1 N4D     -0.041000
     18 C9          4.0180   -0.2410   -3.6580 cc        1 N4D      0.370800
     19 C10         5.3460    1.5200   -0.2130 ca        1 N4D      0.683900
     20 C14         7.2580    1.1460   -4.2260 ca        1 N4D      0.003800
     21 N21         5.0840    0.0340   -4.4340 nd        1 N4D     -0.473100
     22 N22         6.1110    1.5550   -1.3210 nb        1 N4D     -0.685000
     23 N23         4.1080    0.9690   -0.0190 nb        1 N4D     -0.800000
     24 N24         5.9900    0.7300   -3.7110 na        1 N4D      0.085100
     25 N25         2.2760   -0.2740   -1.0000 nu        1 N4D     -0.737300
     26 N26         1.1590    0.0150    5.0170 ny        1 N4D     -0.678800
     27 O27         2.7340   -1.4440    4.1050 o         1 N4D     -0.409100
     28 H19        -0.0500    1.1280   -1.8310 hc        1 N4D      0.069033
     29 H19A       -1.6420    0.5240   -1.2180 hc        1 N4D      0.069033
     30 H19B       -0.4750   -0.6350   -1.9720 hc        1 N4D      0.069033
     31 H20         2.7070   -0.5240    6.3860 hx        1 N4D      0.112367
     32 H20A        2.8970    1.1110    5.5860 hx        1 N4D      0.112367
     33 H20B        1.6390    0.8800    6.9070 hx        1 N4D      0.112367
     34 H3          9.4270    3.7810   -4.1090 ha        1 N4D      0.145000
     35 H4         -0.9020   -0.2410    3.2750 ha        1 N4D      0.128000
     36 H5         -1.8370    0.1720    1.0350 ha        1 N4D      0.164000
     37 H6          7.5800   -0.6880   -5.3800 ha        1 N4D      0.154000
     38 H7          7.2270    3.0910   -3.2180 ha        1 N4D      0.154000
     39 H8          3.0540   -0.7350    1.5460 ha        1 N4D      0.187000
     40 H9          3.1610   -0.8000   -4.0370 h4        1 N4D      0.059800
     41 H10         5.7780    2.0170    0.6840 h5        1 N4D      0.059100
     42 HN25        1.8160   -0.4100   -1.8770 hn        1 N4D      0.454800
     43 HN26        0.4510   -0.5930    5.4420 hn        1 N4D      0.458300
     44 H1         10.7130    2.2750   -5.6300 ha        1 N4D      0.145000
     45 H262        0.6890    0.8550    4.6590 hn        1 N4D      0.458300
     46 H2          9.7740    0.0490   -6.2600 ha        1 N4D      0.145000
@<TRIPOS>BOND
     1    1    5 ar  
     2    1    6 1   
     3    1   14 ar  
     4    2    9 1   
     5    2   26 1   
     6    2   27 2   
     7    3    8 ar  
     8    3   23 ar  
     9    3   25 1   
    10    4    8 ar  
    11    4   22 ar  
    12    4   24 1   
    13    5   17 ar  
    14    5   25 1   
    15    6   28 1   
    16    6   29 1   
    17    6   30 1   
    18    7   26 1   
    19    7   31 1   
    20    7   32 1   
    21    7   33 1   
    22    8   18 1   
    23    9   13 ar  
    24    9   17 ar  
    25   10   11 ar  
    26   10   12 ar  
    27   10   44 1   
    28   11   15 ar  
    29   11   46 1   
    30   12   16 ar  
    31   12   34 1   
    32   13   14 ar  
    33   13   35 1   
    34   14   36 1   
    35   15   20 ar  
    36   15   37 1   
    37   16   20 ar  
    38   16   38 1   
    39   17   39 1   
    40   18   21 2   
    41   18   40 1   
    42   19   22 ar  
    43   19   23 ar  
    44   19   41 1   
    45   20   24 1   
    46   21   24 1   
    47   25   42 1   
    48   26   43 1   
    49   26   45 1   
@<TRIPOS>SUBSTRUCTURE
     1 N4D         1 TEMP              0 ****  ****    0 ROOT
