@<TRIPOS>MOLECULE
N4D
   47    50     1     0     0
SMALL
bcc


@<TRIPOS>ATOM
      1 C13         0.7430    0.0840   -0.1930 ca        1 N4D      0.042700
      2 C18         1.5360   -0.3530    4.0070 c         1 N4D      0.556700
      3 C17         4.0020   -0.6100   -0.8810 ca        1 N4D      0.554200
      4 C16         5.6150    0.4920   -2.3320 ca        1 N4D      0.463800
      5 C15         1.8330   -0.6750    0.2920 ca        1 N4D     -0.045400
      6 C19         0.4600    0.2300   -1.6380 c3        1 N4D     -0.116800
      7 C20         1.2400    0.2980    6.4050 c3        1 N4D      0.081100
      8 C11         4.3170   -0.2070   -2.1860 ca        1 N4D     -0.438500
      9 C12         1.2180   -0.1580    2.5840 ca        1 N4D     -0.192600
     10 C1          9.0480    2.6660   -5.5260 ca        1 N4D     -0.087000
     11 C2          8.4540    1.5570   -6.1300 ca        1 N4D     -0.113000
     12 C3          8.5420    3.1580   -4.3220 ca        1 N4D     -0.113000
     13 C4          0.1260    0.5870    2.1120 ca        1 N4D     -0.045000
     14 C5         -0.0990    0.7020    0.7460 ca        1 N4D     -0.110000
     15 C6          7.3600    0.9290   -5.5390 ca        1 N4D     -0.099500
     16 C7          7.4460    2.5530   -3.7120 ca        1 N4D     -0.099500
     17 C8          2.0770   -0.7900    1.6700 ca        1 N4D      0.003000
     18 C9          3.7930   -0.2510   -3.5290 cc        1 N4D      0.325800
     19 C10         5.9850    0.2850   -0.0920 ca        1 N4D      0.677900
     20 C14         6.8590    1.4280   -4.3210 ca        1 N4D     -0.041200
     21 N21         4.6600    0.3430   -4.3790 nd        1 N4D     -0.400100
     22 N22         6.4440    0.7370   -1.2760 nb        1 N4D     -0.597000
     23 N23         4.8070   -0.3720    0.1750 nb        1 N4D     -0.716000
     24 N24         5.7290    0.7890   -3.7020 na        1 N4D      0.132100
     25 N25         2.7330   -1.3580   -0.6460 n4        1 N4D     -0.623100
     26 N26         0.7520    0.4640    5.0120 n4        1 N4D     -0.664800
     27 O27         2.3800   -1.1100    4.4650 o         1 N4D     -0.389100
     28 H19         1.3650    0.5820   -2.1990 hc        1 N4D      0.092033
     29 H19A        0.1140   -0.7450   -2.0720 hc        1 N4D      0.092033
     30 H19B       -0.3550    0.9810   -1.8170 hc        1 N4D      0.092033
     31 H20         0.6060    0.9270    7.0880 hx        1 N4D      0.124033
     32 H20A        2.3140    0.6230    6.4690 hx        1 N4D      0.124033
     33 H20B        1.1680   -0.7850    6.7030 hx        1 N4D      0.124033
     34 H3          9.0080    4.0360   -3.8460 ha        1 N4D      0.161000
     35 H4         -0.5790    1.0890    2.7950 ha        1 N4D      0.154000
     36 H5         -0.9610    1.2930    0.3830 ha        1 N4D      0.196000
     37 H6          6.9020    0.0580   -6.0340 ha        1 N4D      0.153500
     38 H7          7.0580    2.9630   -2.7670 ha        1 N4D      0.153500
     39 H8          2.9430   -1.3680    2.0540 ha        1 N4D      0.201000
     40 H9          2.8580   -0.6830   -3.8920 h4        1 N4D      0.069800
     41 H10         6.6430    0.4560    0.7930 h5        1 N4D      0.100100
     42 HN25        2.9670   -2.2900   -0.2680 hn        1 N4D      0.479800
     43 HN26        0.8130    1.4550    4.7460 hn        1 N4D      0.467300
     44 H1          9.9140    3.1540   -6.0000 ha        1 N4D      0.163000
     45 H252        2.2630   -1.4730   -1.5570 hn        1 N4D      0.479800
     46 H262       -0.2340    0.1770    4.9630 hn        1 N4D      0.467300
     47 H2          8.8500    1.1700   -7.0830 ha        1 N4D      0.161000
@<TRIPOS>BOND
     1    1    5 ar  
     2    1    6 1   
     3    1   14 ar  
     4    2    9 1   
     5    2   26 1   
     6    2   27 2   
     7    3    8 ar  
     8    3   23 ar  
     9    3   25 1   
    10    4    8 ar  
    11    4   22 ar  
    12    4   24 1   
    13    5   17 ar  
    14    5   25 1   
    15    6   28 1   
    16    6   29 1   
    17    6   30 1   
    18    7   26 1   
    19    7   31 1   
    20    7   32 1   
    21    7   33 1   
    22    8   18 1   
    23    9   13 ar  
    24    9   17 ar  
    25   10   11 ar  
    26   10   12 ar  
    27   10   44 1   
    28   11   15 ar  
    29   11   47 1   
    30   12   16 ar  
    31   12   34 1   
    32   13   14 ar  
    33   13   35 1   
    34   14   36 1   
    35   15   20 ar  
    36   15   37 1   
    37   16   20 ar  
    38   16   38 1   
    39   17   39 1   
    40   18   21 2   
    41   18   40 1   
    42   19   22 ar  
    43   19   23 ar  
    44   19   41 1   
    45   20   24 1   
    46   21   24 1   
    47   25   42 1   
    48   25   45 1   
    49   26   43 1   
    50   26   46 1   
@<TRIPOS>SUBSTRUCTURE
     1 N4D         1 TEMP              0 ****  ****    0 ROOT
