@<TRIPOS>MOLECULE
N4E
   26    26     1     0     0
SMALL
bcc


@<TRIPOS>ATOM
      1 O           0.0600    0.7400    0.2770 o         1 N4E     -0.592100
      2 C           1.2040    0.2690    0.1490 c         1 N4E      0.665100
      3 CM          2.1520    0.2030    1.3260 c3        1 N4E     -0.179100
      4 N           1.6970   -0.2220   -1.0520 ns        1 N4E     -0.472100
      5 C1          1.0380   -0.2870   -2.2920 ca        1 N4E      0.036600
      6 C6         -0.2760    0.1910   -2.4960 ca        1 N4E     -0.138000
      7 C5         -0.8730    0.1010   -3.7450 ca        1 N4E     -0.155500
      8 C4         -0.1730   -0.4700   -4.8230 ca        1 N4E      0.102100
      9 C3          1.1270   -0.9490   -4.6400 ca        1 N4E     -0.155500
     10 C2          1.7260   -0.8580   -3.3880 ca        1 N4E     -0.138000
     11 O4         -0.8700   -0.5050   -6.0150 os        1 N4E     -0.329900
     12 C12        -0.1770   -1.0850   -7.1270 c3        1 N4E      0.128400
     13 C13        -1.1310   -1.0120   -8.2970 c3        1 N4E     -0.100100
     14 HM          3.0730    0.8000    1.1240 hc        1 N4E      0.067700
     15 HMA         1.6350    0.6270    2.2210 hc        1 N4E      0.067700
     16 HMB         2.4390   -0.8550    1.5410 hc        1 N4E      0.067700
     17 HN          2.6250   -0.5810   -1.0440 hn        1 N4E      0.312500
     18 H6         -0.8450    0.6420   -1.6650 ha        1 N4E      0.152000
     19 H5         -1.8960    0.4730   -3.9020 ha        1 N4E      0.144000
     20 H3          1.6900   -1.3980   -5.4700 ha        1 N4E      0.144000
     21 H2          2.7510   -1.2410   -3.2680 ha        1 N4E      0.152000
     22 H12         0.7590   -0.5010   -7.3300 h1        1 N4E      0.035700
     23 H12A        0.0890   -2.1490   -6.8870 h1        1 N4E      0.035700
     24 H13        -0.6410   -1.4530   -9.1970 hc        1 N4E      0.049033
     25 H13A       -1.4060    0.0490   -8.5110 hc        1 N4E      0.049033
     26 H13B       -2.0670   -1.5780   -8.0740 hc        1 N4E      0.049033
@<TRIPOS>BOND
     1    1    2 2   
     2    2    3 1   
     3    2    4 1   
     4    3   14 1   
     5    3   15 1   
     6    3   16 1   
     7    4    5 1   
     8    4   17 1   
     9    5    6 ar  
    10    5   10 ar  
    11    6    7 ar  
    12    6   18 1   
    13    7    8 ar  
    14    7   19 1   
    15    8    9 ar  
    16    8   11 1   
    17    9   10 ar  
    18    9   20 1   
    19   10   21 1   
    20   11   12 1   
    21   12   13 1   
    22   12   22 1   
    23   12   23 1   
    24   13   24 1   
    25   13   25 1   
    26   13   26 1   
@<TRIPOS>SUBSTRUCTURE
     1 N4E         1 TEMP              0 ****  ****    0 ROOT
