@<TRIPOS>MOLECULE
N4E
   26    26     1     0     0
SMALL
bcc


@<TRIPOS>ATOM
      1 O           0.0410    0.7070    0.2840 o         1 N4E     -0.592100
      2 C           1.1950    0.2620    0.1510 c         1 N4E      0.665100
      3 CM          2.1440    0.2060    1.3280 c3        1 N4E     -0.179100
      4 N           1.6980   -0.2060   -1.0540 n         1 N4E     -0.472100
      5 C1          1.0400   -0.2780   -2.2940 ca        1 N4E      0.036600
      6 C6         -0.2770    0.1940   -2.4980 ca        1 N4E     -0.137500
      7 C5         -0.8740    0.0980   -3.7470 ca        1 N4E     -0.155500
      8 C4         -0.1710   -0.4700   -4.8240 ca        1 N4E      0.102100
      9 C3          1.1320   -0.9410   -4.6410 ca        1 N4E     -0.155500
     10 C2          1.7300   -0.8460   -3.3890 ca        1 N4E     -0.137500
     11 O4         -0.8680   -0.5090   -6.0160 os        1 N4E     -0.329900
     12 C12        -0.1730   -1.0910   -7.1270 c3        1 N4E      0.128400
     13 C13        -1.1280   -1.0260   -8.2960 c3        1 N4E     -0.100100
     14 HM          2.4550   -0.8460    1.5330 hc        1 N4E      0.067700
     15 HMA         3.0520    0.8260    1.1310 hc        1 N4E      0.067700
     16 HMB         1.6180    0.6100    2.2270 hc        1 N4E      0.067700
     17 HN          2.6330   -0.5490   -1.0480 hn        1 N4E      0.312500
     18 H6         -0.8480    0.6430   -1.6680 ha        1 N4E      0.152000
     19 H5         -1.8990    0.4650   -3.9050 ha        1 N4E      0.144000
     20 H3          1.6980   -1.3880   -5.4710 ha        1 N4E      0.144000
     21 H2          2.7570   -1.2240   -3.2680 ha        1 N4E      0.152000
     22 H12         0.0980   -2.1520   -6.8830 h1        1 N4E      0.035700
     23 H12A        0.7600   -0.5040   -7.3320 h1        1 N4E      0.035700
     24 H13        -1.4070    0.0320   -8.5140 hc        1 N4E      0.049033
     25 H13A       -0.6370   -1.4680   -9.1950 hc        1 N4E      0.049033
     26 H13B       -2.0610   -1.5950   -8.0700 hc        1 N4E      0.049033
@<TRIPOS>BOND
     1    1    2 2   
     2    2    3 1   
     3    2    4 1   
     4    3   14 1   
     5    3   15 1   
     6    3   16 1   
     7    4    5 1   
     8    4   17 1   
     9    5    6 ar  
    10    5   10 ar  
    11    6    7 ar  
    12    6   18 1   
    13    7    8 ar  
    14    7   19 1   
    15    8    9 ar  
    16    8   11 1   
    17    9   10 ar  
    18    9   20 1   
    19   10   21 1   
    20   11   12 1   
    21   12   13 1   
    22   12   22 1   
    23   12   23 1   
    24   13   24 1   
    25   13   25 1   
    26   13   26 1   
@<TRIPOS>SUBSTRUCTURE
     1 N4E         1 TEMP              0 ****  ****    0 ROOT
