@<TRIPOS>MOLECULE
N4E
   27    27     1     0     0
SMALL
bcc


@<TRIPOS>ATOM
      1 O           0.4920    0.9630    0.8740 o         1 N4E     -0.405100
      2 C           1.2080    0.2790    0.1620 c         1 N4E      0.559100
      3 CM          1.6040   -1.1460    0.3190 c3        1 N4E     -0.182100
      4 N           1.7880    1.0080   -1.0460 n4        1 N4E     -0.539200
      5 C1          1.1610    0.5650   -2.2910 ca        1 N4E     -0.132400
      6 C6         -0.1180    1.0550   -2.6360 ca        1 N4E     -0.058000
      7 C5         -0.7090    0.6550   -3.8190 ca        1 N4E     -0.173000
      8 C4         -0.0300   -0.2420   -4.6810 ca        1 N4E      0.209100
      9 C3          1.2450   -0.7270   -4.3330 ca        1 N4E     -0.173000
     10 C2          1.8380   -0.3250   -3.1440 ca        1 N4E     -0.058000
     11 O4         -0.7050   -0.5660   -5.8150 os        1 N4E     -0.300900
     12 C12        -0.0520   -1.4640   -6.7400 c3        1 N4E      0.125400
     13 C13        -1.0180   -1.6280   -7.8890 c3        1 N4E     -0.106100
     14 HM          0.8620   -1.6490    0.9950 hc        1 N4E      0.114367
     15 HMA         2.6160   -1.2040    0.7960 hc        1 N4E      0.114367
     16 HMB         1.6240   -1.6830   -0.6630 hc        1 N4E      0.114367
     17 HN          1.6260    2.0200   -0.9390 hn        1 N4E      0.460300
     18 H6         -0.6550    1.7560   -1.9740 ha        1 N4E      0.156000
     19 H5         -1.7060    1.0250   -4.1090 ha        1 N4E      0.180000
     20 H3          1.7840   -1.4210   -4.9970 ha        1 N4E      0.180000
     21 H2          2.8400   -0.7090   -2.8920 ha        1 N4E      0.156000
     22 H12         0.9130   -1.0020   -7.0740 h1        1 N4E      0.051700
     23 H12A        0.1430   -2.4390   -6.2210 h1        1 N4E      0.051700
     24 H13        -1.9850   -2.0570   -7.5320 hc        1 N4E      0.065367
     25 H13A       -1.2260   -0.6430   -8.3720 hc        1 N4E      0.065367
     26 H13B       -0.5660   -2.3180   -8.6420 hc        1 N4E      0.065367
     27 HN3         2.7970    0.8350   -1.0950 hn        1 N4E      0.460300
@<TRIPOS>BOND
     1    1    2 2   
     2    2    3 1   
     3    2    4 1   
     4    3   14 1   
     5    3   15 1   
     6    3   16 1   
     7    4    5 1   
     8    4   17 1   
     9    4   27 1   
    10    5    6 ar  
    11    5   10 ar  
    12    6    7 ar  
    13    6   18 1   
    14    7    8 ar  
    15    7   19 1   
    16    8    9 ar  
    17    8   11 1   
    18    9   10 ar  
    19    9   20 1   
    20   10   21 1   
    21   11   12 1   
    22   12   13 1   
    23   12   22 1   
    24   12   23 1   
    25   13   24 1   
    26   13   25 1   
    27   13   26 1   
@<TRIPOS>SUBSTRUCTURE
     1 N4E         1 TEMP              0 ****  ****    0 ROOT
