@<TRIPOS>MOLECULE
N4E
   26    26     1     0     0
SMALL
bcc


@<TRIPOS>ATOM
      1 O           3.4240   -1.4590    0.1340 o         1 N4E     -0.592100
      2 C           3.5490   -0.2230    0.0710 c         1 N4E      0.665100
      3 CM          4.9190    0.4190    0.0590 c3        1 N4E     -0.179100
      4 N           2.4720    0.6510    0.0080 n         1 N4E     -0.472100
      5 C1          1.1030    0.3330    0.0030 ca        1 N4E      0.036600
      6 C6          0.6160   -0.9930    0.0660 ca        1 N4E     -0.138000
      7 C5         -0.7480   -1.2440    0.0580 ca        1 N4E     -0.155500
      8 C4         -1.6620   -0.1770   -0.0150 ca        1 N4E      0.102100
      9 C3         -1.2000    1.1400   -0.0780 ca        1 N4E     -0.155500
     10 C2          0.1690    1.3910   -0.0690 ca        1 N4E     -0.138000
     11 O4         -2.9920   -0.5510   -0.0160 os        1 N4E     -0.329900
     12 C12        -3.9420    0.5190   -0.0890 c3        1 N4E      0.128400
     13 C13        -5.3060   -0.1320   -0.0770 c3        1 N4E     -0.100100
     14 HM          5.6890   -0.3900    0.1130 hc        1 N4E      0.067700
     15 HMA         5.0720    1.0020   -0.8810 hc        1 N4E      0.067700
     16 HMB         5.0440    1.0970    0.9370 hc        1 N4E      0.067700
     17 HN          2.6830    1.6220   -0.0400 hn        1 N4E      0.312500
     18 H6          1.3140   -1.8450    0.1240 ha        1 N4E      0.152000
     19 H5         -1.1250   -2.2760    0.1070 ha        1 N4E      0.144000
     20 H3         -1.8980    1.9860   -0.1350 ha        1 N4E      0.144000
     21 H2          0.5100    2.4370   -0.1200 ha        1 N4E      0.152000
     22 H12        -3.8080    1.1980    0.7940 h1        1 N4E      0.035700
     23 H12A       -3.7780    1.1000   -1.0360 h1        1 N4E      0.035700
     24 H13        -6.0890    0.6610   -0.1330 hc        1 N4E      0.049033
     25 H13A       -5.4170   -0.8210   -0.9480 hc        1 N4E      0.049033
     26 H13B       -5.4470   -0.7230    0.8590 hc        1 N4E      0.049033
@<TRIPOS>BOND
     1    1    2 2   
     2    2    3 1   
     3    2    4 1   
     4    3   14 1   
     5    3   15 1   
     6    3   16 1   
     7    4    5 1   
     8    4   17 1   
     9    5    6 ar  
    10    5   10 ar  
    11    6    7 ar  
    12    6   18 1   
    13    7    8 ar  
    14    7   19 1   
    15    8    9 ar  
    16    8   11 1   
    17    9   10 ar  
    18    9   20 1   
    19   10   21 1   
    20   11   12 1   
    21   12   13 1   
    22   12   22 1   
    23   12   23 1   
    24   13   24 1   
    25   13   25 1   
    26   13   26 1   
@<TRIPOS>SUBSTRUCTURE
     1 N4E         1 TEMP              0 ****  ****    0 ROOT
