@<TRIPOS>MOLECULE
N4I
   68    70     1     0     0
SMALL
bcc


@<TRIPOS>ATOM
      1 C1         -0.5880   -1.0730    0.7720 c3        1 N4I      0.061500
      2 C2          0.2710   -0.8730   -0.5360 c3        1 N4I      0.142500
      3 C3          1.7060   -0.6640    0.0390 c3        1 N4I      0.148800
      4 C4          1.1040    3.4920   -6.6840 ca        1 N4I     -0.039600
      5 N4          1.5660   -0.0630    1.3530 n3        1 N4I     -0.828200
      6 C5          0.2490   -0.3610    1.8840 c3        1 N4I      0.140800
      7 C6         -2.9950   -4.6280    1.9730 ca        1 N4I     -0.159000
      8 N6         -0.8270   -2.5110    1.1010 n4        1 N4I     -0.770000
      9 C7         -1.9200   -3.1550    0.2850 c3        1 N4I      0.183100
     10 C8         -2.2180   -4.5140    0.8160 ca        1 N4I     -0.171300
     11 C9         -3.3080   -5.9090    2.4580 ca        1 N4I      0.161100
     12 O10        -4.0590   -5.9460    3.5990 oh        1 N4I     -0.474100
     13 C11        -2.8530   -7.0600    1.7870 ca        1 N4I     -0.150000
     14 C12        -2.0840   -6.9200    0.6360 ca        1 N4I     -0.070000
     15 C13        -1.7570   -5.6520    0.1490 ca        1 N4I     -0.136000
     16 C14        -1.9270    2.4540   -2.4100 ca        1 N4I     -0.138500
     17 C15        -2.3980    3.4900   -3.2160 ca        1 N4I     -0.073000
     18 C16        -1.6720    4.6800   -3.3030 ca        1 N4I     -0.170300
     19 C17        -2.1310    5.7800   -4.2540 c3        1 N4I      0.703200
     20 F18        -1.8170    7.0540   -3.8740 f         1 N4I     -0.237300
     21 F19        -1.5270    5.6630   -5.5020 f         1 N4I     -0.237300
     22 F20        -3.4640    5.7880   -4.5480 f         1 N4I     -0.237300
     23 N21        -0.1800    0.2020   -1.4170 n3        1 N4I     -0.883200
     24 C22        -0.2100    1.5260   -0.7940 c3        1 N4I      0.154100
     25 C23        -0.7350    2.6060   -1.6940 ca        1 N4I     -0.112300
     26 C24        -0.5190    4.8670   -2.5360 ca        1 N4I     -0.073000
     27 C25        -0.0480    3.8250   -1.7380 ca        1 N4I     -0.138500
     28 C26         1.2010    4.5280   -7.7450 c         1 N4I      0.531700
     29 S27         1.1830    0.1760   -3.7780 s4        1 N4I      1.672300
     30 N28         0.0430    5.4760   -7.8820 n4        1 N4I     -0.749400
     31 O28         2.2610    0.1110   -2.9730 o         1 N4I     -0.382400
     32 O29         0.2810   -0.8060   -3.9770 o         1 N4I     -0.382400
     33 C30         1.1120    1.4090   -4.7760 ca        1 N4I     -0.544500
     34 C31         2.1100    2.4130   -4.7710 ca        1 N4I      0.044500
     35 C32         2.1140    3.4390   -5.7140 ca        1 N4I     -0.100000
     36 O33         2.1320    4.6950   -8.5120 o         1 N4I     -0.314100
     37 C34         0.0910    2.5250   -6.7040 ca        1 N4I     -0.100000
     38 C35         0.1000    1.5000   -5.7630 ca        1 N4I      0.044500
     39 H1         -1.6010   -0.5870    0.6870 hx        1 N4I      0.115700
     40 H2          0.2590   -1.8080   -1.1690 h1        1 N4I      0.083700
     41 H3          2.2150   -1.6700    0.0600 h1        1 N4I      0.076700
     42 H3A         2.3340    0.0170   -0.6000 h1        1 N4I      0.076700
     43 HN4         2.3110   -0.3120    1.9760 hn        1 N4I      0.420800
     44 H5          0.2870   -0.9540    2.8410 h1        1 N4I      0.090700
     45 H5A        -0.2530    0.6210    2.1250 h1        1 N4I      0.090700
     46 H6         -3.3920   -3.7480    2.4990 ha        1 N4I      0.153000
     47 HN6        -1.0970   -2.5820    2.0960 hn        1 N4I      0.461300
     48 H7         -1.5710   -3.1980   -0.7850 hx        1 N4I      0.099200
     49 H7A        -2.8320   -2.4950    0.3560 hx        1 N4I      0.099200
     50 HO10       -4.2540   -6.8730    3.8210 ho        1 N4I      0.455000
     51 H11        -3.1110   -8.0620    2.1680 ha        1 N4I      0.176000
     52 H12        -1.7310   -7.8190    0.1020 ha        1 N4I      0.172000
     53 H13        -1.1570   -5.5620   -0.7690 ha        1 N4I      0.136000
     54 H14        -2.5340    1.5400   -2.3160 ha        1 N4I      0.158500
     55 H15        -3.3540    3.3830   -3.7600 ha        1 N4I      0.179000
     56 H22         0.8430    1.7800   -0.4670 h1        1 N4I      0.095700
     57 H22A       -0.8470    1.5290    0.1430 h1        1 N4I      0.095700
     58 H24        -0.0000    5.8420   -2.5420 ha        1 N4I      0.179000
     59 H25         0.8510    3.9830   -1.1170 ha        1 N4I      0.158500
     60 HN28        0.0090    6.1170   -7.0730 hn        1 N4I      0.490800
     61 HN2A       -0.8490    4.9680   -7.9150 hn        1 N4I      0.490800
     62 H31         2.9260    2.3780   -4.0190 ha        1 N4I      0.200500
     63 H32         2.9310    4.1870   -5.7040 ha        1 N4I      0.199500
     64 H34        -0.7010    2.5370   -7.4760 ha        1 N4I      0.199500
     65 H35        -0.6960    0.7280   -5.8060 ha        1 N4I      0.200500
     66 H62         0.0410   -3.0470    0.9820 hn        1 N4I      0.461300
     67 H211       -1.1060   -0.0320   -1.7470 hn        1 N4I      0.378800
     68 H283        0.1470    6.0380   -8.7430 hn        1 N4I      0.490800
@<TRIPOS>BOND
     1    1    2 1   
     2    1    6 1   
     3    1    8 1   
     4    1   39 1   
     5    2    3 1   
     6    2   23 1   
     7    2   40 1   
     8    3    5 1   
     9    3   41 1   
    10    3   42 1   
    11    4   28 1   
    12    4   35 ar  
    13    4   37 ar  
    14    5    6 1   
    15    5   43 1   
    16    6   44 1   
    17    6   45 1   
    18    7   10 ar  
    19    7   11 ar  
    20    7   46 1   
    21    8    9 1   
    22    8   47 1   
    23    8   66 1   
    24    9   10 1   
    25    9   48 1   
    26    9   49 1   
    27   10   15 ar  
    28   11   12 1   
    29   11   13 ar  
    30   12   50 1   
    31   13   14 ar  
    32   13   51 1   
    33   14   15 ar  
    34   14   52 1   
    35   15   53 1   
    36   16   17 ar  
    37   16   25 ar  
    38   16   54 1   
    39   17   18 ar  
    40   17   55 1   
    41   18   19 1   
    42   18   26 ar  
    43   19   20 1   
    44   19   21 1   
    45   19   22 1   
    46   23   24 1   
    47   23   67 1   
    48   24   25 1   
    49   24   56 1   
    50   24   57 1   
    51   25   27 ar  
    52   26   27 ar  
    53   26   58 1   
    54   27   59 1   
    55   28   30 1   
    56   28   36 2   
    57   29   31 1   
    58   29   32 1   
    59   29   33 1   
    60   30   60 1   
    61   30   61 1   
    62   30   68 1   
    63   33   34 ar  
    64   33   38 ar  
    65   34   35 ar  
    66   34   62 1   
    67   35   63 1   
    68   37   38 ar  
    69   37   64 1   
    70   38   65 1   
@<TRIPOS>SUBSTRUCTURE
     1 N4I         1 TEMP              0 ****  ****    0 ROOT
