@<TRIPOS>MOLECULE
N4I
   68    70     1     0     0
SMALL
bcc


@<TRIPOS>ATOM
      1 C1         -0.5070   -0.4940   -0.0300 c3        1 N4I      0.062500
      2 C2          0.4870   -0.6630   -1.2390 c3        1 N4I      0.134500
      3 C3          1.8790   -0.3570   -0.6030 c3        1 N4I      0.156800
      4 C4          2.6450    3.4410   -6.4980 ca        1 N4I     -0.056600
      5 N4          1.6780    0.4330    0.5970 n3        1 N4I     -0.828200
      6 C5          0.2840    0.3850    0.9900 c3        1 N4I      0.141800
      7 C6         -3.4010   -3.4660    1.6000 ca        1 N4I     -0.159000
      8 N6         -0.9380   -1.7920    0.5690 n4        1 N4I     -0.771000
      9 C7         -2.0070   -2.5070   -0.2200 c3        1 N4I      0.183100
     10 C8         -2.5060   -3.6810    0.5470 ca        1 N4I     -0.172300
     11 C9         -3.9050   -4.5740    2.3030 ca        1 N4I      0.161100
     12 O10        -4.7630   -4.2890    3.3270 oh        1 N4I     -0.474100
     13 C11        -3.5190   -5.8800    1.9490 ca        1 N4I     -0.149000
     14 C12        -2.6290   -6.0690    0.8970 ca        1 N4I     -0.070000
     15 C13        -2.1130   -4.9760    0.1970 ca        1 N4I     -0.135000
     16 C14        -1.3990    3.0580   -0.8010 ca        1 N4I     -0.140000
     17 C15        -2.6410    3.6150   -0.4870 ca        1 N4I     -0.064500
     18 C16        -3.7720    3.2310   -1.2090 ca        1 N4I     -0.136300
     19 C17        -5.1390    3.8460   -0.8790 c3        1 N4I      0.688200
     20 F18        -5.4370    4.9410   -1.6470 f         1 N4I     -0.211967
     21 F19        -6.1840    2.9790   -1.0670 f         1 N4I     -0.211967
     22 F20        -5.2530    4.2700    0.4190 f         1 N4I     -0.211967
     23 N21         0.1710    0.1520   -2.4160 n3        1 N4I     -0.905200
     24 C22         0.0670    1.5980   -2.2020 c3        1 N4I      0.170100
     25 C23        -1.2890    2.1250   -1.8370 ca        1 N4I     -0.153300
     26 C24        -3.6680    2.3040   -2.2500 ca        1 N4I     -0.064500
     27 C25        -2.4270    1.7560   -2.5650 ca        1 N4I     -0.140000
     28 C26         2.9670    4.7440   -7.1340 c         1 N4I      0.534700
     29 S27         1.6670   -0.3100   -4.3740 s4        1 N4I      1.656300
     30 N28         3.1820    4.7470   -8.6250 n4        1 N4I     -0.752400
     31 O28         2.6140   -0.7760   -3.5320 o         1 N4I     -0.388400
     32 O29         0.6290   -1.0150   -4.8740 o         1 N4I     -0.388400
     33 C30         1.9890    1.0760   -5.1040 ca        1 N4I     -0.526500
     34 C31         3.1350    1.8310   -4.7660 ca        1 N4I      0.037500
     35 C32         3.4630    3.0010   -5.4490 ca        1 N4I     -0.098000
     36 O33         3.0880    5.8170   -6.5720 o         1 N4I     -0.316100
     37 C34         1.5030    2.7160   -6.8570 ca        1 N4I     -0.098000
     38 C35         1.1800    1.5520   -6.1620 ca        1 N4I      0.037500
     39 H1         -1.4450    0.0540   -0.3440 hx        1 N4I      0.130700
     40 H2          0.4910   -1.7320   -1.6060 h1        1 N4I      0.084700
     41 H3          2.5430    0.2270   -1.2970 h1        1 N4I      0.072700
     42 H3A         2.3930   -1.3410   -0.4040 h1        1 N4I      0.072700
     43 HN4         2.3070    0.1810    1.3360 hn        1 N4I      0.418800
     44 H5         -0.1280    1.4360    0.9140 h1        1 N4I      0.092700
     45 H5A         0.1450    0.0490    2.0550 h1        1 N4I      0.092700
     46 H6         -3.7480   -2.4590    1.8750 ha        1 N4I      0.152000
     47 HN6        -0.1310   -2.4160    0.6820 hn        1 N4I      0.461300
     48 H7         -1.5580   -2.8190   -1.2040 hx        1 N4I      0.098700
     49 H7A        -2.8430   -1.7720   -0.4050 hx        1 N4I      0.098700
     50 HO10       -5.0880   -5.1210    3.7100 ho        1 N4I      0.455000
     51 H11        -3.9270   -6.7460    2.4990 ha        1 N4I      0.176000
     52 H12        -2.3300   -7.0920    0.6120 ha        1 N4I      0.172000
     53 H13        -1.4190   -5.1470   -0.6390 ha        1 N4I      0.137000
     54 H14        -0.5080    3.3780   -0.2370 ha        1 N4I      0.141000
     55 H15        -2.7300    4.3580    0.3270 ha        1 N4I      0.185000
     56 H22         0.8190    1.9200   -1.4230 h1        1 N4I      0.077200
     57 H22A        0.3640    2.0740   -3.1840 h1        1 N4I      0.077200
     58 H24        -4.5710    2.0160   -2.8180 ha        1 N4I      0.185000
     59 H25        -2.3610    1.0520   -3.4080 ha        1 N4I      0.141000
     60 HN28        4.0270    4.2110   -8.8660 hn        1 N4I      0.489133
     61 HN2A        2.3780    4.3370   -9.1130 hn        1 N4I      0.489133
     62 H31         3.8000    1.4900   -3.9430 ha        1 N4I      0.202500
     63 H32         4.3590    3.5780   -5.1460 ha        1 N4I      0.198500
     64 H34         0.8310    3.0590   -7.6650 ha        1 N4I      0.198500
     65 H35         0.2710    0.9870   -6.4580 ha        1 N4I      0.202500
     66 H62        -1.3180   -1.6080    1.5120 hn        1 N4I      0.461300
     67 H211       -0.7080   -0.1860   -2.7910 hn        1 N4I      0.399800
     68 H283        3.3100    5.7210   -8.9560 hn        1 N4I      0.489133
@<TRIPOS>BOND
     1    1    2 1   
     2    1    6 1   
     3    1    8 1   
     4    1   39 1   
     5    2    3 1   
     6    2   23 1   
     7    2   40 1   
     8    3    5 1   
     9    3   41 1   
    10    3   42 1   
    11    4   28 1   
    12    4   35 ar  
    13    4   37 ar  
    14    5    6 1   
    15    5   43 1   
    16    6   44 1   
    17    6   45 1   
    18    7   10 ar  
    19    7   11 ar  
    20    7   46 1   
    21    8    9 1   
    22    8   47 1   
    23    8   66 1   
    24    9   10 1   
    25    9   48 1   
    26    9   49 1   
    27   10   15 ar  
    28   11   12 1   
    29   11   13 ar  
    30   12   50 1   
    31   13   14 ar  
    32   13   51 1   
    33   14   15 ar  
    34   14   52 1   
    35   15   53 1   
    36   16   17 ar  
    37   16   25 ar  
    38   16   54 1   
    39   17   18 ar  
    40   17   55 1   
    41   18   19 1   
    42   18   26 ar  
    43   19   20 1   
    44   19   21 1   
    45   19   22 1   
    46   23   24 1   
    47   23   67 1   
    48   24   25 1   
    49   24   56 1   
    50   24   57 1   
    51   25   27 ar  
    52   26   27 ar  
    53   26   58 1   
    54   27   59 1   
    55   28   30 1   
    56   28   36 2   
    57   29   31 1   
    58   29   32 1   
    59   29   33 1   
    60   30   60 1   
    61   30   61 1   
    62   30   68 1   
    63   33   34 ar  
    64   33   38 ar  
    65   34   35 ar  
    66   34   62 1   
    67   35   63 1   
    68   37   38 ar  
    69   37   64 1   
    70   38   65 1   
@<TRIPOS>SUBSTRUCTURE
     1 N4I         1 TEMP              0 ****  ****    0 ROOT
