@<TRIPOS>MOLECULE
N4I
   65    68     1     0     0
SMALL
bcc


@<TRIPOS>ATOM
      1 C1          0.4130    1.9730    1.2730 c3        1 N4I      0.126500
      2 C2         -0.3380    2.8750    0.2230 c3        1 N4I      0.208500
      3 C3         -0.5020    4.2590    0.9360 c3        1 N4I      0.136800
      4 C4          0.8570   -1.4290   -2.9110 ca        1 N4I     -0.074600
      5 N4          0.1410    4.2200    2.2410 n3        1 N4I     -0.791200
      6 C5          0.3890    2.8280    2.5790 c3        1 N4I      0.152800
      7 C6          4.7340   -0.0480    1.8980 ca        1 N4I     -0.201000
      8 N6          1.7700    1.6570    0.8540 n3        1 N4I     -0.818200
      9 C7          2.3200    0.4910    1.5190 c3        1 N4I      0.205100
     10 C8          3.6720    0.0930    1.0010 ca        1 N4I     -0.034300
     11 C9          5.9870   -0.4570    1.4210 ca        1 N4I      0.133100
     12 O10         7.0750   -0.6240    2.2460 oh        1 N4I     -0.493100
     13 C11         6.1930   -0.7200    0.0560 ca        1 N4I     -0.152000
     14 C12         5.1260   -0.5680   -0.8220 ca        1 N4I     -0.105000
     15 C13         3.8710   -0.1690   -0.3580 ca        1 N4I     -0.180000
     16 C14        -2.4660    0.0930    2.1750 ca        1 N4I     -0.130500
     17 C15        -2.7980   -1.2130    2.5290 ca        1 N4I     -0.086000
     18 C16        -3.6170   -1.9700    1.6880 ca        1 N4I     -0.163300
     19 C17        -3.9930   -3.3930    2.0810 c3        1 N4I      0.686200
     20 F18        -5.1360   -3.4850    2.8380 f         1 N4I     -0.235633
     21 F19        -4.2240   -4.2360    1.0210 f         1 N4I     -0.235633
     22 F20        -3.0440   -4.0470    2.8290 f         1 N4I     -0.235633
     23 N21        -1.5590    2.3050   -0.2880 n3        1 N4I     -0.796500
     24 C22        -2.6450    2.0810    0.6350 c3        1 N4I      0.257100
     25 C23        -2.9450    0.6450    0.9820 ca        1 N4I     -0.089300
     26 C24        -4.1100   -1.4230    0.5020 ca        1 N4I     -0.086000
     27 C25        -3.7740   -0.1170    0.1510 ca        1 N4I     -0.130500
     28 C26         1.6850   -2.6220   -3.2660 c         1 N4I      0.658700
     29 S27        -1.7450    2.1010   -1.9060 sy        1 N4I      1.500200
     30 N28         2.9680   -2.6780   -2.7800 n         1 N4I     -0.670000
     31 O28        -3.0870    1.7660   -2.1860 o         1 N4I     -0.646800
     32 O29        -1.2130    3.2160   -2.5860 o         1 N4I     -0.646800
     33 C30        -0.7580    0.7690   -2.2520 ca        1 N4I     -0.360500
     34 C31        -1.2630   -0.5330   -2.1860 ca        1 N4I     -0.027500
     35 C32        -0.4690   -1.6300   -2.5150 ca        1 N4I     -0.124000
     36 O33         1.2380   -3.5370   -3.9850 o         1 N4I     -0.589100
     37 C34         1.3730   -0.1320   -2.9980 ca        1 N4I     -0.124000
     38 C35         0.5650    0.9550   -2.6710 ca        1 N4I     -0.027500
     39 H1         -0.1820    1.0300    1.4630 h1        1 N4I      0.047700
     40 H2          0.3270    3.0520   -0.6790 h1        1 N4I      0.068700
     41 H3         -0.0630    5.0610    0.2830 h1        1 N4I      0.062700
     42 H3A        -1.5850    4.5120    1.0990 h1        1 N4I      0.062700
     43 HN4         1.0050    4.7300    2.2180 hn        1 N4I      0.360800
     44 H5         -0.4720    2.4730    3.2110 h1        1 N4I      0.055200
     45 H5A         1.3310    2.7170    3.1770 h1        1 N4I      0.055200
     46 H6          4.5930    0.1640    2.9680 ha        1 N4I      0.138000
     47 HN6         1.8150    1.5460   -0.1430 hn        1 N4I      0.362800
     48 H7          2.3920    0.7380    2.6170 h1        1 N4I      0.041700
     49 H7A         1.6430   -0.4140    1.4270 h1        1 N4I      0.041700
     50 HO10        6.8080   -0.3910    3.1470 ho        1 N4I      0.422000
     51 H11         7.1860   -1.0330   -0.2940 ha        1 N4I      0.155000
     52 H12         5.2780   -0.7580   -1.8960 ha        1 N4I      0.133000
     53 H13         3.0400   -0.0530   -1.0700 ha        1 N4I      0.127000
     54 H14        -1.8360    0.6940    2.8490 ha        1 N4I      0.161500
     55 H15        -2.4190   -1.6510    3.4660 ha        1 N4I      0.155000
     56 H22        -2.4320    2.6330    1.5980 h1        1 N4I      0.075700
     57 H22A       -3.5840    2.5260    0.1840 h1        1 N4I      0.075700
     58 H24        -4.7630   -2.0240   -0.1520 ha        1 N4I      0.155000
     59 H25        -4.1750    0.3250   -0.7810 ha        1 N4I      0.161500
     60 HN28        3.2930   -2.0210   -2.1150 hn        1 N4I      0.317500
     61 HN2A        3.5120   -3.4870   -2.9540 hn        1 N4I      0.317500
     62 H31        -2.3140   -0.6920   -1.8810 ha        1 N4I      0.159500
     63 H32        -0.8800   -2.6520   -2.4830 ha        1 N4I      0.158000
     64 H34         2.4030    0.0370   -3.3470 ha        1 N4I      0.158000
     65 H35         0.9640    1.9810   -2.7670 ha        1 N4I      0.159500
@<TRIPOS>BOND
     1    1    2 1   
     2    1    6 1   
     3    1    8 1   
     4    1   39 1   
     5    2    3 1   
     6    2   23 1   
     7    2   40 1   
     8    3    5 1   
     9    3   41 1   
    10    3   42 1   
    11    4   28 1   
    12    4   35 ar  
    13    4   37 ar  
    14    5    6 1   
    15    5   43 1   
    16    6   44 1   
    17    6   45 1   
    18    7   10 ar  
    19    7   11 ar  
    20    7   46 1   
    21    8    9 1   
    22    8   47 1   
    23    9   10 1   
    24    9   48 1   
    25    9   49 1   
    26   10   15 ar  
    27   11   12 1   
    28   11   13 ar  
    29   12   50 1   
    30   13   14 ar  
    31   13   51 1   
    32   14   15 ar  
    33   14   52 1   
    34   15   53 1   
    35   16   17 ar  
    36   16   25 ar  
    37   16   54 1   
    38   17   18 ar  
    39   17   55 1   
    40   18   19 1   
    41   18   26 ar  
    42   19   20 1   
    43   19   21 1   
    44   19   22 1   
    45   23   24 1   
    46   23   29 1   
    47   24   25 1   
    48   24   56 1   
    49   24   57 1   
    50   25   27 ar  
    51   26   27 ar  
    52   26   58 1   
    53   27   59 1   
    54   28   30 1   
    55   28   36 2   
    56   29   31 2   
    57   29   32 2   
    58   29   33 1   
    59   30   60 1   
    60   30   61 1   
    61   33   34 ar  
    62   33   38 ar  
    63   34   35 ar  
    64   34   62 1   
    65   35   63 1   
    66   37   38 ar  
    67   37   64 1   
    68   38   65 1   
@<TRIPOS>SUBSTRUCTURE
     1 N4I         1 TEMP              0 ****  ****    0 ROOT
