@<TRIPOS>MOLECULE
N4I
   68    70     1     0     0
SMALL
bcc


@<TRIPOS>ATOM
      1 C1         -0.6530   -1.0360    0.7900 c3        1 N4I      0.061500
      2 C2          0.2520   -0.8270   -0.4850 c3        1 N4I      0.142500
      3 C3          1.6550   -0.5650    0.1440 c3        1 N4I      0.148800
      4 C4          1.2010    3.4770   -6.6600 ca        1 N4I     -0.039600
      5 N4          1.4430    0.0490    1.4420 n7        1 N4I     -0.828200
      6 C5          0.1150   -0.2830    1.9240 c3        1 N4I      0.140800
      7 C6         -2.9960   -4.6490    1.9470 ca        1 N4I     -0.159000
      8 N6         -0.8610   -2.4760    1.1310 ny        1 N4I     -0.770000
      9 C7         -1.8990   -3.1660    0.2810 c3        1 N4I      0.183100
     10 C8         -2.1760   -4.5260    0.8200 ca        1 N4I     -0.171300
     11 C9         -3.2890   -5.9320    2.4380 ca        1 N4I      0.161100
     12 O10        -4.0850   -5.9760    3.5480 oh        1 N4I     -0.474100
     13 C11        -2.7720   -7.0770    1.8040 ca        1 N4I     -0.150000
     14 C12        -1.9600   -6.9290    0.6840 ca        1 N4I     -0.070000
     15 C13        -1.6520   -5.6580    0.1900 ca        1 N4I     -0.136000
     16 C14        -1.9700    2.4010   -2.4980 ca        1 N4I     -0.138500
     17 C15        -2.4400    3.4110   -3.3370 ca        1 N4I     -0.073000
     18 C16        -1.7480    4.6220   -3.4130 ca        1 N4I     -0.170300
     19 C17        -2.2020    5.6940   -4.3980 c3        1 N4I      0.703200
     20 F18        -1.9450    6.9820   -4.0250 f         1 N4I     -0.237300
     21 F19        -1.5440    5.5800   -5.6190 f         1 N4I     -0.237300
     22 F20        -3.5210    5.6540   -4.7470 f         1 N4I     -0.237300
     23 N21        -0.1960    0.2200   -1.4010 n7        1 N4I     -0.883200
     24 C22        -0.2930    1.5520   -0.7990 c3        1 N4I      0.154100
     25 C23        -0.8140    2.6010   -1.7360 ca        1 N4I     -0.112300
     26 C24        -0.6350    4.8560   -2.6030 ca        1 N4I     -0.073000
     27 C25        -0.1640    3.8410   -1.7710 ca        1 N4I     -0.138500
     28 C26         1.3090    4.5010   -7.7310 c         1 N4I      0.531700
     29 S27         1.2630    0.2060   -3.7030 s4        1 N4I      1.672300
     30 N28         0.1280    5.4100   -7.9290 nz        1 N4I     -0.749400
     31 O28         2.3080    0.1850   -2.8550 o         1 N4I     -0.382400
     32 O29         0.4000   -0.8080   -3.9240 o         1 N4I     -0.382400
     33 C30         1.1950    1.4220   -4.7210 ca        1 N4I     -0.544500
     34 C31         2.1600    2.4570   -4.6920 ca        1 N4I      0.044500
     35 C32         2.1710    3.4690   -5.6490 ca        1 N4I     -0.100000
     36 O33         2.2660    4.6870   -8.4610 o         1 N4I     -0.314100
     37 C34         0.2200    2.4790   -6.7070 ca        1 N4I     -0.100000
     38 C35         0.2220    1.4680   -5.7500 ca        1 N4I      0.044500
     39 H1         -1.6770   -0.5840    0.6570 hx        1 N4I      0.115700
     40 H2          0.2950   -1.7700   -1.1040 h1        1 N4I      0.083700
     41 H3          2.1940   -1.5540    0.2010 h1        1 N4I      0.076700
     42 H3A         2.2870    0.1270   -0.4800 h1        1 N4I      0.076700
     43 HN4         2.1690   -0.1670    2.0990 hn        1 N4I      0.420800
     44 H5          0.1320   -0.8600    2.8910 h1        1 N4I      0.090700
     45 H5A        -0.4270    0.6860    2.1290 h1        1 N4I      0.090700
     46 H6         -3.4420   -3.7740    2.4420 ha        1 N4I      0.153000
     47 HN6        -1.1690   -2.5420    2.1150 hn        1 N4I      0.461300
     48 H7         -2.8330   -2.5340    0.3050 hx        1 N4I      0.099200
     49 H7A        -1.5060   -3.2130   -0.7730 hx        1 N4I      0.099200
     50 HO10       -4.2610   -6.9050    3.7760 ho        1 N4I      0.455000
     51 H11        -3.0140   -8.0810    2.1900 ha        1 N4I      0.176000
     52 H12        -1.5580   -7.8240    0.1790 ha        1 N4I      0.172000
     53 H13        -1.0180   -5.5620   -0.7030 ha        1 N4I      0.136000
     54 H14        -2.5520    1.4700   -2.4140 ha        1 N4I      0.158500
     55 H15        -3.3690    3.2650   -3.9180 ha        1 N4I      0.179000
     56 H22        -0.9670    1.5470    0.1110 h1        1 N4I      0.095700
     57 H22A        0.7370    1.8430   -0.4330 h1        1 N4I      0.095700
     58 H24        -0.1470    5.8470   -2.6020 ha        1 N4I      0.179000
     59 H25         0.7020    4.0360   -1.1150 ha        1 N4I      0.158500
     60 HN28        0.0410    6.0610   -7.1310 hn        1 N4I      0.490800
     61 HN2A       -0.7450    4.8740   -7.9910 hn        1 N4I      0.490800
     62 H31         2.9460    2.4570   -3.9060 ha        1 N4I      0.200500
     63 H32         2.9640    4.2430   -5.6170 ha        1 N4I      0.199500
     64 H34        -0.5400    2.4550   -7.5090 ha        1 N4I      0.199500
     65 H35        -0.5480    0.6700   -5.8140 ha        1 N4I      0.200500
     66 H62         0.0270   -2.9860    1.0550 hn        1 N4I      0.461300
     67 H211       -1.1000   -0.0480   -1.7640 hn        1 N4I      0.378800
     68 H283        0.2500    5.9640   -8.7940 hn        1 N4I      0.490800
@<TRIPOS>BOND
     1    1    2 1   
     2    1    6 1   
     3    1    8 1   
     4    1   39 1   
     5    2    3 1   
     6    2   23 1   
     7    2   40 1   
     8    3    5 1   
     9    3   41 1   
    10    3   42 1   
    11    4   28 1   
    12    4   35 ar  
    13    4   37 ar  
    14    5    6 1   
    15    5   43 1   
    16    6   44 1   
    17    6   45 1   
    18    7   10 ar  
    19    7   11 ar  
    20    7   46 1   
    21    8    9 1   
    22    8   47 1   
    23    8   66 1   
    24    9   10 1   
    25    9   48 1   
    26    9   49 1   
    27   10   15 ar  
    28   11   12 1   
    29   11   13 ar  
    30   12   50 1   
    31   13   14 ar  
    32   13   51 1   
    33   14   15 ar  
    34   14   52 1   
    35   15   53 1   
    36   16   17 ar  
    37   16   25 ar  
    38   16   54 1   
    39   17   18 ar  
    40   17   55 1   
    41   18   19 1   
    42   18   26 ar  
    43   19   20 1   
    44   19   21 1   
    45   19   22 1   
    46   23   24 1   
    47   23   67 1   
    48   24   25 1   
    49   24   56 1   
    50   24   57 1   
    51   25   27 ar  
    52   26   27 ar  
    53   26   58 1   
    54   27   59 1   
    55   28   30 1   
    56   28   36 2   
    57   29   31 1   
    58   29   32 1   
    59   29   33 1   
    60   30   60 1   
    61   30   61 1   
    62   30   68 1   
    63   33   34 ar  
    64   33   38 ar  
    65   34   35 ar  
    66   34   62 1   
    67   35   63 1   
    68   37   38 ar  
    69   37   64 1   
    70   38   65 1   
@<TRIPOS>SUBSTRUCTURE
     1 N4I         1 TEMP              0 ****  ****    0 ROOT
