@<TRIPOS>MOLECULE
N4T
   47    50     1     0     0
SMALL
bcc


@<TRIPOS>ATOM
      1 C1         -0.0860    0.8910    0.6190 ca        1 N4T      0.131900
      2 C2          1.3160    0.9120    0.6770 ca        1 N4T     -0.134000
      3 C3          2.0290   -0.1530    1.2480 ca        1 N4T     -0.054800
      4 C4          1.2940   -1.2500    1.7580 ca        1 N4T      0.109900
      5 C5         -0.1130   -1.2660    1.6990 ca        1 N4T     -0.129000
      6 C6         -0.8040   -0.2050    1.1350 ca        1 N4T     -0.124000
      7 C10         3.4730   -0.0820    1.2920 ce        1 N4T     -0.074400
      8 C11         4.3250   -1.2470    1.7750 c3        1 N4T      0.115200
      9 N12         5.7080   -0.8060    1.5970 n         1 N4T     -0.433800
     10 C13         5.7410    0.6030    1.1240 c3        1 N4T      0.187200
     11 C14         4.2740    0.9490    0.9340 c2        1 N4T     -0.146200
     12 C17         6.4310    1.5400    2.0720 ca        1 N4T     -0.129300
     13 C19         5.7180    2.2230    3.0620 ca        1 N4T     -0.104500
     14 C20         6.3770    3.1190    3.9040 ca        1 N4T     -0.131000
     15 C21         7.7480    3.3320    3.7650 ca        1 N4T     -0.103000
     16 C22         8.4640    2.6440    2.7840 ca        1 N4T     -0.131000
     17 C23         7.8100    1.7480    1.9400 ca        1 N4T     -0.104500
     18 C8          6.7920   -1.6170    1.5560 c         1 N4T      0.659100
     19 C7          6.6510   -3.0690    2.1150 c3        1 N4T      0.078500
     20 C35         6.6260   -3.0230    3.6200 cx        1 N4T     -0.179700
     21 F40         1.9220   -2.3150    2.3170 f         1 N4T     -0.152900
     22 F41        -0.7480    1.9310    0.0630 f         1 N4T     -0.119900
     23 O2          7.9160   -1.2710    1.1270 o         1 N4T     -0.619100
     24 C15         6.7960   -4.2600    4.4650 cx        1 N4T     -0.116900
     25 N1          7.7780   -3.8990    1.5650 n4        1 N4T     -0.839600
     26 C12         7.8480   -3.1940    4.4850 cx        1 N4T     -0.116900
     27 H2          1.8520    1.7810    0.2650 ha        1 N4T      0.159000
     28 H5         -0.6570   -2.1320    2.1080 ha        1 N4T      0.165000
     29 H6         -1.9050   -0.2110    1.0860 ha        1 N4T      0.171000
     30 H111        4.1190   -1.4640    2.8600 h1        1 N4T      0.069700
     31 H112        4.1100   -2.1690    1.1670 h1        1 N4T      0.069700
     32 H13         6.2800    0.6270    0.1280 h1        1 N4T      0.093700
     33 H14         4.0000    1.9350    0.5540 ha        1 N4T      0.179000
     34 H19         4.6350    2.0630    3.1740 ha        1 N4T      0.142500
     35 H20         5.8110    3.6610    4.6770 ha        1 N4T      0.144500
     36 H21         8.2650    4.0440    4.4260 ha        1 N4T      0.146000
     37 H22         9.5460    2.8120    2.6710 ha        1 N4T      0.144500
     38 H23         8.3750    1.1950    1.1730 ha        1 N4T      0.142500
     39 H7          5.6880   -3.5400    1.7480 hx        1 N4T      0.120700
     40 H35         5.8690   -2.2780    3.9560 hc        1 N4T      0.137700
     41 H151        7.0080   -5.2370    3.9970 hc        1 N4T      0.092200
     42 H152        6.1350   -4.3830    5.3450 hc        1 N4T      0.092200
     43 HN11        7.9480   -4.7080    2.1680 hn        1 N4T      0.469800
     44 HN12        8.6280   -3.3080    1.5220 hn        1 N4T      0.469800
     45 H121        8.8380   -3.3860    4.0350 hc        1 N4T      0.092200
     46 H122        7.9440   -2.5460    5.3790 hc        1 N4T      0.092200
     47 H131        7.5520   -4.2080    0.6170 hn        1 N4T      0.469800
@<TRIPOS>BOND
     1    1    2 ar  
     2    1    6 ar  
     3    1   22 1   
     4    2    3 ar  
     5    2   27 1   
     6    3    4 ar  
     7    3    7 1   
     8    4    5 ar  
     9    4   21 1   
    10    5    6 ar  
    11    5   28 1   
    12    6   29 1   
    13    7    8 1   
    14    7   11 2   
    15    8    9 1   
    16    8   30 1   
    17    8   31 1   
    18    9   10 1   
    19    9   18 1   
    20   10   11 1   
    21   10   12 1   
    22   10   32 1   
    23   11   33 1   
    24   12   13 ar  
    25   12   17 ar  
    26   13   14 ar  
    27   13   34 1   
    28   14   15 ar  
    29   14   35 1   
    30   15   16 ar  
    31   15   36 1   
    32   16   17 ar  
    33   16   37 1   
    34   17   38 1   
    35   18   19 1   
    36   18   23 2   
    37   19   20 1   
    38   19   25 1   
    39   19   39 1   
    40   20   24 1   
    41   20   26 1   
    42   20   40 1   
    43   24   26 1   
    44   24   41 1   
    45   24   42 1   
    46   25   43 1   
    47   25   44 1   
    48   25   47 1   
    49   26   45 1   
    50   26   46 1   
@<TRIPOS>SUBSTRUCTURE
     1 N4T         1 TEMP              0 ****  ****    0 ROOT
