@<TRIPOS>MOLECULE
N4T
   46    44     1     0     0
SMALL
bcc


@<TRIPOS>ATOM
      1 C1         -5.6650    0.5610    0.1460 c1        1 N4T      0.085000
      2 C2         -4.3420    0.1460    0.2290 c1        1 N4T     -0.136000
      3 C3         -3.3170    1.0100   -0.1440 c1        1 N4T     -0.032000
      4 C4         -3.6170    2.2890   -0.5990 c1        1 N4T      0.085000
      5 C5         -4.9420    2.7030   -0.6820 c1        1 N4T     -0.138500
      6 C6         -5.9660    1.8390   -0.3100 c1        1 N4T     -0.138500
      7 C10        -1.8470    0.5860    0.0430 c2        1 N4T     -0.092000
      8 C11        -1.2120    0.8910    1.1480 c3        1 N4T     -0.004000
      9 N12         0.1320    0.0140    0.9470 n         1 N4T     -0.315000
     10 C13        -0.1220   -0.8520   -0.3560 c3        1 N4T      0.085000
     11 C14        -1.3530   -0.5860   -0.6110 c2        1 N4T     -0.155000
     12 C17         0.6290   -0.1970   -1.3980 c2        1 N4T     -0.091000
     13 C19         0.8790    1.1680   -1.3220 c2        1 N4T     -0.093000
     14 C20         1.6520    1.7910   -2.2990 c1        1 N4T     -0.129000
     15 C21         2.1740    1.0460   -3.3530 c1        1 N4T     -0.126000
     16 C22         1.9240   -0.3200   -3.4290 c1        1 N4T     -0.126000
     17 C23         1.1520   -0.9420   -2.4530 c1        1 N4T     -0.127000
     18 C8          1.3180    0.0190    1.7840 c2        1 N4T      0.311000
     19 C7          2.6800   -1.1760    1.4540 c3        1 N4T     -0.013000
     20 C35         2.7100   -1.6850    2.0230 cx        1 N4T     -0.212000
     21 F40        -2.6330    3.1040   -1.0090 f         1 N4T     -0.099000
     22 F41        -6.6520   -0.2610    0.5400 f         1 N4T     -0.099000
     23 O2          1.3690    0.7450    2.7630 o         1 N4T     -0.369000
     24 C15         3.6220   -2.3060    2.0760 cx        1 N4T     -0.206500
     25 N1          4.2050   -0.3050    1.3790 n3        1 N4T     -0.325000
     26 C12         2.6700   -2.7470    1.7300 cx        1 N4T     -0.206500
     27 H2         -4.1300   -0.7570    0.5500 ha        1 N4T      0.156000
     28 H5         -5.1550    3.6070   -1.0040 ha        1 N4T      0.157000
     29 H6         -6.9020    2.1320   -0.3690 ha        1 N4T      0.157000
     30 H111       -1.0980    1.8250    1.4400 h1        1 N4T      0.119500
     31 H112       -1.7410    0.5270    1.8960 h1        1 N4T      0.119500
     32 H13         0.1880   -1.7850   -0.3850 h1        1 N4T      0.104000
     33 H14        -1.7570   -0.8850   -1.4570 ha        1 N4T      0.159000
     34 H19         0.5110    1.6930   -0.5800 ha        1 N4T      0.145000
     35 H20         1.8280    2.7560   -2.2450 ha        1 N4T      0.136000
     36 H21         2.7190    1.4850   -4.0420 ha        1 N4T      0.132500
     37 H22         2.2940   -0.8460   -4.1740 ha        1 N4T      0.132500
     38 H23         0.9750   -1.9080   -2.5070 ha        1 N4T      0.126000
     39 H7          2.5180   -1.6380    0.6010 h1        1 N4T      0.122000
     40 H35         2.2930   -1.4680    2.8930 hc        1 N4T      0.138000
     41 H151        3.9110   -2.5670    2.9830 hc        1 N4T      0.112500
     42 H152        4.2950   -2.1390    1.3750 hc        1 N4T      0.112500
     43 HN11        4.8590   -0.7980    1.7930 hn        1 N4T      0.156000
     44 HN12        4.1160    0.5050    1.8050 hn        1 N4T      0.156000
     45 H121        2.2210   -3.3510    2.3690 hc        1 N4T      0.112500
     46 H122        2.6060   -2.9220    0.7620 hc        1 N4T      0.112500
@<TRIPOS>BOND
     1    1    6 1   
     2    1   22 1   
     3    2    3 1   
     4    2   27 1   
     5    3    7 1   
     6    4    5 1   
     7    4   21 1   
     8    5   28 1   
     9    6   29 1   
    10    7    8 1   
    11    7   11 1   
    12    8    9 1   
    13    8   30 1   
    14    8   31 1   
    15    9   10 1   
    16    9   18 1   
    17   10   11 1   
    18   10   12 1   
    19   10   32 1   
    20   11   33 1   
    21   12   13 1   
    22   12   17 1   
    23   13   14 1   
    24   13   34 1   
    25   14   35 1   
    26   15   16 1   
    27   15   36 1   
    28   16   37 1   
    29   17   38 1   
    30   18   19 1   
    31   18   23 1   
    32   19   20 1   
    33   19   25 1   
    34   19   39 1   
    35   20   24 1   
    36   20   26 1   
    37   20   40 1   
    38   24   26 1   
    39   24   41 1   
    40   24   42 1   
    41   25   43 1   
    42   25   44 1   
    43   26   45 1   
    44   26   46 1   
@<TRIPOS>SUBSTRUCTURE
     1 N4T         1 TEMP              0 ****  ****    0 ROOT
