@<TRIPOS>MOLECULE
N4T
   47    50     1     0     0
SMALL
bcc


@<TRIPOS>ATOM
      1 C1         -0.0800    0.9090    0.6150 ca        1 N4T      0.131900
      2 C2          1.3220    0.9310    0.6810 ca        1 N4T     -0.134000
      3 C3          2.0340   -0.1410    1.2390 ca        1 N4T     -0.054800
      4 C4          1.2980   -1.2460    1.7300 ca        1 N4T      0.109900
      5 C5         -0.1100   -1.2630    1.6630 ca        1 N4T     -0.129000
      6 C6         -0.8000   -0.1950    1.1110 ca        1 N4T     -0.124000
      7 C10         3.4770   -0.0690    1.2910 ce        1 N4T     -0.074400
      8 C11         4.3280   -1.2390    1.7630 c3        1 N4T      0.115200
      9 N12         5.7110   -0.7940    1.5980 n         1 N4T     -0.434800
     10 C13         5.7450    0.6210    1.1430 c3        1 N4T      0.187200
     11 C14         4.2780    0.9680    0.9510 c2        1 N4T     -0.146200
     12 C17         6.4300    1.5470    2.1070 ca        1 N4T     -0.129300
     13 C19         5.7110    2.2160    3.1030 ca        1 N4T     -0.104500
     14 C20         6.3640    3.1020    3.9590 ca        1 N4T     -0.131000
     15 C21         7.7360    3.3180    3.8280 ca        1 N4T     -0.103000
     16 C22         8.4570    2.6440    2.8420 ca        1 N4T     -0.131000
     17 C23         7.8080    1.7580    1.9840 ca        1 N4T     -0.104500
     18 C8          6.7960   -1.6030    1.5520 c         1 N4T      0.659100
     19 C7          6.6550   -3.0620    2.0910 c3        1 N4T      0.078500
     20 C35         6.6220   -3.0370    3.5960 cx        1 N4T     -0.179700
     21 F40         1.9240   -2.3190    2.2770 f         1 N4T     -0.152900
     22 F41        -0.7410    1.9560    0.0710 f         1 N4T     -0.119900
     23 O2          7.9220   -1.2490    1.1320 o         1 N4T     -0.619100
     24 C15         6.7900   -4.2840    4.4250 cx        1 N4T     -0.116900
     25 N1          7.7850   -3.8830    1.5350 nz        1 N4T     -0.839600
     26 C12         7.8400   -3.2160    4.4650 cx        1 N4T     -0.116900
     27 H2          1.8590    1.8070    0.2840 ha        1 N4T      0.159000
     28 H5         -0.6540   -2.1350    2.0570 ha        1 N4T      0.165000
     29 H6         -1.9000   -0.2020    1.0560 ha        1 N4T      0.171000
     30 H111        4.1170   -1.4710    2.8440 h1        1 N4T      0.069700
     31 H112        4.1170   -2.1530    1.1420 h1        1 N4T      0.069700
     32 H13         6.2890    0.6590    0.1500 h1        1 N4T      0.093700
     33 H14         4.0050    1.9580    0.5830 ha        1 N4T      0.179000
     34 H19         4.6270    2.0530    3.2070 ha        1 N4T      0.142500
     35 H20         5.7940    3.6330    4.7360 ha        1 N4T      0.144500
     36 H21         8.2490    4.0230    4.5010 ha        1 N4T      0.146000
     37 H22         9.5390    2.8150    2.7360 ha        1 N4T      0.144500
     38 H23         8.3780    1.2160    1.2120 ha        1 N4T      0.142500
     39 H7          5.6950   -3.5300    1.7120 hx        1 N4T      0.121700
     40 H35         5.8620   -2.2970    3.9380 hc        1 N4T      0.137700
     41 H151        7.0070   -5.2550    3.9460 hc        1 N4T      0.092200
     42 H152        6.1250   -4.4200    5.3010 hc        1 N4T      0.092200
     43 HN11        7.5650   -4.1800    0.5820 hn        1 N4T      0.469800
     44 HN12        7.9540   -4.7000    2.1280 hn        1 N4T      0.469800
     45 H121        7.9300   -2.5800    5.3670 hc        1 N4T      0.092200
     46 H122        8.8320   -3.4000    4.0170 hc        1 N4T      0.092200
     47 H131        8.6360   -3.2910    1.5050 hn        1 N4T      0.469800
@<TRIPOS>BOND
     1    1    2 ar  
     2    1    6 ar  
     3    1   22 1   
     4    2    3 ar  
     5    2   27 1   
     6    3    4 ar  
     7    3    7 1   
     8    4    5 ar  
     9    4   21 1   
    10    5    6 ar  
    11    5   28 1   
    12    6   29 1   
    13    7    8 1   
    14    7   11 2   
    15    8    9 1   
    16    8   30 1   
    17    8   31 1   
    18    9   10 1   
    19    9   18 1   
    20   10   11 1   
    21   10   12 1   
    22   10   32 1   
    23   11   33 1   
    24   12   13 ar  
    25   12   17 ar  
    26   13   14 ar  
    27   13   34 1   
    28   14   15 ar  
    29   14   35 1   
    30   15   16 ar  
    31   15   36 1   
    32   16   17 ar  
    33   16   37 1   
    34   17   38 1   
    35   18   19 1   
    36   18   23 2   
    37   19   20 1   
    38   19   25 1   
    39   19   39 1   
    40   20   24 1   
    41   20   26 1   
    42   20   40 1   
    43   24   26 1   
    44   24   41 1   
    45   24   42 1   
    46   25   43 1   
    47   25   44 1   
    48   25   47 1   
    49   26   45 1   
    50   26   46 1   
@<TRIPOS>SUBSTRUCTURE
     1 N4T         1 TEMP              0 ****  ****    0 ROOT
