@<TRIPOS>MOLECULE
N4T
   47    50     1     0     0
SMALL
bcc


@<TRIPOS>ATOM
      1 C1         -0.0830    0.9130    0.6380 ca        1 N4T      0.131900
      2 C2          1.3190    0.9310    0.6970 ca        1 N4T     -0.134000
      3 C3          2.0310   -0.1420    1.2530 ca        1 N4T     -0.054800
      4 C4          1.2940   -1.2440    1.7500 ca        1 N4T      0.109900
      5 C5         -0.1130   -1.2570    1.6910 ca        1 N4T     -0.129000
      6 C6         -0.8030   -0.1890    1.1410 ca        1 N4T     -0.124000
      7 C10         3.4740   -0.0740    1.2970 ce        1 N4T     -0.074400
      8 C11         4.3250   -1.2440    1.7710 c3        1 N4T      0.115200
      9 N12         5.7080   -0.8040    1.5970 n         1 N4T     -0.434800
     10 C13         5.7440    0.6090    1.1330 c3        1 N4T      0.187200
     11 C14         4.2770    0.9580    0.9470 c2        1 N4T     -0.146200
     12 C17         6.4360    1.5380    2.0880 ca        1 N4T     -0.129300
     13 C19         5.7240    2.2150    3.0830 ca        1 N4T     -0.104500
     14 C20         6.3840    3.1040    3.9310 ca        1 N4T     -0.131000
     15 C21         7.7560    3.3170    3.7920 ca        1 N4T     -0.103000
     16 C22         8.4700    2.6350    2.8050 ca        1 N4T     -0.131000
     17 C23         7.8140    1.7450    1.9560 ca        1 N4T     -0.104500
     18 C8          6.7910   -1.6160    1.5510 c         1 N4T      0.659100
     19 C7          6.6480   -3.0710    2.1000 c3        1 N4T      0.078500
     20 C35         6.6220   -3.0360    3.6050 cx        1 N4T     -0.179700
     21 F40         1.9210   -2.3180    2.2950 f         1 N4T     -0.152900
     22 F41        -0.7450    1.9610    0.0970 f         1 N4T     -0.119900
     23 O2          7.9160   -1.2680    1.1240 o         1 N4T     -0.619100
     24 C15         6.7910   -4.2790    4.4410 cx        1 N4T     -0.116900
     25 N1          7.7730   -3.8990    1.5440 n4        1 N4T     -0.839600
     26 C12         7.8440   -3.2140    4.4690 cx        1 N4T     -0.116900
     27 H2          1.8560    1.8050    0.2950 ha        1 N4T      0.159000
     28 H5         -0.6590   -2.1270    2.0890 ha        1 N4T      0.165000
     29 H6         -1.9040   -0.1920    1.0920 ha        1 N4T      0.171000
     30 H111        4.1180   -1.4700    2.8540 h1        1 N4T      0.069700
     31 H112        4.1090   -2.1610    1.1560 h1        1 N4T      0.069700
     32 H13         6.2830    0.6380    0.1380 h1        1 N4T      0.093700
     33 H14         4.0050    1.9470    0.5740 ha        1 N4T      0.179000
     34 H19         4.6410    2.0560    3.1940 ha        1 N4T      0.142500
     35 H20         5.8190    3.6420    4.7070 ha        1 N4T      0.144500
     36 H21         8.2740    4.0240    4.4570 ha        1 N4T      0.146000
     37 H22         9.5520    2.8020    2.6930 ha        1 N4T      0.144500
     38 H23         8.3790    1.1970    1.1850 ha        1 N4T      0.142500
     39 H7          5.6850   -3.5390    1.7290 hx        1 N4T      0.121700
     40 H35         5.8660   -2.2920    3.9460 hc        1 N4T      0.137700
     41 H151        6.1300   -4.4070    5.3210 hc        1 N4T      0.092200
     42 H152        7.0020   -5.2530    3.9660 hc        1 N4T      0.092200
     43 HN11        8.6250   -3.3100    1.5060 hn        1 N4T      0.469800
     44 HN12        7.5480   -4.2010    0.5940 hn        1 N4T      0.469800
     45 H121        8.8340   -3.4040    4.0180 hc        1 N4T      0.092200
     46 H122        7.9400   -2.5720    5.3670 hc        1 N4T      0.092200
     47 H131        7.9420   -4.7130    2.1410 hn        1 N4T      0.469800
@<TRIPOS>BOND
     1    1    2 ar  
     2    1    6 ar  
     3    1   22 1   
     4    2    3 ar  
     5    2   27 1   
     6    3    4 ar  
     7    3    7 1   
     8    4    5 ar  
     9    4   21 1   
    10    5    6 ar  
    11    5   28 1   
    12    6   29 1   
    13    7    8 1   
    14    7   11 2   
    15    8    9 1   
    16    8   30 1   
    17    8   31 1   
    18    9   10 1   
    19    9   18 1   
    20   10   11 1   
    21   10   12 1   
    22   10   32 1   
    23   11   33 1   
    24   12   13 ar  
    25   12   17 ar  
    26   13   14 ar  
    27   13   34 1   
    28   14   15 ar  
    29   14   35 1   
    30   15   16 ar  
    31   15   36 1   
    32   16   17 ar  
    33   16   37 1   
    34   17   38 1   
    35   18   19 1   
    36   18   23 2   
    37   19   20 1   
    38   19   25 1   
    39   19   39 1   
    40   20   24 1   
    41   20   26 1   
    42   20   40 1   
    43   24   26 1   
    44   24   41 1   
    45   24   42 1   
    46   25   43 1   
    47   25   44 1   
    48   25   47 1   
    49   26   45 1   
    50   26   46 1   
@<TRIPOS>SUBSTRUCTURE
     1 N4T         1 TEMP              0 ****  ****    0 ROOT
