@<TRIPOS>MOLECULE
N4T
   46    49     1     0     0
SMALL
bcc


@<TRIPOS>ATOM
      1 C1         -5.0730   -0.2780    0.4160 ca        1 N4T      0.115900
      2 C2         -3.7130   -0.4910    0.6880 ca        1 N4T     -0.138000
      3 C3         -2.7220    0.1210   -0.0910 ca        1 N4T     -0.040800
      4 C4         -3.1250    0.9560   -1.1600 ca        1 N4T      0.120900
      5 C5         -4.4930    1.1650   -1.4290 ca        1 N4T     -0.140000
      6 C6         -5.4640    0.5550   -0.6490 ca        1 N4T     -0.137000
      7 C10        -1.3340   -0.1340    0.2250 ce        1 N4T     -0.097400
      8 C11        -0.2400    0.9070    0.0300 c3        1 N4T      0.122200
      9 N12         0.9770    0.2960    0.5560 n         1 N4T     -0.455800
     10 C13         0.6940   -1.0950    0.9720 c3        1 N4T      0.168200
     11 C14        -0.8010   -1.2600    0.7510 c2        1 N4T     -0.148200
     12 C17         1.4990   -2.1210    0.2210 ca        1 N4T     -0.092300
     13 C19         0.9640   -2.8200   -0.8640 ca        1 N4T     -0.110000
     14 C20         1.7270   -3.7870   -1.5180 ca        1 N4T     -0.136500
     15 C21         3.0300   -4.0530   -1.0980 ca        1 N4T     -0.123000
     16 C22         3.5710   -3.3480   -0.0230 ca        1 N4T     -0.136500
     17 C23         2.8110   -2.3820    0.6340 ca        1 N4T     -0.110000
     18 C8          1.9970    1.0200    1.1470 c         1 N4T      0.620100
     19 C7          2.1990    2.5100    0.7560 c3        1 N4T      0.146500
     20 C35         2.6850    2.5500   -0.6770 cx        1 N4T     -0.131700
     21 F40        -2.2130    1.5670   -1.9540 f         1 N4T     -0.135900
     22 F41        -6.0140   -0.8780    1.1830 f         1 N4T     -0.133900
     23 O2          2.7810    0.4690    1.9490 o         1 N4T     -0.623100
     24 C15         3.3920    3.7600   -1.2280 cx        1 N4T     -0.120400
     25 N1          3.0310    3.2310    1.6950 n3        1 N4T     -0.885800
     26 C12         4.1430    2.4760   -1.0460 cx        1 N4T     -0.120400
     27 H2         -3.4240   -1.1430    1.5280 ha        1 N4T      0.158000
     28 H5         -4.7790    1.8170   -2.2670 ha        1 N4T      0.157000
     29 H6         -6.5330    0.7160   -0.8540 ha        1 N4T      0.158000
     30 H111       -0.5060    1.8550    0.5730 h1        1 N4T      0.066700
     31 H112       -0.1020    1.1410   -1.0630 h1        1 N4T      0.066700
     32 H13         0.9320   -1.2040    2.0750 h1        1 N4T      0.085700
     33 H14        -1.2970   -2.1960    1.0080 ha        1 N4T      0.159000
     34 H19        -0.0600   -2.6100   -1.2080 ha        1 N4T      0.146500
     35 H20         1.3000   -4.3370   -2.3690 ha        1 N4T      0.132000
     36 H21         3.6310   -4.8160   -1.6150 ha        1 N4T      0.130000
     37 H22         4.6010   -3.5500    0.3060 ha        1 N4T      0.132000
     38 H23         3.2390   -1.8080    1.4740 ha        1 N4T      0.146500
     39 H7          1.1860    3.0190    0.7860 h1        1 N4T      0.073700
     40 H35         1.9680    2.0310   -1.3460 hc        1 N4T      0.087700
     41 H151        3.1380    4.0940   -2.2500 hc        1 N4T      0.075700
     42 H152        3.6100    4.6130   -0.5590 hc        1 N4T      0.075700
     43 HN11        2.7100    3.0660    2.6300 hn        1 N4T      0.360300
     44 HN12        3.9840    2.9280    1.6290 hn        1 N4T      0.360300
     45 H121        4.9110    2.4030   -0.2560 hc        1 N4T      0.075700
     46 H122        4.4240    1.8840   -1.9360 hc        1 N4T      0.075700
@<TRIPOS>BOND
     1    1    2 ar  
     2    1    6 ar  
     3    1   22 1   
     4    2    3 ar  
     5    2   27 1   
     6    3    4 ar  
     7    3    7 1   
     8    4    5 ar  
     9    4   21 1   
    10    5    6 ar  
    11    5   28 1   
    12    6   29 1   
    13    7    8 1   
    14    7   11 2   
    15    8    9 1   
    16    8   30 1   
    17    8   31 1   
    18    9   10 1   
    19    9   18 1   
    20   10   11 1   
    21   10   12 1   
    22   10   32 1   
    23   11   33 1   
    24   12   13 ar  
    25   12   17 ar  
    26   13   14 ar  
    27   13   34 1   
    28   14   15 ar  
    29   14   35 1   
    30   15   16 ar  
    31   15   36 1   
    32   16   17 ar  
    33   16   37 1   
    34   17   38 1   
    35   18   19 1   
    36   18   23 2   
    37   19   20 1   
    38   19   25 1   
    39   19   39 1   
    40   20   24 1   
    41   20   26 1   
    42   20   40 1   
    43   24   26 1   
    44   24   41 1   
    45   24   42 1   
    46   25   43 1   
    47   25   44 1   
    48   26   45 1   
    49   26   46 1   
@<TRIPOS>SUBSTRUCTURE
     1 N4T         1 TEMP              0 ****  ****    0 ROOT
