@<TRIPOS>MOLECULE
N50
   33    33     1     0     0
SMALL
bcc


@<TRIPOS>ATOM
      1 N1          0.1360   -0.3820   -0.1720 nb        1 N50     -0.732000
      2 O1          2.1440   -0.4420   -1.2600 os        1 N50     -0.416100
      3 C01         3.5720   -0.3910   -1.2520 c3        1 N50      0.125700
      4 O2          2.0700    0.2240    3.4550 os        1 N50     -0.439100
      5 C02         3.4960    0.3060    3.5010 c3        1 N50      0.124700
      6 N2          2.2230   -0.1050    1.1050 nb        1 N50     -0.817000
      7 C1          1.4990   -0.3010   -0.0460 ca        1 N50      0.877300
      8 C2          1.4750    0.0230    2.2320 ca        1 N50      0.683600
      9 C3          0.0510   -0.0390    2.2410 ca        1 N50     -0.342900
     10 C4         -0.7260    0.1000    3.4860 c3        1 N50     -0.033800
     11 C5         -0.5690   -0.2490    0.9840 ca        1 N50      0.527100
     12 C11        -2.0310   -0.3730    0.9430 ce        1 N50     -0.223800
     13 C12        -2.8520    0.1650    0.0310 c2        1 N50     -0.114400
     14 C13        -2.4250    1.0370   -1.1130 c3        1 N50      0.165100
     15 C14        -4.3320   -0.0560    0.0730 c3        1 N50      0.165100
     16 O3         -2.2660    0.3040   -2.3100 oh        1 N50     -0.602800
     17 O4         -4.6710   -0.8940    1.1680 oh        1 N50     -0.602800
     18 H1          3.9310    0.6010   -0.8870 h1        1 N50      0.053033
     19 H2          3.8240   -0.5340   -2.3340 h1        1 N50      0.053033
     20 H3          3.9950   -1.2170   -0.6330 h1        1 N50      0.053033
     21 H4          3.6990    0.4700    4.5900 h1        1 N50      0.052700
     22 H5          3.9560   -0.6480    3.1500 h1        1 N50      0.052700
     23 H6          3.8600    1.1670    2.8930 h1        1 N50      0.052700
     24 H7         -1.1120   -0.9000    3.8130 hc        1 N50      0.051700
     25 H8         -0.0960    0.5200    4.3080 hc        1 N50      0.051700
     26 H9         -1.6030    0.7770    3.3280 hc        1 N50      0.051700
     27 H10        -2.4450   -0.9820    1.7710 ha        1 N50      0.163000
     28 H13        -3.2320    1.7860   -1.3530 h1        1 N50      0.047450
     29 H14        -1.4830    1.5930   -0.8610 h1        1 N50      0.047450
     30 H15        -4.8590    0.9320    0.1900 h1        1 N50      0.047450
     31 H16        -4.6500   -0.5280   -0.8980 h1        1 N50      0.047450
     32 H17        -1.5180   -0.2950   -2.1890 ho        1 N50      0.415000
     33 H18        -5.5850   -1.1670    1.0280 ho        1 N50      0.415000
@<TRIPOS>BOND
     1    1    7 ar  
     2    1   11 ar  
     3    2    3 1   
     4    2    7 1   
     5    3   18 1   
     6    3   19 1   
     7    3   20 1   
     8    4    5 1   
     9    4    8 1   
    10    5   21 1   
    11    5   22 1   
    12    5   23 1   
    13    6    7 ar  
    14    6    8 ar  
    15    8    9 ar  
    16    9   10 1   
    17    9   11 ar  
    18   10   24 1   
    19   10   25 1   
    20   10   26 1   
    21   11   12 1   
    22   12   13 2   
    23   12   27 1   
    24   13   14 1   
    25   13   15 1   
    26   14   16 1   
    27   14   28 1   
    28   14   29 1   
    29   15   17 1   
    30   15   30 1   
    31   15   31 1   
    32   16   32 1   
    33   17   33 1   
@<TRIPOS>SUBSTRUCTURE
     1 N50         1 TEMP              0 ****  ****    0 ROOT
