@<TRIPOS>MOLECULE
N50
   33    33     1     0     0
SMALL
bcc


@<TRIPOS>ATOM
      1 N1          0.0940    1.0320   -0.3410 nb        1 N50     -0.732000
      2 O1          1.7540    2.5990   -0.4390 os        1 N50     -0.416100
      3 C01         3.1370    2.9570   -0.4240 c3        1 N50      0.125700
      4 O2          2.9090   -1.9810    0.1720 os        1 N50     -0.439100
      5 C02         4.3000   -1.6600    0.2170 c3        1 N50      0.124700
      6 N2          2.4450    0.3310   -0.1320 nb        1 N50     -0.818000
      7 C1          1.4450    1.2590   -0.2960 ca        1 N50      0.877300
      8 C2          2.0140   -0.9500    0.0010 ca        1 N50      0.683600
      9 C3          0.6390   -1.3240   -0.0260 ca        1 N50     -0.342900
     10 C4          0.2110   -2.7270    0.1180 c3        1 N50     -0.033800
     11 C5         -0.2870   -0.2670   -0.2040 ca        1 N50      0.527100
     12 C11        -1.7150   -0.6020   -0.2910 ce        1 N50     -0.223800
     13 C12        -2.7270    0.0660    0.2790 c2        1 N50     -0.114400
     14 C13        -2.5830    1.2760    1.1540 c3        1 N50      0.165100
     15 C14        -4.1520   -0.3530    0.0940 c3        1 N50      0.165100
     16 O3         -2.7560    2.4780    0.4320 oh        1 N50     -0.602800
     17 O4         -4.2220   -1.4940   -0.7490 oh        1 N50     -0.602800
     18 H1          3.6810    2.4720   -1.2680 h1        1 N50      0.053033
     19 H2          3.0990    4.0690   -0.5600 h1        1 N50      0.053033
     20 H3          3.6040    2.6920    0.5540 h1        1 N50      0.053033
     21 H4          4.7800   -2.6610    0.3630 h1        1 N50      0.052700
     22 H5          4.6280   -1.1970   -0.7440 h1        1 N50      0.052700
     23 H6          4.5200   -0.9830    1.0760 h1        1 N50      0.052700
     24 H7         -0.6580   -2.8030    0.8190 hc        1 N50      0.051700
     25 H8         -0.1050   -3.1370   -0.8750 hc        1 N50      0.051700
     26 H9          1.0430   -3.3620    0.5120 hc        1 N50      0.051700
     27 H10        -1.9190   -1.5040   -0.8990 ha        1 N50      0.163000
     28 H13        -3.4030    1.2970    1.9260 h1        1 N50      0.047450
     29 H14        -1.5930    1.2720    1.6830 h1        1 N50      0.047450
     30 H15        -4.6030   -0.6070    1.0940 h1        1 N50      0.047450
     31 H16        -4.7210    0.5070   -0.3570 h1        1 N50      0.047450
     32 H17        -2.0190    2.5560   -0.1870 ho        1 N50      0.415000
     33 H18        -5.1480   -1.5910   -0.9970 ho        1 N50      0.415000
@<TRIPOS>BOND
     1    1    7 ar  
     2    1   11 ar  
     3    2    3 1   
     4    2    7 1   
     5    3   18 1   
     6    3   19 1   
     7    3   20 1   
     8    4    5 1   
     9    4    8 1   
    10    5   21 1   
    11    5   22 1   
    12    5   23 1   
    13    6    7 ar  
    14    6    8 ar  
    15    8    9 ar  
    16    9   10 1   
    17    9   11 ar  
    18   10   24 1   
    19   10   25 1   
    20   10   26 1   
    21   11   12 1   
    22   12   13 2   
    23   12   27 1   
    24   13   14 1   
    25   13   15 1   
    26   14   16 1   
    27   14   28 1   
    28   14   29 1   
    29   15   17 1   
    30   15   30 1   
    31   15   31 1   
    32   16   32 1   
    33   17   33 1   
@<TRIPOS>SUBSTRUCTURE
     1 N50         1 TEMP              0 ****  ****    0 ROOT
