@<TRIPOS>MOLECULE
N50
   33    33     1     0     0
SMALL
bcc


@<TRIPOS>ATOM
      1 N1          0.1370   -0.3800   -0.1720 nb        1 N50     -0.732000
      2 O1          2.1460   -0.4370   -1.2590 os        1 N50     -0.416100
      3 C01         3.5740   -0.3840   -1.2510 c3        1 N50      0.125700
      4 O2          2.0680    0.2250    3.4570 os        1 N50     -0.439100
      5 C02         3.4950    0.3090    3.5030 c3        1 N50      0.124700
      6 N2          2.2230   -0.1010    1.1060 nb        1 N50     -0.818000
      7 C1          1.5000   -0.2980   -0.0450 ca        1 N50      0.877300
      8 C2          1.4740    0.0240    2.2320 ca        1 N50      0.683600
      9 C3          0.0510   -0.0400    2.2410 ca        1 N50     -0.342900
     10 C4         -0.7280    0.0970    3.4850 c3        1 N50     -0.033800
     11 C5         -0.5680   -0.2490    0.9840 ca        1 N50      0.527100
     12 C11        -2.0310   -0.3760    0.9420 ce        1 N50     -0.223800
     13 C12        -2.8520    0.1620    0.0300 c2        1 N50     -0.114400
     14 C13        -2.4260    1.0360   -1.1120 c3        1 N50      0.165100
     15 C14        -4.3320   -0.0620    0.0710 c3        1 N50      0.165100
     16 O3         -2.2650    0.3040   -2.3100 oh        1 N50     -0.602800
     17 O4         -4.6700   -0.9010    1.1650 oh        1 N50     -0.602800
     18 H1          3.9310    0.6080   -0.8850 h1        1 N50      0.053033
     19 H2          3.8260   -0.5250   -2.3330 h1        1 N50      0.053033
     20 H3          3.9980   -1.2100   -0.6320 h1        1 N50      0.053033
     21 H4          3.6970    0.4730    4.5920 h1        1 N50      0.052700
     22 H5          3.9560   -0.6440    3.1510 h1        1 N50      0.052700
     23 H6          3.8580    1.1710    2.8950 h1        1 N50      0.052700
     24 H7         -1.1110   -0.9040    3.8120 hc        1 N50      0.051700
     25 H8         -0.0980    0.5170    4.3090 hc        1 N50      0.051700
     26 H9         -1.6050    0.7730    3.3280 hc        1 N50      0.051700
     27 H10        -2.4430   -0.9860    1.7690 ha        1 N50      0.163000
     28 H13        -3.2330    1.7840   -1.3520 h1        1 N50      0.047450
     29 H14        -1.4840    1.5930   -0.8600 h1        1 N50      0.047450
     30 H15        -4.8600    0.9260    0.1900 h1        1 N50      0.047450
     31 H16        -4.6490   -0.5330   -0.9010 h1        1 N50      0.047450
     32 H17        -1.5160   -0.2940   -2.1890 ho        1 N50      0.415000
     33 H18        -5.5830   -1.1760    1.0240 ho        1 N50      0.415000
@<TRIPOS>BOND
     1    1    7 ar  
     2    1   11 ar  
     3    2    3 1   
     4    2    7 1   
     5    3   18 1   
     6    3   19 1   
     7    3   20 1   
     8    4    5 1   
     9    4    8 1   
    10    5   21 1   
    11    5   22 1   
    12    5   23 1   
    13    6    7 ar  
    14    6    8 ar  
    15    8    9 ar  
    16    9   10 1   
    17    9   11 ar  
    18   10   24 1   
    19   10   25 1   
    20   10   26 1   
    21   11   12 1   
    22   12   13 2   
    23   12   27 1   
    24   13   14 1   
    25   13   15 1   
    26   14   16 1   
    27   14   28 1   
    28   14   29 1   
    29   15   17 1   
    30   15   30 1   
    31   15   31 1   
    32   16   32 1   
    33   17   33 1   
@<TRIPOS>SUBSTRUCTURE
     1 N50         1 TEMP              0 ****  ****    0 ROOT
