@<TRIPOS>MOLECULE
N53
   78    76     1     0     0
SMALL
bcc


@<TRIPOS>ATOM
      1 C1         -0.2990   -1.3830    1.5670 c2        1 N53     -0.040000
      2 C2         -0.0580   -0.1510    0.7630 c3        1 N53     -0.185000
      3 C3         -1.0110    0.9470    0.8390 c1        1 N53     -0.018000
      4 C4         -2.2220    0.8430    1.5660 c2        1 N53     -0.538000
      5 C5         -3.0780    1.8490    1.6750 c1        1 N53      0.361000
      6 C6          0.3780   -1.7550    2.6590 c2        1 N53     -0.200000
      7 C7          0.0140   -4.2580   -1.6080 c3        1 N53     -0.100000
      8 C8         -0.0920   -3.2520   -0.5190 c2        1 N53     -0.294000
      9 C9         -1.2360   -3.0390    0.1480 c2        1 N53      0.024000
     10 C10        -0.0330   -4.9120   -5.2020 c1        1 N53      0.174000
     11 C11        -0.0380   -4.2950   -4.0890 c1        1 N53     -0.587000
     12 C12        -0.0270   -3.6140   -2.9550 c2        1 N53      0.209000
     13 C13         0.4050  -12.6010   -7.8780 c3        1 N53      0.022000
     14 C14         0.2530  -14.0670   -7.6230 c2        1 N53     -0.146000
     15 C15        -0.2150  -14.5660   -6.5150 c1        1 N53     -0.139000
     16 C16        -0.6800  -15.0790   -5.4180 c2        1 N53     -0.176000
     17 C17        -1.0850  -12.9740   -9.8650 c1        1 N53      0.178000
     18 C18        -0.4060  -12.1880   -9.0630 c2        1 N53     -0.488000
     19 N19         2.2320  -10.0210   -7.0910 n         1 N53     -0.283000
     20 C20         2.1300  -10.8130   -8.2650 c2        1 N53     -0.089000
     21 C21         2.2210  -10.2180   -9.4950 c2        1 N53     -0.079000
     22 N22         2.1190  -10.8600  -10.7240 n3        1 N53     -0.283000
     23 C23         1.6560   -6.3680   -7.6490 c1        1 N53     -0.234500
     24 C24         2.5530   -6.7790   -8.3270 c1        1 N53     -0.234500
     25 C25         3.9600   -8.6420   -2.9970 c2        1 N53     -0.050000
     26 C26         2.4570   -8.3220   -4.7970 c3        1 N53      0.048000
     27 N27         3.5180   -9.2910   -5.1700 n         1 N53     -0.277000
     28 C28         4.4090   -9.5400   -4.0680 c2        1 N53      0.081000
     29 N29         4.2600   -8.2460   -1.7160 na        1 N53     -0.105000
     30 N30         3.4000   -7.3240   -1.2680 n2        1 N53     -0.077000
     31 C31         2.4810   -7.0790   -2.2860 c2        1 N53      0.058000
     32 C33         5.4710  -10.3570   -4.0250 c2        1 N53     -0.222000
     33 C34         3.2810  -10.2690   -6.1680 c2        1 N53      0.379000
     34 O35         3.9760  -11.3080   -6.2130 o         1 N53     -0.373000
     35 C36         1.6490  -10.0860  -11.8390 c3        1 N53     -0.101000
     36 C37         1.8860  -12.2800   -8.0860 c3        1 N53     -0.111000
     37 N38         1.3870   -6.2150   -2.2250 n         1 N53     -0.296000
     38 O40         2.2080   -4.7080   -0.6640 o         1 N53     -0.295000
     39 O41        -1.4190   -2.1410    1.1730 os        1 N53     -0.185000
     40 C42         2.8080   -7.9100   -3.4130 c2        1 N53     -0.254000
     41 H2          0.9490    0.2810    1.0390 hc        1 N53      0.147000
     42 H6          0.1560   -2.6830    3.2000 ha        1 N53      0.135000
     43 H3          0.0010   -0.4280   -0.3330 hc        1 N53      0.147000
     44 H4          1.1890   -1.1390    3.0670 ha        1 N53      0.135000
     45 H5         -2.4930   -0.1210    2.0640 ha        1 N53      0.193000
     46 H8          0.8420   -2.7270   -0.2600 ha        1 N53      0.169000
     47 H12        -0.8560   -4.9810   -1.5430 hc        1 N53      0.142000
     48 H10        -2.1980   -3.5500   -0.0330 h4        1 N53      0.164000
     49 H11        -0.0630   -2.5050   -2.9560 ha        1 N53      0.148000
     50 H14         0.5810  -14.7270   -8.4480 ha        1 N53      0.144000
     51 H18        -0.4140  -11.0910   -9.2310 ha        1 N53      0.192000
     52 H371        2.2760  -12.8510   -8.9690 hc        1 N53      0.113000
     53 H372        2.4550  -12.6600   -7.1910 hc        1 N53      0.113000
     54 H15         0.0330  -12.0160   -6.9880 hc        1 N53      0.114000
     55 H16        -0.0300  -15.3320   -4.5670 ha        1 N53      0.133500
     56 H17        -1.7500  -15.2920   -5.2760 ha        1 N53      0.133500
     57 H20         1.6430  -14.2240  -10.9320 ha        1 N53      0.001500
     58 H241        2.0170   -9.0530   -7.2440 hn        1 N53      0.214000
     59 H242        3.3600   -7.1220   -8.9240 ha        1 N53      0.234500
     60 H211        2.4370   -9.1320   -9.5780 h4        1 N53      0.137000
     61 H212        1.0660  -14.0150  -10.6410 ha        1 N53      0.001500
     62 H231        0.8600   -5.9870   -7.0450 ha        1 N53      0.234500
     63 H232        1.7280  -11.7810  -10.6850 hn        1 N53      0.199000
     64 H361        2.2510   -9.1440  -11.9280 h1        1 N53      0.075667
     65 H362        0.5630   -9.8060  -11.7540 h1        1 N53      0.075667
     66 H363        1.7900  -10.6950  -12.7710 h1        1 N53      0.075667
     67 H261        2.4900   -7.4620   -5.5240 h1        1 N53      0.106500
     68 H262        1.4360   -8.7960   -4.8320 h1        1 N53      0.106500
     69 H321        0.7150  -11.4770   -0.0090 hc        1 N53      0.066750
     70 H322       -0.5390  -12.6400   -0.6180 hc        1 N53      0.066750
     71 H323        0.9620  -13.2650    0.1890 hc        1 N53      0.066750
     72 H331        1.0650  -12.5110   -1.4590 hc        1 N53      0.066750
     73 H332        6.0970  -10.4050   -3.1260 ha        1 N53      0.142000
     74 H333        5.7560  -11.0150   -4.8560 ha        1 N53      0.142000
     75 H30         5.0170   -8.5390   -1.1410 hn        1 N53      0.285000
     76 H38         0.7270   -6.3260   -2.9660 hn        1 N53      0.251000
     77 C39         1.3200   -5.0660   -1.4480 c2        1 N53      0.320000
     78 C32         0.5510  -12.4730   -0.4740 c3        1 N53     -0.267000
@<TRIPOS>BOND
     1    1    2 1   
     2    1    6 1   
     3    1   39 1   
     4    2    3 1   
     5    2   41 1   
     6    2   43 1   
     7    3    4 1   
     8    4    5 1   
     9    4   45 1   
    10    6   42 1   
    11    6   44 1   
    12    7    8 1   
    13    7   12 1   
    14    7   47 1   
    15    7   77 1   
    16    8    9 1   
    17    8   46 1   
    18    9   39 1   
    19    9   48 1   
    20   10   11 1   
    21   11   12 1   
    22   12   49 1   
    23   13   14 1   
    24   13   18 1   
    25   13   36 1   
    26   13   54 1   
    27   14   15 1   
    28   14   50 1   
    29   15   16 1   
    30   16   55 1   
    31   16   56 1   
    32   17   18 1   
    33   18   51 1   
    34   19   20 1   
    35   19   33 1   
    36   19   58 1   
    37   20   21 1   
    38   20   36 1   
    39   21   22 1   
    40   21   60 1   
    41   22   35 1   
    42   22   63 1   
    43   23   24 1   
    44   23   62 1   
    45   24   59 1   
    46   25   28 1   
    47   25   29 1   
    48   25   40 1   
    49   26   27 1   
    50   26   40 1   
    51   26   67 1   
    52   26   68 1   
    53   27   28 1   
    54   27   33 1   
    55   28   32 1   
    56   29   30 1   
    57   29   75 1   
    58   30   31 1   
    59   31   37 1   
    60   31   40 1   
    61   32   73 1   
    62   32   74 1   
    63   33   34 1   
    64   35   64 1   
    65   35   65 1   
    66   35   66 1   
    67   36   52 1   
    68   36   53 1   
    69   37   76 1   
    70   37   77 1   
    71   38   77 1   
    72   57   61 1   
    73   69   78 1   
    74   70   78 1   
    75   71   78 1   
    76   72   78 1   
@<TRIPOS>SUBSTRUCTURE
     1 N53         1 TEMP              0 ****  ****    0 ROOT
