@<TRIPOS>MOLECULE
N53
   78    71     1     0     0
SMALL
bcc


@<TRIPOS>ATOM
      1 C1         -6.0070    6.9230    0.3510 c1        1 N53      0.083600
      2 C2         -6.8710    5.9710   -0.1790 c1        1 N53     -0.068000
      3 C3         -7.5400    6.2270   -1.3710 c1        1 N53     -0.068000
      4 C4         -7.3450    7.4340   -2.0330 c1        1 N53     -0.068000
      5 C5         -6.4810    8.3860   -1.5030 c1        1 N53     -0.068000
      6 C6         -5.8120    8.1300   -0.3110 c1        1 N53     -0.102000
      7 C7         -2.7710    4.1220    1.9810 cg        1 N53     -0.073200
      8 C8         -4.0020    4.7660    2.0640 c1        1 N53     -0.034500
      9 C9         -4.1830    6.0040    1.4520 c1        1 N53      0.083600
     10 C10        -3.1320    6.5960    0.7580 c1        1 N53     -0.102000
     11 C11        -1.9010    5.9520    0.6750 c1        1 N53     -0.068000
     12 C12        -1.7210    4.7150    1.2870 c1        1 N53     -0.068000
     13 C13         2.0080   -6.1000   -2.1460 c1        1 N53     -0.046100
     14 C14         2.4640   -7.0230   -1.2080 c1        1 N53     -0.068000
     15 C15         2.7760   -8.3200   -1.6030 c1        1 N53     -0.068000
     16 C16         2.6320   -8.6960   -2.9350 c1        1 N53     -0.068000
     17 C17         2.1760   -7.7750   -3.8720 c1        1 N53     -0.068000
     18 C18         1.8650   -6.4770   -3.4790 c1        1 N53     -0.067500
     19 N19         2.2250   -2.9720   -0.1080 n         1 N53     -0.407800
     20 C20         2.6870   -3.9120   -1.2120 c3        1 N53      0.073700
     21 C21         3.2820   -3.1710   -2.3860 c3        1 N53      0.134800
     22 N22         3.6200   -1.9510   -2.0460 n3        1 N53     -0.734600
     23 C23         4.1580   -1.5690   -0.9200 c3        1 N53      0.149800
     24 C24         3.5560   -2.3220    0.2480 c3        1 N53      0.064000
     25 C25         0.9800    0.1220    2.9880 cg        1 N53      0.277500
     26 C26        -0.5880   -1.3240    2.0210 c3        1 N53      0.168200
     27 N27         0.6690   -1.7040    1.4630 n         1 N53     -0.402400
     28 C28         1.6840   -0.8820    2.0600 c2        1 N53      0.314600
     29 N29         1.1780    1.3030    3.6450 n1        1 N53     -0.535600
     30 N30        -0.0570    1.8380    3.9450 ne        1 N53     -0.221600
     31 C31        -1.0070    0.9900    3.4760 c1        1 N53      0.268500
     32 C32         2.6030   -1.7790    2.9140 c3        1 N53     -0.170400
     33 C33         2.3960   -0.1050    0.9540 c3        1 N53     -0.170400
     34 C34         0.8850   -2.7550    0.4510 c         1 N53      0.734100
     35 O35        -0.0640   -3.3870    0.0190 o         1 N53     -0.625100
     36 C36         4.3070   -1.3140   -3.1510 c3        1 N53      0.161100
     37 C37         1.5250   -4.7110   -1.6850 c3        1 N53     -0.076300
     38 N38        -1.2690    2.1510    2.6640 n2        1 N53     -0.549400
     39 C39        -2.5380    2.8160    2.7490 ce        1 N53      0.593500
     40 O40        -3.3940    2.3970    3.5090 o         1 N53     -0.618300
     41 O41        -5.4070    6.7060    1.6200 os        1 N53     -0.212200
     42 C42        -0.3670   -0.0800    2.8800 ce        1 N53     -0.299000
     43 H2         -7.0090    5.1200    0.2870 ha        1 N53      0.079800
     44 H6         -5.2030    8.8010    0.0620 ha        1 N53      0.094000
     45 H3         -8.1500    5.5560   -1.7450 ha        1 N53      0.079800
     46 H4         -7.8170    7.6150   -2.8740 ha        1 N53      0.079800
     47 H5         -6.3440    9.2370   -1.9700 ha        1 N53      0.079800
     48 H8         -4.7430    4.3480    2.5540 ha        1 N53      0.115500
     49 H12        -0.8540    4.2620    1.2280 ha        1 N53      0.079800
     50 H10        -3.2590    7.4680    0.3270 ha        1 N53      0.094000
     51 H11        -1.1600    6.3700    0.1850 ha        1 N53      0.079800
     52 H14         2.5660   -6.7580   -0.2700 ha        1 N53      0.079800
     53 H18         1.5430   -5.8280   -4.1400 ha        1 N53      0.077500
     54 H371        1.0920   -4.2480   -2.4370 hc        1 N53      0.072200
     55 H372        0.8800   -4.8160   -0.9520 hc        1 N53      0.072200
     56 H15         3.0970   -8.9700   -0.9410 ha        1 N53      0.079800
     57 H16         2.8520   -9.6110   -3.2130 ha        1 N53      0.079800
     58 H17         2.0750   -8.0410   -4.8120 ha        1 N53      0.079800
     59 H20         3.3650   -4.5230   -0.8460 h1        1 N53      0.062700
     60 H241        3.4170   -1.7000    0.9870 h1        1 N53      0.058700
     61 H242        4.1870   -3.0230    0.5340 h1        1 N53      0.058700
     62 H211        2.6210   -3.1330   -3.1140 h1        1 N53      0.059200
     63 H212        4.0820   -3.6530   -2.7000 h1        1 N53      0.059200
     64 H231        4.0030   -0.6050   -0.7980 h1        1 N53      0.034700
     65 H232        5.1280   -1.7400   -0.9510 h1        1 N53      0.034700
     66 H361        3.6700   -0.7610   -3.6590 h1        1 N53      0.032033
     67 H362        5.0300   -0.7460   -2.8030 h1        1 N53      0.032033
     68 H363        4.6870   -2.0030   -3.7410 h1        1 N53      0.032033
     69 H261       -0.9390   -2.0560    2.5800 h1        1 N53      0.068700
     70 H262       -1.2240   -1.1220    1.3010 h1        1 N53      0.068700
     71 H321        2.3330   -1.7210    3.8590 hc        1 N53      0.049700
     72 H322        2.5290   -2.7090    2.6080 hc        1 N53      0.049700
     73 H323        3.5350   -1.4770    2.8210 hc        1 N53      0.049700
     74 H331        2.2100   -0.5250    0.0880 hc        1 N53      0.049700
     75 H332        3.3640   -0.1110    1.1190 hc        1 N53      0.049700
     76 H333        2.0700    0.8230    0.9440 hc        1 N53      0.049700
     77 H30        -0.2100    2.6210    4.4010 DU        1 N53      0.297000
     78 H38        -0.6440    2.4360    2.0570 hn        1 N53      0.500400
@<TRIPOS>BOND
     1    1    6 3   
     2    1   41 1   
     3    2    3 3   
     4    2   43 1   
     5    3   45 1   
     6    4    5 3   
     7    4   46 1   
     8    5   47 1   
     9    6   44 1   
    10    7    8 3   
    11    7   39 1   
    12    8   48 1   
    13    9   10 3   
    14    9   41 1   
    15   10   50 1   
    16   11   12 3   
    17   11   51 1   
    18   12   49 1   
    19   13   18 3   
    20   13   37 1   
    21   14   15 3   
    22   14   52 1   
    23   15   56 1   
    24   16   17 3   
    25   16   57 1   
    26   17   58 1   
    27   18   53 1   
    28   19   20 1   
    29   19   24 1   
    30   19   34 1   
    31   20   21 1   
    32   20   37 1   
    33   20   59 1   
    34   21   22 1   
    35   21   62 1   
    36   21   63 1   
    37   22   23 1   
    38   22   36 1   
    39   23   24 1   
    40   23   64 1   
    41   23   65 1   
    42   24   60 1   
    43   24   61 1   
    44   25   29 3   
    45   25   42 1   
    46   26   27 1   
    47   26   42 1   
    48   26   69 1   
    49   26   70 1   
    50   27   28 2   
    51   27   34 1   
    52   28   32 1   
    53   28   33 1   
    54   29   30 1   
    55   30   31 2   
    56   31   42 2   
    57   32   71 1   
    58   32   72 1   
    59   32   73 1   
    60   33   74 1   
    61   33   75 1   
    62   33   76 1   
    63   34   35 2   
    64   36   66 1   
    65   36   67 1   
    66   36   68 1   
    67   37   54 1   
    68   37   55 1   
    69   38   39 2   
    70   38   78 1   
    71   39   40 1   
@<TRIPOS>SUBSTRUCTURE
     1 N53         1 TEMP              0 ****  ****    0 ROOT
