@<TRIPOS>MOLECULE
N53
   78    83     1     0     0
SMALL
bcc


@<TRIPOS>ATOM
      1 C1         -8.2010   -0.0330    2.1960 ca        1 N53      0.087100
      2 C2         -8.5760   -0.8000    3.3080 ca        1 N53     -0.146500
      3 C3         -9.3730   -1.9260    3.1070 ca        1 N53     -0.110000
      4 C4         -9.7780   -2.2840    1.8210 ca        1 N53     -0.139000
      5 C5         -9.3930   -1.5140    0.7230 ca        1 N53     -0.110000
      6 C6         -8.6020   -0.3800    0.9010 ca        1 N53     -0.146500
      7 C7         -4.5720    0.9230    0.2270 ca        1 N53     -0.119600
      8 C8         -5.6870    0.5030    0.9600 ca        1 N53     -0.132000
      9 C9         -6.4360    1.4580    1.6550 ca        1 N53      0.113100
     10 C10        -6.0870    2.8190    1.6210 ca        1 N53     -0.122000
     11 C11        -4.9760    3.2130    0.8820 ca        1 N53     -0.111000
     12 C12        -4.2160    2.2730    0.1840 ca        1 N53     -0.131000
     13 C13         6.2730   -0.0110    1.8920 ca        1 N53     -0.078300
     14 C14         5.9360    0.7620    3.0100 ca        1 N53     -0.127000
     15 C15         6.8620    0.9640    4.0310 ca        1 N53     -0.129000
     16 C16         8.1330    0.3950    3.9470 ca        1 N53     -0.132000
     17 C17         8.4750   -0.3770    2.8370 ca        1 N53     -0.129000
     18 C18         7.5500   -0.5790    1.8130 ca        1 N53     -0.127000
     19 N19         3.7620    1.0100   -0.7510 n         1 N53     -0.411800
     20 C20         5.0280    1.0270   -0.0080 c3        1 N53      0.076700
     21 C21         6.2670    1.2960   -0.9000 c3        1 N53      0.130800
     22 N22         6.1140    2.4950   -1.7150 n3        1 N53     -0.728600
     23 C23         4.8720    2.4940   -2.4770 c3        1 N53      0.134800
     24 C24         3.6410    2.1890   -1.5990 c3        1 N53      0.053000
     25 C25         0.2680   -1.9130   -2.0100 cc        1 N53      0.297600
     26 C26         1.0500    0.1130   -0.9760 c3        1 N53      0.211300
     27 N27         2.1610   -0.5990   -1.6170 n         1 N53     -0.470800
     28 C28         1.7620   -1.9020   -2.2300 c3        1 N53      0.129100
     29 N29        -0.7890   -2.6980   -2.2910 nd        1 N53     -0.464800
     30 N30        -1.8480   -2.1040   -1.7230 na        1 N53     -0.030600
     31 C31        -1.5230   -0.8590   -1.1090 cd        1 N53      0.076300
     32 C33         2.3920   -3.1150   -1.5370 c3        1 N53     -0.103100
     33 C34         3.4900   -0.2340   -1.4630 c         1 N53      0.742100
     34 O35         4.4070   -0.9570   -1.9210 o         1 N53     -0.636100
     35 C36         7.2680    2.7390   -2.5500 c3        1 N53      0.157100
     36 C37         5.2740   -0.2480    0.8140 c3        1 N53     -0.047100
     37 N38        -2.4180   -0.0130   -0.4600 n         1 N53     -0.453100
     38 O40        -4.3650   -1.0250   -1.1570 o         1 N53     -0.592100
     39 O41        -7.5110    1.1470    2.4760 os        1 N53     -0.247200
     40 C42        -0.1390   -0.7230   -1.2620 cc        1 N53     -0.345600
     41 H2         -8.2520   -0.5020    4.3150 ha        1 N53      0.150000
     42 H6         -8.2920    0.2330    0.0430 ha        1 N53      0.150000
     43 H3         -9.6790   -2.5350    3.9710 ha        1 N53      0.139000
     44 H4        -10.4030   -3.1770    1.6720 ha        1 N53      0.137000
     45 H5         -9.7130   -1.7990   -0.2900 ha        1 N53      0.139000
     46 H8         -5.9740   -0.5610    0.9740 ha        1 N53      0.171000
     47 H12        -3.3540    2.6090   -0.4120 ha        1 N53      0.140000
     48 H10        -6.6920    3.5500    2.1790 ha        1 N53      0.158000
     49 H11        -4.6980    4.2770    0.8440 ha        1 N53      0.144000
     50 H14         4.9330    1.2090    3.0790 ha        1 N53      0.133500
     51 H18         7.8240   -1.1890    0.9390 ha        1 N53      0.133500
     52 H371        5.6190   -1.0700    0.1300 hc        1 N53      0.068700
     53 H372        4.3100   -0.5840    1.2840 hc        1 N53      0.068700
     54 H15         6.5890    1.5730    4.9060 ha        1 N53      0.130500
     55 H16         8.8620    0.5540    4.7540 ha        1 N53      0.130000
     56 H17         9.4750   -0.8280    2.7680 ha        1 N53      0.130500
     57 H20         4.9140    1.8920    0.7150 h1        1 N53      0.073700
     58 H241        2.7500    2.0810   -2.2760 h1        1 N53      0.061200
     59 H242        3.4580    3.0590   -0.9060 h1        1 N53      0.061200
     60 H211        7.1520    1.4480   -0.2230 h1        1 N53      0.055200
     61 H212        6.4560    0.3780   -1.5320 h1        1 N53      0.055200
     62 H231        4.7400    3.5200   -2.9190 h1        1 N53      0.040700
     63 H232        4.9020    1.7500   -3.3260 h1        1 N53      0.040700
     64 H361        7.4450    1.9340   -3.3160 h1        1 N53      0.033033
     65 H362        7.1260    3.7150   -3.0850 h1        1 N53      0.033033
     66 H363        8.1750    2.8140   -1.8960 h1        1 N53      0.033033
     67 H261        1.2320    0.2180    0.1310 h1        1 N53      0.051200
     68 H262        0.9540    1.1430   -1.4210 h1        1 N53      0.051200
     69 H321        1.6000   -1.1170   -4.2740 hc        1 N53      0.054700
     70 H322        3.1930   -1.8990   -3.8730 hc        1 N53      0.054700
     71 H323        1.7100   -2.9230   -4.1380 hc        1 N53      0.054700
     72 H331        1.9780   -4.0440   -1.9970 hc        1 N53      0.054700
     73 H332        3.5010   -3.0990   -1.6730 hc        1 N53      0.054700
     74 H333        2.1580   -3.1200   -0.4470 hc        1 N53      0.054700
     75 H30        -2.7780   -2.4000   -1.9400 hn        1 N53      0.346700
     76 H38        -2.0030    0.7020    0.0960 hn        1 N53      0.341500
     77 C39        -3.8030   -0.1120   -0.5220 c         1 N53      0.686700
     78 C32         2.0870   -1.9570   -3.7250 c3        1 N53     -0.103100
@<TRIPOS>BOND
     1    1    2 ar  
     2    1    6 ar  
     3    1   39 1   
     4    2    3 ar  
     5    2   41 1   
     6    3    4 ar  
     7    3   43 1   
     8    4    5 ar  
     9    4   44 1   
    10    5    6 ar  
    11    5   45 1   
    12    6   42 1   
    13    7    8 ar  
    14    7   12 ar  
    15    7   77 1   
    16    8    9 ar  
    17    8   46 1   
    18    9   10 ar  
    19    9   39 1   
    20   10   11 ar  
    21   10   48 1   
    22   11   12 ar  
    23   11   49 1   
    24   12   47 1   
    25   13   14 ar  
    26   13   18 ar  
    27   13   36 1   
    28   14   15 ar  
    29   14   50 1   
    30   15   16 ar  
    31   15   54 1   
    32   16   17 ar  
    33   16   55 1   
    34   17   18 ar  
    35   17   56 1   
    36   18   51 1   
    37   19   20 1   
    38   19   24 1   
    39   19   33 1   
    40   20   21 1   
    41   20   36 1   
    42   20   57 1   
    43   21   22 1   
    44   21   60 1   
    45   21   61 1   
    46   22   23 1   
    47   22   35 1   
    48   23   24 1   
    49   23   62 1   
    50   23   63 1   
    51   24   58 1   
    52   24   59 1   
    53   25   28 1   
    54   25   29 2   
    55   25   40 1   
    56   26   27 1   
    57   26   40 1   
    58   26   67 1   
    59   26   68 1   
    60   27   28 1   
    61   27   33 1   
    62   28   32 1   
    63   28   78 1   
    64   29   30 1   
    65   30   31 1   
    66   30   75 1   
    67   31   37 1   
    68   31   40 2   
    69   32   72 1   
    70   32   73 1   
    71   32   74 1   
    72   33   34 2   
    73   35   64 1   
    74   35   65 1   
    75   35   66 1   
    76   36   52 1   
    77   36   53 1   
    78   37   76 1   
    79   37   77 1   
    80   38   77 2   
    81   69   78 1   
    82   70   78 1   
    83   71   78 1   
@<TRIPOS>SUBSTRUCTURE
     1 N53         1 TEMP              0 ****  ****    0 ROOT
