@<TRIPOS>MOLECULE
N53
   78    78     1     0     0
SMALL
bcc


@<TRIPOS>ATOM
      1 C1         -0.7470   -3.2100   -2.9990 c2        1 N53     -0.035000
      2 C2         -1.1310   -2.1430   -2.0310 c3        1 N53     -0.188000
      3 C3         -1.8130   -0.9550   -2.5230 c1        1 N53     -0.014000
      4 C4         -1.9420   -0.6780   -3.9050 c2        1 N53     -0.539000
      5 C5         -2.5820    0.3910   -4.3610 c1        1 N53      0.367000
      6 C6         -1.3680   -4.3830   -3.1630 c2        1 N53     -0.213000
      7 C7          3.3660   -3.5290   -1.7880 c3        1 N53     -0.093000
      8 C8          1.9410   -3.4470   -2.2090 c2        1 N53     -0.311000
      9 C9          1.5790   -2.9750   -3.4120 c2        1 N53      0.042000
     10 C10         4.2900   -0.0080   -1.6890 c1        1 N53      0.206000
     11 C11         3.9900   -1.1860   -1.2980 c1        1 N53     -0.583000
     12 C12         3.6890   -2.3940   -0.8630 c2        1 N53      0.201000
     13 C13         1.0590  -12.7670   -8.5210 c3        1 N53      0.003000
     14 C14         1.6560  -11.6530   -9.3320 c2        1 N53     -0.118000
     15 C15         0.9680  -11.1350  -10.3120 c1        1 N53     -0.200000
     16 C16         0.1690  -10.7170  -11.2540 c2        1 N53     -0.094000
     17 C17        -0.9910  -12.4840   -9.9560 c1        1 N53      0.133000
     18 C18        -0.3440  -13.0410   -8.9480 c2        1 N53     -0.476000
     19 N19         1.3300  -10.4750   -5.5910 ns        1 N53     -0.347000
     20 C20         0.5320  -11.2000   -6.5620 c3        1 N53      0.000000
     21 C21        -0.9090  -11.5160   -6.0630 c3        1 N53     -0.096000
     22 N22        -1.8230  -10.4150   -5.9270 n7        1 N53     -0.314000
     23 C23         0.7200   -6.9850   -5.7770 c2        1 N53     -0.235500
     24 C24         1.1790   -7.1600   -7.0100 c2        1 N53     -0.235500
     25 C25         3.4240   -9.5970   -1.4800 c2        1 N53     -0.065000
     26 C26         2.3090   -8.8930   -3.4330 c1        1 N53      0.026000
     27 N27         2.3160  -10.2550   -3.3950 n         1 N53     -0.250000
     28 C28         2.9950  -10.8640   -2.1870 c3        1 N53      0.113000
     29 N29         4.0690   -9.1430   -0.3720 na        1 N53     -0.094000
     30 N30         4.1130   -7.7950   -0.3290 n2        1 N53     -0.101000
     31 C31         3.4660   -7.3190   -1.4630 c2        1 N53      0.119000
     32 C33         4.2040  -11.7200   -2.5580 c3        1 N53     -0.217500
     33 C34         1.7540  -11.0860   -4.4170 c2        1 N53      0.415000
     34 O35         1.7140  -12.3260   -4.2400 o         1 N53     -0.394000
     35 C36        -1.6720   -9.5690   -4.7790 c3        1 N53     -0.124000
     36 C37         1.1930  -12.5090   -7.0260 c3        1 N53     -0.153000
     37 N38         3.2860   -5.9960   -1.8370 ns        1 N53     -0.292000
     38 O40         4.1810   -4.9310    0.0180 o         1 N53     -0.307000
     39 O41         0.2940   -2.8730   -3.8860 os        1 N53     -0.182000
     40 C42         2.9990   -8.4450   -2.2420 c2        1 N53     -0.326000
     41 H2         -1.7910   -2.5900   -1.2320 hc        1 N53      0.149000
     42 H6         -1.0330   -5.1280   -3.8970 ha        1 N53      0.134000
     43 H3         -0.2030   -1.7590   -1.5080 hc        1 N53      0.149000
     44 H4         -2.2560   -4.6470   -2.5760 ha        1 N53      0.134000
     45 H5         -1.4820   -1.3630   -4.6590 ha        1 N53      0.192000
     46 H8          1.1970   -3.7830   -1.4710 ha        1 N53      0.152000
     47 H12         4.0480   -3.4630   -2.6880 hc        1 N53      0.141000
     48 H10         2.2660   -2.6120   -4.1980 h4        1 N53      0.175000
     49 H11         3.6660   -2.6360    0.2200 ha        1 N53      0.159000
     50 H14         2.6720  -11.3330   -9.0620 ha        1 N53      0.154000
     51 H18        -0.8630  -13.8230   -8.3590 ha        1 N53      0.184000
     52 H371        2.2900  -12.4940   -6.7810 hc        1 N53      0.104500
     53 H372        0.7500  -13.3680   -6.4570 hc        1 N53      0.104500
     54 H15         1.6650  -13.6990   -8.7450 hc        1 N53      0.108000
     55 H16         0.1670  -11.1620  -12.2610 ha        1 N53      0.141500
     56 H17        -0.5310   -9.8820  -11.1020 ha        1 N53      0.141500
     57 H20         0.4610  -10.5060   -7.4560 h1        1 N53      0.106000
     58 H241        1.2590   -9.4770   -5.6090 hn        1 N53      0.256000
     59 H242        0.6730   -6.7560   -7.8970 ha        1 N53      0.117250
     60 H211       -0.8370  -12.0630   -5.0810 h1        1 N53      0.108000
     61 H212       -1.3630  -12.2170   -6.8220 h1        1 N53      0.108000
     62 H231       -1.8660   -9.8750   -6.7700 hn        1 N53      0.161000
     63 H232       -0.2010   -6.4240   -5.5660 ha        1 N53      0.117250
     64 H361       -0.8230   -8.8320   -4.8550 h1        1 N53      0.069333
     65 H362       -1.5170  -10.1920   -3.8600 h1        1 N53      0.069333
     66 H363       -2.6230   -8.9840   -4.6560 h1        1 N53      0.069333
     67 H261        1.2330   -7.3890   -4.8860 ha        1 N53      0.117250
     68 H262        2.1010   -7.7170   -7.2230 ha        1 N53      0.117250
     69 H321        1.1680  -11.0530   -0.9880 hc        1 N53      0.099000
     70 H322        1.6610  -12.5550   -1.8870 hc        1 N53      0.099000
     71 H323        2.5840  -12.0290   -0.4090 hc        1 N53      0.099000
     72 H331        4.6940  -12.0830   -1.6230 hc        1 N53      0.099000
     73 H332        3.8670  -12.6010   -3.1590 hc        1 N53      0.099000
     74 H333        4.9470  -11.1360   -3.1510 hc        1 N53      0.099000
     75 H30         4.4860   -9.6640    0.3660 hn        1 N53      0.286000
     76 H38         2.7900   -5.8660   -2.6930 hn        1 N53      0.260000
     77 C39         3.6480   -4.8730   -1.0990 c2        1 N53      0.310000
     78 C32         2.0380  -11.6710   -1.3130 c3        1 N53     -0.217500
@<TRIPOS>BOND
     1    1    2 1   
     2    1    6 1   
     3    1   39 1   
     4    2    3 1   
     5    2   41 1   
     6    2   43 1   
     7    3    4 1   
     8    4    5 1   
     9    4   45 1   
    10    6   42 1   
    11    6   44 1   
    12    7    8 1   
    13    7   12 1   
    14    7   47 1   
    15    7   77 1   
    16    8    9 1   
    17    8   46 1   
    18    9   39 1   
    19    9   48 1   
    20   10   11 1   
    21   11   12 1   
    22   12   49 1   
    23   13   14 1   
    24   13   18 1   
    25   13   36 1   
    26   13   54 1   
    27   14   15 1   
    28   14   50 1   
    29   15   16 1   
    30   16   55 1   
    31   16   56 1   
    32   17   18 1   
    33   18   51 1   
    34   19   20 1   
    35   19   33 1   
    36   19   58 1   
    37   20   21 1   
    38   20   36 1   
    39   20   57 1   
    40   21   22 1   
    41   21   60 1   
    42   21   61 1   
    43   22   35 1   
    44   22   62 1   
    45   23   24 1   
    46   23   63 1   
    47   23   67 1   
    48   24   59 1   
    49   24   68 1   
    50   25   28 1   
    51   25   29 1   
    52   25   40 1   
    53   26   27 1   
    54   26   40 1   
    55   27   28 1   
    56   27   33 1   
    57   28   32 1   
    58   28   78 1   
    59   29   30 1   
    60   29   75 1   
    61   30   31 1   
    62   31   37 1   
    63   31   40 1   
    64   32   72 1   
    65   32   73 1   
    66   32   74 1   
    67   33   34 1   
    68   35   64 1   
    69   35   65 1   
    70   35   66 1   
    71   36   52 1   
    72   36   53 1   
    73   37   76 1   
    74   37   77 1   
    75   38   77 1   
    76   69   78 1   
    77   70   78 1   
    78   71   78 1   
@<TRIPOS>SUBSTRUCTURE
     1 N53         1 TEMP              0 ****  ****    0 ROOT
