@<TRIPOS>MOLECULE
N53
   79    79     1     0     0
SMALL
bcc


@<TRIPOS>ATOM
      1 C1          0.5310   -0.7150    1.1940 c3        1 N53     -0.002000
      2 C2          0.2870    0.5260    0.3940 c2        1 N53     -0.200000
      3 C3          1.2340    1.1640   -0.2890 c2        1 N53     -0.222000
      4 C4          2.2550    0.7860    4.1430 c1        1 N53      0.393000
      5 C5          1.7830    0.5990    2.9150 c2        1 N53     -0.557000
      6 C6          0.9860   -0.5250    2.5910 c1        1 N53      0.022000
      7 C7          0.0210   -4.2020   -1.0950 c2        1 N53     -0.141000
      8 C8         -0.0680   -3.4460    0.0110 c2        1 N53     -0.165000
      9 C9         -0.9360   -2.2410    0.0900 c3        1 N53     -0.006000
     10 C10        -3.3300   -4.0600   -5.3280 c1        1 N53      0.386000
     11 C11        -2.3190   -4.5900   -4.7100 c1        1 N53     -0.754000
     12 C12        -1.3280   -5.1120   -4.0990 c1        1 N53      0.386000
     13 C13         1.3610  -14.6770   -6.2770 c2        1 N53     -0.201000
     14 C14         2.6050  -14.0530   -6.9200 c3        1 N53     -0.087000
     15 C15         3.4400  -15.2230   -7.1350 cu        1 N53      0.030500
     16 C16         4.0640  -16.4570   -7.2550 cu        1 N53      0.080000
     17 C17         2.7990  -16.4420   -6.7000 cu        1 N53      0.030500
     18 C18         1.4700  -16.2000   -6.1440 c3        1 N53     -0.087000
     19 N19         1.5260   -9.2460   -7.6170 n         1 N53     -0.378000
     20 C20         2.4280  -12.2010  -10.0040 c1        1 N53     -0.231500
     21 C21         2.5300  -12.7180  -11.0780 c1        1 N53     -0.231500
     22 N22        -0.2960   -7.1210   -9.2050 n3        1 N53     -0.316000
     23 C23         0.2070   -7.1200   -7.8590 c3        1 N53     -0.086000
     24 C24         1.5660   -7.8160   -7.5960 c3        1 N53     -0.068000
     25 C25         2.5820   -9.2690   -3.1440 c2        1 N53     -0.146000
     26 C26         1.0360   -8.5600   -4.7450 c2        1 N53     -0.128000
     27 N27         1.5650   -9.8070   -5.2030 n         1 N53     -0.240000
     28 C28         2.6010  -10.3220   -4.2270 c3        1 N53      0.154000
     29 N29         3.1540   -8.9990   -1.9890 n2        1 N53     -0.001000
     30 N30         2.7240   -7.7780   -1.5640 na        1 N53     -0.140000
     31 C31         1.6310   -7.2970   -2.4370 c2        1 N53     -0.205000
     32 C34         1.7260  -10.1270   -6.5650 c2        1 N53      0.413000
     33 O35         1.9760  -11.3310   -6.8820 o         1 N53     -0.499000
     34 C36        -0.9110   -8.3300   -9.6730 c3        1 N53     -0.116000
     35 C37         0.3190  -13.9540   -5.8810 c2        1 N53     -0.118000
     36 N38         0.8740   -6.1980   -2.2390 nh        1 N53      0.043000
     37 O40         1.5670   -5.7580   -0.0370 oh        1 N53     -0.245000
     38 O41        -0.6830   -1.4810    1.2620 os        1 N53     -0.228000
     39 C42         1.5710   -8.2210   -3.5440 c2        1 N53     -0.072000
     40 H2         -0.7530    0.8910    0.4270 ha        1 N53      0.144000
     41 H6          1.3470   -1.3430    0.7110 h1        1 N53      0.117000
     42 H3          1.0300    2.0890   -0.8460 ha        1 N53      0.116000
     43 H4          2.2730    0.8120   -0.3440 ha        1 N53      0.116000
     44 H5          2.0160    1.3750    2.1460 ha        1 N53      0.182000
     45 H8          0.4740   -3.7070    0.9360 ha        1 N53      0.160000
     46 H12        -0.5400   -3.9430   -2.0100 ha        1 N53      0.123000
     47 H10        -2.0140   -2.5510    0.2110 h1        1 N53      0.102000
     48 H11        -0.8320   -1.5990   -0.8260 h1        1 N53      0.102000
     49 H14         3.0760  -13.2700   -6.2550 hc        1 N53      0.192250
     50 H18         0.6670  -16.7290   -6.7280 hc        1 N53      0.192250
     51 H371       -0.5740  -14.4000   -5.4200 ha        1 N53      0.158000
     52 H372        0.3100  -12.8560   -6.0010 ha        1 N53      0.158000
     53 H15         2.3530  -13.5090   -7.8800 hc        1 N53      0.192250
     54 H16         4.9310  -17.0270   -7.5650 ha        1 N53      0.262000
     55 H17         1.3920  -16.5340   -5.0730 hc        1 N53      0.192250
     56 H20         2.3360  -11.7210   -9.0560 ha        1 N53      0.231000
     57 H241        2.3000   -7.4820   -8.3900 h1        1 N53      0.101000
     58 H242        1.4540   -9.6750   -8.5140 hn        1 N53      0.239000
     59 H211        2.6180  -13.1670  -12.0370 ha        1 N53      0.231000
     60 H212        0.3900   -6.7840   -9.8530 hn        1 N53      0.168000
     61 H231        0.3520   -6.0390   -7.5690 h1        1 N53      0.097000
     62 H232       -0.5800   -7.5590   -7.1850 h1        1 N53      0.097000
     63 H361       -1.4410   -8.1000  -10.6360 h1        1 N53      0.070000
     64 H362       -1.6670   -8.6860   -8.9250 h1        1 N53      0.070000
     65 H363       -0.1880   -9.1700   -9.8680 h1        1 N53      0.070000
     66 H261        0.2380   -8.0810   -5.3180 h4        1 N53      0.170000
     67 H262        1.9640   -7.4440   -6.6100 h1        1 N53      0.101000
     68 H321        2.0840  -12.4270   -4.4730 hc        1 N53      0.091000
     69 H322        2.9480  -12.0120   -2.9200 hc        1 N53      0.091000
     70 H323        1.1940  -11.5940   -3.1270 hc        1 N53      0.091000
     71 H331        4.0240  -11.2130   -5.6220 hc        1 N53      0.091000
     72 H332        4.3400   -9.4630   -5.2500 hc        1 N53      0.091000
     73 H333        4.7150  -10.7270   -4.0090 hc        1 N53      0.091000
     74 H30         2.4810   -7.7790   -0.5810 hn        1 N53      0.223000
     75 H38         0.2250   -5.9670   -2.9910 hn        1 N53      0.289000
     76 C32         2.1760  -11.6750   -3.6520 c3        1 N53     -0.215000
     77 H382        2.3740   -5.2130   -0.0450 ho        1 N53      0.220000
     78 C39         0.8360   -5.4020   -1.1520 c2        1 N53     -0.065000
     79 C33         4.0050  -10.4370   -4.8200 c3        1 N53     -0.215000
@<TRIPOS>BOND
     1    1    2 1   
     2    1    6 1   
     3    1   38 1   
     4    1   41 1   
     5    2    3 1   
     6    2   40 1   
     7    3   42 1   
     8    3   43 1   
     9    4    5 1   
    10    5    6 1   
    11    5   44 1   
    12    7    8 1   
    13    7   46 1   
    14    7   78 1   
    15    8    9 1   
    16    8   45 1   
    17    9   38 1   
    18    9   47 1   
    19    9   48 1   
    20   10   11 1   
    21   11   12 1   
    22   13   14 1   
    23   13   18 1   
    24   13   35 1   
    25   14   15 1   
    26   14   49 1   
    27   14   53 1   
    28   15   16 1   
    29   15   17 1   
    30   16   17 1   
    31   16   54 1   
    32   17   18 1   
    33   18   50 1   
    34   18   55 1   
    35   19   24 1   
    36   19   32 1   
    37   19   58 1   
    38   20   21 1   
    39   20   56 1   
    40   21   59 1   
    41   22   23 1   
    42   22   34 1   
    43   22   60 1   
    44   23   24 1   
    45   23   61 1   
    46   23   62 1   
    47   24   57 1   
    48   24   67 1   
    49   25   28 1   
    50   25   29 1   
    51   25   39 1   
    52   26   27 1   
    53   26   39 1   
    54   26   66 1   
    55   27   28 1   
    56   27   32 1   
    57   28   76 1   
    58   28   79 1   
    59   29   30 1   
    60   30   31 1   
    61   30   74 1   
    62   31   36 1   
    63   31   39 1   
    64   32   33 1   
    65   34   63 1   
    66   34   64 1   
    67   34   65 1   
    68   35   51 1   
    69   35   52 1   
    70   36   75 1   
    71   36   78 1   
    72   37   77 1   
    73   37   78 1   
    74   68   76 1   
    75   69   76 1   
    76   70   76 1   
    77   71   79 1   
    78   72   79 1   
    79   73   79 1   
@<TRIPOS>SUBSTRUCTURE
     1 N53         1 TEMP              0 ****  ****    0 ROOT
