@<TRIPOS>MOLECULE
N5A
   43    45     1     0     0
SMALL
bcc


@<TRIPOS>ATOM
      1 N53        -0.0710   -0.4200   -0.0870 n4        1 N5A     -0.833600
      2 C52         1.3780   -0.0900   -0.0640 c3        1 N5A      0.077800
      3 C51         2.0270   -0.3530    1.3130 c3        1 N5A      0.075800
      4 N5'         3.4600    0.0300    1.3550 n4        1 N5A     -0.696800
      5 C5'         4.0820   -0.0850    2.7710 c         1 N5A      0.563100
      6 O5'         3.3190   -0.2920    3.6870 o         1 N5A     -0.348100
      7 C4'         5.5830    0.0900    2.7190 c3        1 N5A      0.049100
      8 O4'         6.0990    0.1600    4.0420 os        1 N5A     -0.384600
      9 C3'         6.2610   -1.1200    2.0190 c3        1 N5A      0.118100
     10 O3'         6.2080   -0.9210    0.6340 oh        1 N5A     -0.624800
     11 C2'         7.6550   -1.1560    2.6830 c3        1 N5A      0.103100
     12 O2'         8.5230   -0.4190    1.8580 oh        1 N5A     -0.592800
     13 C1'         7.4640   -0.3640    4.0290 c3        1 N5A      0.235800
     14 N9          7.6720   -1.1420    5.2260 na        1 N5A     -0.299000
     15 C8          6.9490   -1.0550    6.4490 cc        1 N5A      0.513700
     16 N7          7.5680   -1.6340    7.4870 nd        1 N5A     -0.542100
     17 C5          8.7880   -2.1020    6.9770 ca        1 N5A     -0.130200
     18 C4          8.8870   -1.7870    5.5390 ca        1 N5A      0.452800
     19 N3          9.9580   -2.1110    4.7750 nb        1 N5A     -0.661000
     20 C2         10.9460   -2.7520    5.4560 ca        1 N5A      0.701900
     21 N1         10.9780   -3.0950    6.7760 nb        1 N5A     -0.653000
     22 C6          9.9010   -2.7670    7.5320 ca        1 N5A      0.555200
     23 N6          9.9020   -3.1000    8.9680 n4        1 N5A     -0.821300
     24 H531       -0.4480   -0.2240   -1.0300 hn        1 N5A      0.489800
     25 H532       -0.2300   -1.4150    0.1240 hn        1 N5A      0.489800
     26 H521        1.4820    1.0020   -0.3480 hx        1 N5A      0.139200
     27 H522        1.8850   -0.7150   -0.8620 hx        1 N5A      0.139200
     28 H511        1.9570   -1.4500    1.5790 hx        1 N5A      0.137200
     29 H512        1.4910    0.2330    2.1210 hx        1 N5A      0.137200
     30 HN5'        4.0210   -0.5650    0.7190 hn        1 N5A      0.482300
     31 H4'         5.8340    1.0600    2.1950 h1        1 N5A      0.131700
     32 H3'         5.7110   -2.0780    2.2320 h1        1 N5A      0.099700
     33 HO3'        7.0830   -0.6440    0.3050 ho        1 N5A      0.488000
     34 H2'         8.0020   -2.2110    2.8370 h1        1 N5A      0.121700
     35 HO2'        9.4160   -0.7940    1.9350 ho        1 N5A      0.471000
     36 H1'         8.1420    0.5480    4.0400 h2        1 N5A      0.135700
     37 H8          5.9650   -0.5570    6.4920 h5        1 N5A      0.115800
     38 H2         11.8550   -3.0350    4.8680 h5        1 N5A      0.118100
     39 HN61        8.9740   -3.4620    9.2300 hn        1 N5A      0.490800
     40 HN62       10.0960   -2.2430    9.5070 hn        1 N5A      0.490800
     41 H533       -0.5930    0.1490    0.5950 hn        1 N5A      0.489800
     42 H5'2        3.5730    1.0050    1.0470 hn        1 N5A      0.482300
     43 H63        10.6240   -3.8050    9.1860 hn        1 N5A      0.490800
@<TRIPOS>BOND
     1    1    2 1   
     2    1   24 1   
     3    1   25 1   
     4    1   41 1   
     5    2    3 1   
     6    2   26 1   
     7    2   27 1   
     8    3    4 1   
     9    3   28 1   
    10    3   29 1   
    11    4    5 1   
    12    4   30 1   
    13    4   42 1   
    14    5    6 2   
    15    5    7 1   
    16    7    8 1   
    17    7    9 1   
    18    7   31 1   
    19    8   13 1   
    20    9   10 1   
    21    9   11 1   
    22    9   32 1   
    23   10   33 1   
    24   11   12 1   
    25   11   13 1   
    26   11   34 1   
    27   12   35 1   
    28   13   14 1   
    29   13   36 1   
    30   14   15 1   
    31   14   18 1   
    32   15   16 2   
    33   15   37 1   
    34   16   17 1   
    35   17   18 ar  
    36   17   22 ar  
    37   18   19 ar  
    38   19   20 ar  
    39   20   21 ar  
    40   20   38 1   
    41   21   22 ar  
    42   22   23 1   
    43   23   39 1   
    44   23   40 1   
    45   23   43 1   
@<TRIPOS>SUBSTRUCTURE
     1 N5A         1 TEMP              0 ****  ****    0 ROOT
