@<TRIPOS>MOLECULE
N5A
   40    38     1     0     0
SMALL
bcc


@<TRIPOS>ATOM
      1 N53        -5.7520    0.1410   -2.5970 n3        1 N5A     -0.903800
      2 C52        -4.3100   -0.0630   -2.9600 c3        1 N5A      0.140800
      3 C51        -3.4370   -0.0630   -1.6760 c3        1 N5A      0.040000
      4 N5'        -2.1310   -0.5310   -1.9930 n         1 N5A     -0.542900
      5 C5'        -1.0200   -0.1910   -1.1310 c         1 N5A      0.642100
      6 O5'        -1.2190    0.0210    0.0740 o         1 N5A     -0.625100
      7 C4'         0.2990    0.0830   -1.7090 c3        1 N5A      0.055100
      8 O4'         1.2310    0.7790   -0.5910 os        1 N5A     -0.410600
      9 C3'         0.9340   -1.0590   -1.9490 c3        1 N5A      0.083100
     10 O3'         1.9060   -0.8810   -3.0990 oh        1 N5A     -0.592800
     11 C2'         1.7100   -1.3970   -0.6510 c3        1 N5A      0.081100
     12 O2'         3.0170   -1.7180   -0.9530 oh        1 N5A     -0.576800
     13 C1'         1.6730   -0.1760    0.1880 c3        1 N5A      0.216800
     14 N9          0.7510   -0.3720    1.3250 n3        1 N5A     -0.134400
     15 C8          1.0750   -1.4850    2.0450 c1        1 N5A      0.168400
     16 N7          1.7840   -1.0950    3.1120 ne        1 N5A     -0.382400
     17 C5          1.9080    0.2730    3.0640 cg        1 N5A     -0.194000
     18 C4          1.2700    0.7080    1.9620 c1        1 N5A      0.352500
     19 N3          1.2110    2.0450    1.6900 n1        1 N5A     -0.536800
     20 C2          1.8100    2.9620    2.5530 c1        1 N5A      0.410300
     21 N1          2.4690    2.5180    3.6890 n1        1 N5A     -0.592800
     22 C6          2.5290    1.2240    3.9570 c1        1 N5A      0.297800
     23 N6          3.0610    1.1030    5.2270 n3        1 N5A     -0.821400
     24 H531       -6.0070   -0.4890   -2.0520 hn        1 N5A      0.351300
     25 H532       -5.8540    0.9580   -2.1910 hn        1 N5A      0.351300
     26 H521       -4.0000    0.7130   -3.5870 h1        1 N5A      0.057700
     27 H522       -4.2060   -0.9480   -3.4390 h1        1 N5A      0.057700
     28 H511       -3.8660   -0.6850   -0.9640 h1        1 N5A      0.058700
     29 H512       -3.3810    0.8220   -1.3350 h1        1 N5A      0.058700
     30 HN5'       -2.0250   -1.0930   -2.6190 hn        1 N5A      0.325500
     31 H4'         0.0460    0.6440   -2.5080 h1        1 N5A      0.118700
     32 H3'         0.2400   -1.8220   -2.1730 h1        1 N5A      0.101700
     33 HO3'        1.9540   -1.6100   -3.5490 ho        1 N5A      0.424000
     34 H2'         1.2510   -2.1900   -0.1530 h1        1 N5A      0.111700
     35 HO2'        3.5250   -0.8930   -1.1230 ho        1 N5A      0.422000
     36 H1'         2.5810    0.0430    0.5180 h2        1 N5A      0.137700
     37 H8          0.8100   -2.3350    1.8620 DU        1 N5A      0.219000
     38 H2          1.7680    3.9070    2.3580 ha        1 N5A      0.132500
     39 HN61        2.9570    0.2760    5.7140 hn        1 N5A      0.448800
     40 HN62        3.4380    1.8790    5.6660 hn        1 N5A      0.448800
@<TRIPOS>BOND
     1    1    2 1   
     2    1   24 1   
     3    1   25 1   
     4    2    3 1   
     5    2   26 1   
     6    2   27 1   
     7    3    4 1   
     8    3   28 1   
     9    3   29 1   
    10    4    5 1   
    11    4   30 1   
    12    5    6 2   
    13    5    7 1   
    14    7    8 1   
    15    7    9 1   
    16    7   31 1   
    17    8   13 1   
    18    9   10 1   
    19    9   11 1   
    20    9   32 1   
    21   10   33 1   
    22   11   12 1   
    23   11   13 1   
    24   11   34 1   
    25   12   35 1   
    26   13   14 1   
    27   13   36 1   
    28   14   15 2   
    29   14   18 1   
    30   15   16 2   
    31   16   17 1   
    32   17   22 3   
    33   18   19 3   
    34   20   21 3   
    35   20   38 1   
    36   22   23 1   
    37   23   39 1   
    38   23   40 1   
@<TRIPOS>SUBSTRUCTURE
     1 N5A         1 TEMP              0 ****  ****    0 ROOT
