@<TRIPOS>MOLECULE
N5A
   42    44     1     0     0
SMALL
bcc


@<TRIPOS>ATOM
      1 N53         0.9340   -2.4650    1.2410 n4        1 N5A     -0.833600
      2 C52         2.4160   -2.3340    1.2070 c3        1 N5A      0.076800
      3 C51         2.9140   -1.1180    2.0130 c3        1 N5A      0.072800
      4 N5'         4.3860   -0.9990    2.0360 n4        1 N5A     -0.701800
      5 C5'         4.8750    0.1200    3.0120 c         1 N5A      0.583100
      6 O5'         4.1830    0.2930    3.9880 o         1 N5A     -0.366100
      7 C4'         6.1070    0.8470    2.5050 c3        1 N5A      0.067100
      8 O4'         6.7640    1.4270    3.6110 os        1 N5A     -0.352600
      9 C3'         7.1140   -0.0470    1.7290 c3        1 N5A      0.111100
     10 O3'         6.9020    0.1100    0.3540 oh        1 N5A     -0.611800
     11 C2'         8.4840    0.3910    2.2890 c3        1 N5A      0.094100
     12 O2'         8.9360    1.4620    1.4950 oh        1 N5A     -0.590800
     13 C1'         8.1240    0.9290    3.7190 c3        1 N5A      0.231800
     14 N9          8.2420   -0.0400    4.7640 na        1 N5A     -0.312000
     15 C8          9.1300    0.0740    5.8830 cc        1 N5A      0.433700
     16 N7          8.9900   -0.9120    6.7680 nd        1 N5A     -0.493100
     17 C5          7.9540   -1.7210    6.2690 ca        1 N5A     -0.221200
     18 C4          7.4520   -1.1790    5.0170 ca        1 N5A      0.482800
     19 N3          6.4220   -1.7410    4.3120 nb        1 N5A     -0.897000
     20 C2          5.9520   -2.8750    4.9070 ca        1 N5A      0.697900
     21 N1          6.3180   -3.4920    6.0430 nb        1 N5A     -0.768000
     22 C6          7.3520   -2.9230    6.7810 ca        1 N5A      0.794200
     23 N6          7.7760   -3.4800    7.9390 nh        1 N5A     -0.906500
     24 H531        0.6520   -3.2920    0.6920 hn        1 N5A      0.484800
     25 H532        0.5980   -2.5820    2.2070 hn        1 N5A      0.484800
     26 H521        2.7280   -2.2420    0.1220 hx        1 N5A      0.134200
     27 H522        2.8530   -3.2920    1.6240 hx        1 N5A      0.134200
     28 H511        2.4980   -0.1620    1.5750 hx        1 N5A      0.132200
     29 H512        2.5620   -1.1890    3.0900 hx        1 N5A      0.132200
     30 HN5'        4.7540   -0.7900    1.0970 hn        1 N5A      0.475800
     31 H4'         5.7320    1.7000    1.8600 h1        1 N5A      0.138700
     32 H3'         6.9900   -1.1460    1.9330 h1        1 N5A      0.097700
     33 HO3'        7.4830    0.8150    0.0180 ho        1 N5A      0.471000
     34 H2'         9.2140   -0.4590    2.3160 h1        1 N5A      0.111700
     35 HO2'        9.9040    1.4410    1.4770 ho        1 N5A      0.454000
     36 H1'         8.7320    1.8490    3.9800 h2        1 N5A      0.145700
     37 H8          9.8480    0.9030    5.9560 h5        1 N5A      0.098800
     38 H2          5.1260   -3.3850    4.3680 h5        1 N5A      0.009100
     39 HN61        8.5160   -3.0510    8.4470 hn        1 N5A      0.473300
     40 HN62        7.3630   -4.3130    8.2920 hn        1 N5A      0.473300
     41 H533        0.4830   -1.6330    0.8360 hn        1 N5A      0.484800
     42 H5'2        4.8150   -1.8770    2.3620 hn        1 N5A      0.475800
@<TRIPOS>BOND
     1    1    2 1   
     2    1   24 1   
     3    1   25 1   
     4    1   41 1   
     5    2    3 1   
     6    2   26 1   
     7    2   27 1   
     8    3    4 1   
     9    3   28 1   
    10    3   29 1   
    11    4    5 1   
    12    4   30 1   
    13    4   42 1   
    14    5    6 2   
    15    5    7 1   
    16    7    8 1   
    17    7    9 1   
    18    7   31 1   
    19    8   13 1   
    20    9   10 1   
    21    9   11 1   
    22    9   32 1   
    23   10   33 1   
    24   11   12 1   
    25   11   13 1   
    26   11   34 1   
    27   12   35 1   
    28   13   14 1   
    29   13   36 1   
    30   14   15 1   
    31   14   18 1   
    32   15   16 2   
    33   15   37 1   
    34   16   17 1   
    35   17   18 ar  
    36   17   22 ar  
    37   18   19 ar  
    38   19   20 ar  
    39   20   21 ar  
    40   20   38 1   
    41   21   22 ar  
    42   22   23 1   
    43   23   39 1   
    44   23   40 1   
@<TRIPOS>SUBSTRUCTURE
     1 N5A         1 TEMP              0 ****  ****    0 ROOT
