@<TRIPOS>MOLECULE
N5A
   42    44     1     0     0
SMALL
bcc


@<TRIPOS>ATOM
      1 N53         0.9030   -2.3930    1.2670 nz        1 N5A     -0.833600
      2 C52         2.3820   -2.2400    1.2060 c3        1 N5A      0.076800
      3 C51         2.8840   -1.0720    2.0800 c3        1 N5A      0.072800
      4 N5'         4.3550   -0.9340    2.0760 ny        1 N5A     -0.701800
      5 C5'         4.8540    0.1240    3.1120 c         1 N5A      0.583100
      6 O5'         4.1840    0.2230    4.1140 o         1 N5A     -0.366100
      7 C4'         6.0640    0.9010    2.6260 c3        1 N5A      0.067100
      8 O4'         6.7400    1.4150    3.7530 os        1 N5A     -0.352600
      9 C3'         7.0620    0.0750    1.7690 c3        1 N5A      0.111100
     10 O3'         6.8150    0.3200    0.4130 oh        1 N5A     -0.611800
     11 C2'         8.4400    0.4930    2.3250 c3        1 N5A      0.094100
     12 O2'         8.8590    1.6220    1.5940 oh        1 N5A     -0.590800
     13 C1'         8.1080    0.9300    3.7960 c3        1 N5A      0.231800
     14 N9          8.2630   -0.1040    4.7710 na        1 N5A     -0.312000
     15 C8          9.1770   -0.0520    5.8740 cc        1 N5A      0.433700
     16 N7          9.0710   -1.0980    6.6930 nd        1 N5A     -0.493100
     17 C5          8.0340   -1.8850    6.1660 ca        1 N5A     -0.221200
     18 C4          7.4950   -1.2690    4.9650 ca        1 N5A      0.482800
     19 N3          6.4550   -1.7970    4.2480 nb        1 N5A     -0.897000
     20 C2          6.0140   -2.9750    4.7770 ca        1 N5A      0.697900
     21 N1          6.4160   -3.6610    5.8600 nb        1 N5A     -0.768000
     22 C6          7.4600   -3.1270    6.6100 ca        1 N5A      0.794200
     23 N6          7.9190   -3.7550    7.7180 nv        1 N5A     -0.906500
     24 H531        0.4320   -1.5430    0.9280 hn        1 N5A      0.484800
     25 H532        0.5920   -2.5780    2.2300 hn        1 N5A      0.484800
     26 H521        2.6660   -2.0720    0.1230 hx        1 N5A      0.134200
     27 H522        2.8410   -3.2160    1.5500 hx        1 N5A      0.134200
     28 H511        2.4460   -0.0950    1.7150 hx        1 N5A      0.132200
     29 H512        2.5590   -1.2180    3.1570 hx        1 N5A      0.132200
     30 HN5'        4.6970   -0.6580    1.1450 hn        1 N5A      0.475800
     31 H4'         5.6630    1.7900    2.0490 h1        1 N5A      0.138700
     32 H3'         6.9570   -1.0370    1.9020 h1        1 N5A      0.097700
     33 HO3'        7.3790    1.0540    0.1110 ho        1 N5A      0.471000
     34 H2'         9.1810   -0.3450    2.2780 h1        1 N5A      0.111700
     35 HO2'        9.8260    1.6150    1.5520 ho        1 N5A      0.454000
     36 H1'         8.7100    1.8390    4.1030 h2        1 N5A      0.145700
     37 H8          9.8860    0.7800    5.9850 h5        1 N5A      0.098800
     38 H2          5.1820   -3.4590    4.2240 h5        1 N5A      0.009100
     39 HN61        8.6660   -3.3500    8.2360 hn        1 N5A      0.473300
     40 HN62        7.5260   -4.6150    8.0240 hn        1 N5A      0.473300
     41 H533        0.6180   -3.1850    0.6710 hn        1 N5A      0.484800
     42 H5'2        4.8030   -1.8250    2.3320 hn        1 N5A      0.475800
@<TRIPOS>BOND
     1    1    2 1   
     2    1   24 1   
     3    1   25 1   
     4    1   41 1   
     5    2    3 1   
     6    2   26 1   
     7    2   27 1   
     8    3    4 1   
     9    3   28 1   
    10    3   29 1   
    11    4    5 1   
    12    4   30 1   
    13    4   42 1   
    14    5    6 2   
    15    5    7 1   
    16    7    8 1   
    17    7    9 1   
    18    7   31 1   
    19    8   13 1   
    20    9   10 1   
    21    9   11 1   
    22    9   32 1   
    23   10   33 1   
    24   11   12 1   
    25   11   13 1   
    26   11   34 1   
    27   12   35 1   
    28   13   14 1   
    29   13   36 1   
    30   14   15 1   
    31   14   18 1   
    32   15   16 2   
    33   15   37 1   
    34   16   17 1   
    35   17   18 ar  
    36   17   22 ar  
    37   18   19 ar  
    38   19   20 ar  
    39   20   21 ar  
    40   20   38 1   
    41   21   22 ar  
    42   22   23 1   
    43   23   39 1   
    44   23   40 1   
@<TRIPOS>SUBSTRUCTURE
     1 N5A         1 TEMP              0 ****  ****    0 ROOT
