@<TRIPOS>MOLECULE
N5A
   40    42     1     0     0
SMALL
bcc


@<TRIPOS>ATOM
      1 N53         5.4330    2.9620    0.6270 n3        1 N5A     -0.914800
      2 C52         4.6300    1.8070    0.9380 c3        1 N5A      0.140800
      3 C51         3.6800    1.4380   -0.2270 c3        1 N5A      0.084000
      4 N5'         2.8320    0.3210    0.0800 n         1 N5A     -0.546900
      5 C5'         2.8400   -0.8460   -0.6370 c         1 N5A      0.639100
      6 O5'         3.5490   -1.0140   -1.6530 o         1 N5A     -0.627100
      7 C4'         1.9590   -2.0070   -0.1640 c3        1 N5A      0.026100
      8 O4'         0.9160   -1.5910    0.7150 os        1 N5A     -0.410600
      9 C3'         1.3240   -2.7390   -1.3660 c3        1 N5A      0.094100
     10 O3'         1.8750   -4.0260   -1.5380 oh        1 N5A     -0.597800
     11 C2'        -0.1700   -2.8840   -1.0090 c3        1 N5A      0.124100
     12 O2'        -0.5270   -4.1430   -0.4840 oh        1 N5A     -0.583800
     13 C1'        -0.3850   -1.8650    0.1580 c3        1 N5A      0.246800
     14 N9         -1.0380   -0.6520   -0.2550 na        1 N5A     -0.289000
     15 C8         -0.7940    0.1250   -1.4210 cc        1 N5A      0.402700
     16 N7         -1.4780    1.2740   -1.4560 nd        1 N5A     -0.534100
     17 C5         -2.2040    1.3060   -0.2540 ca        1 N5A     -0.239200
     18 C4         -1.9290    0.1060    0.5280 ca        1 N5A      0.474800
     19 N3         -2.4930   -0.1500    1.7440 nb        1 N5A     -0.732000
     20 C2         -3.3360    0.8320    2.1440 ca        1 N5A      0.689900
     21 N1         -3.6880    1.9910    1.5300 nb        1 N5A     -0.793000
     22 C6         -3.1190    2.2600    0.3050 ca        1 N5A      0.762200
     23 N6         -3.3980    3.4230   -0.3620 nh        1 N5A     -0.957500
     24 H531        4.8620    3.7560    0.4160 hn        1 N5A      0.353800
     25 H532        6.0390    3.1820    1.3920 hn        1 N5A      0.353800
     26 H521        5.3310    0.9450    1.1260 h1        1 N5A      0.029700
     27 H522        4.0130    1.9470    1.8760 h1        1 N5A      0.029700
     28 H511        3.0220    2.3250   -0.4630 h1        1 N5A      0.070200
     29 H512        4.2920    1.1980   -1.1440 h1        1 N5A      0.070200
     30 HN5'        2.2530    0.3800    0.8860 hn        1 N5A      0.329500
     31 H4'         2.6100   -2.7070    0.4340 h1        1 N5A      0.107700
     32 H3'         1.4500   -2.1350   -2.3070 h1        1 N5A      0.076700
     33 HO3'        2.7740   -3.9000   -1.8740 ho        1 N5A      0.436000
     34 H2'        -0.8140   -2.6660   -1.9030 h1        1 N5A      0.072700
     35 HO2'       -0.0260   -4.8200   -0.9600 ho        1 N5A      0.438000
     36 H1'        -0.9730   -2.3300    1.0080 h2        1 N5A      0.148700
     37 H8         -0.1120   -0.2310   -2.2030 h5        1 N5A      0.071800
     38 H2         -3.8210    0.6650    3.1320 h5        1 N5A      0.054100
     39 HN61       -3.0430    3.5430   -1.2770 hn        1 N5A      0.448800
     40 HN62       -4.0850    4.0480   -0.0170 hn        1 N5A      0.448800
@<TRIPOS>BOND
     1    1    2 1   
     2    1   24 1   
     3    1   25 1   
     4    2    3 1   
     5    2   26 1   
     6    2   27 1   
     7    3    4 1   
     8    3   28 1   
     9    3   29 1   
    10    4    5 1   
    11    4   30 1   
    12    5    6 2   
    13    5    7 1   
    14    7    8 1   
    15    7    9 1   
    16    7   31 1   
    17    8   13 1   
    18    9   10 1   
    19    9   11 1   
    20    9   32 1   
    21   10   33 1   
    22   11   12 1   
    23   11   13 1   
    24   11   34 1   
    25   12   35 1   
    26   13   14 1   
    27   13   36 1   
    28   14   15 1   
    29   14   18 1   
    30   15   16 2   
    31   15   37 1   
    32   16   17 1   
    33   17   18 ar  
    34   17   22 ar  
    35   18   19 ar  
    36   19   20 ar  
    37   20   21 ar  
    38   20   38 1   
    39   21   22 ar  
    40   22   23 1   
    41   23   39 1   
    42   23   40 1   
@<TRIPOS>SUBSTRUCTURE
     1 N5A         1 TEMP              0 ****  ****    0 ROOT
