@<TRIPOS>MOLECULE
N5B
   30    32     1     0     0
SMALL
bcc


@<TRIPOS>ATOM
      1 C1         -0.0730    0.1230   -0.0640 cc        1 N5B      0.360600
      2 C2         -1.0570   -0.0720   -1.1250 cx        1 N5B     -0.161000
      3 C3          1.3610    0.0150   -0.2600 cc        1 N5B     -0.286300
      4 N4         -0.3490    0.4260    1.2360 nd        1 N5B     -0.525800
      5 C5         -2.3760   -0.7490   -0.8380 cx        1 N5B     -0.118900
      6 C6         -2.3440    0.7170   -1.1400 cx        1 N5B     -0.118900
      7 C7          1.9180    0.2680    1.0090 cd        1 N5B      0.016300
      8 N8          0.8120    0.4420    1.8990 na        1 N5B     -0.040600
      9 N9          3.2480    0.2880    1.4220 ns        1 N5B     -0.458100
     10 C10         4.3030   -0.1880    0.6430 c         1 N5B      0.684700
     11 C11         5.6470   -0.1570    1.2870 ca        1 N5B     -0.147600
     12 O12         4.1390   -0.5740   -0.5260 o         1 N5B     -0.563100
     13 C13         6.7340    0.2890    0.5260 ca        1 N5B     -0.091000
     14 C14         5.8420   -0.5920    2.6020 ca        1 N5B     -0.091000
     15 C15         8.0090    0.3160    1.0880 ca        1 N5B     -0.135500
     16 C16         7.1220   -0.5690    3.1560 ca        1 N5B     -0.135500
     17 C17         8.2040   -0.1110    2.4020 ca        1 N5B     -0.105000
     18 H2         -0.5670   -0.2830   -2.0980 hc        1 N5B      0.089700
     19 H3          1.8900   -0.2230   -1.1770 ha        1 N5B      0.192000
     20 H5C1       -2.5940   -1.0800    0.1930 hc        1 N5B      0.074950
     21 H5C2       -2.7790   -1.4480   -1.5910 hc        1 N5B      0.074950
     22 H6C1       -2.5420    1.4370   -0.3260 hc        1 N5B      0.074950
     23 H6C2       -2.7250    1.0760   -2.1120 hc        1 N5B      0.074950
     24 H8          0.8540    0.9280    2.7650 hn        1 N5B      0.303700
     25 H9          3.4460    0.5890    2.3490 hn        1 N5B      0.321500
     26 H13         6.5720    0.6060   -0.5170 ha        1 N5B      0.146000
     27 H14         5.0000   -0.9750    3.1980 ha        1 N5B      0.146000
     28 H15         8.8630    0.6690    0.4910 ha        1 N5B      0.140000
     29 H16         7.2770   -0.9160    4.1880 ha        1 N5B      0.140000
     30 H17         9.2110   -0.0920    2.8440 ha        1 N5B      0.138000
@<TRIPOS>BOND
     1    1    2 1   
     2    1    3 1   
     3    1    4 2   
     4    2    5 1   
     5    2    6 1   
     6    2   18 1   
     7    3    7 2   
     8    3   19 1   
     9    4    8 1   
    10    5    6 1   
    11    5   20 1   
    12    5   21 1   
    13    6   22 1   
    14    6   23 1   
    15    7    8 1   
    16    7    9 1   
    17    8   24 1   
    18    9   10 1   
    19    9   25 1   
    20   10   11 1   
    21   10   12 2   
    22   11   13 ar  
    23   11   14 ar  
    24   13   15 ar  
    25   13   26 1   
    26   14   16 ar  
    27   14   27 1   
    28   15   17 ar  
    29   15   28 1   
    30   16   17 ar  
    31   16   29 1   
    32   17   30 1   
@<TRIPOS>SUBSTRUCTURE
     1 N5B         1 TEMP              0 ****  ****    0 ROOT
