@<TRIPOS>MOLECULE
N5B
   30    32     1     0     0
SMALL
bcc


@<TRIPOS>ATOM
      1 C1         -0.0730    0.1240   -0.0640 cc        1 N5B      0.360600
      2 C2         -1.0550   -0.0570   -1.1290 cx        1 N5B     -0.161000
      3 C3          1.3610    0.0270   -0.2620 cc        1 N5B     -0.286300
      4 N4         -0.3510    0.4040    1.2410 nd        1 N5B     -0.525800
      5 C5         -2.3710   -0.7450   -0.8540 cx        1 N5B     -0.118900
      6 C6         -2.3470    0.7260   -1.1310 cx        1 N5B     -0.118900
      7 C7          1.9160    0.2600    1.0120 cd        1 N5B      0.016300
      8 N8          0.8100    0.4130    1.9050 na        1 N5B     -0.040600
      9 N9          3.2460    0.2780    1.4270 n         1 N5B     -0.458100
     10 C10         4.3040   -0.1800    0.6400 c         1 N5B      0.684700
     11 C11         5.6470   -0.1550    1.2870 ca        1 N5B     -0.147600
     12 O12         4.1420   -0.5480   -0.5350 o         1 N5B     -0.563100
     13 C13         6.7330    0.3080    0.5340 ca        1 N5B     -0.091000
     14 C14         5.8430   -0.6110    2.5940 ca        1 N5B     -0.091000
     15 C15         8.0080    0.3310    1.0970 ca        1 N5B     -0.135500
     16 C16         7.1220   -0.5910    3.1490 ca        1 N5B     -0.135500
     17 C17         8.2030   -0.1170    2.4040 ca        1 N5B     -0.105000
     18 H2         -0.5640   -0.2480   -2.1060 hc        1 N5B      0.089700
     19 H3          1.8920   -0.1940   -1.1820 ha        1 N5B      0.192000
     20 H5C1       -2.5880   -1.0950    0.1710 hc        1 N5B      0.074950
     21 H5C2       -2.7710   -1.4330   -1.6210 hc        1 N5B      0.074950
     22 H6C1       -2.7290    1.1010   -2.0970 hc        1 N5B      0.074950
     23 H6C2       -2.5480    1.4300   -0.3040 hc        1 N5B      0.074950
     24 H8          0.8490    0.8850    2.7790 hn        1 N5B      0.303700
     25 H9          3.4420    0.5650    2.3580 hn        1 N5B      0.321500
     26 H13         6.5710    0.6410   -0.5040 ha        1 N5B      0.146000
     27 H14         5.0020   -1.0060    3.1830 ha        1 N5B      0.146000
     28 H15         8.8600    0.6970    0.5060 ha        1 N5B      0.140000
     29 H16         7.2790   -0.9550    4.1760 ha        1 N5B      0.140000
     30 H17         9.2100   -0.1010    2.8470 ha        1 N5B      0.138000
@<TRIPOS>BOND
     1    1    2 1   
     2    1    3 1   
     3    1    4 2   
     4    2    5 1   
     5    2    6 1   
     6    2   18 1   
     7    3    7 2   
     8    3   19 1   
     9    4    8 1   
    10    5    6 1   
    11    5   20 1   
    12    5   21 1   
    13    6   22 1   
    14    6   23 1   
    15    7    8 1   
    16    7    9 1   
    17    8   24 1   
    18    9   10 1   
    19    9   25 1   
    20   10   11 1   
    21   10   12 2   
    22   11   13 ar  
    23   11   14 ar  
    24   13   15 ar  
    25   13   26 1   
    26   14   16 ar  
    27   14   27 1   
    28   15   17 ar  
    29   15   28 1   
    30   16   17 ar  
    31   16   29 1   
    32   17   30 1   
@<TRIPOS>SUBSTRUCTURE
     1 N5B         1 TEMP              0 ****  ****    0 ROOT
