@<TRIPOS>MOLECULE
N5B
   31    33     1     0     0
SMALL
bcc


@<TRIPOS>ATOM
      1 C1          0.1600   -0.2250    0.0050 cc        1 N5B      0.376600
      2 C2         -0.7260   -0.8120   -0.9930 cx        1 N5B     -0.202000
      3 C3          1.2550   -0.9200    0.6390 cc        1 N5B     -0.201300
      4 N4          0.0880    1.0620    0.4880 nd        1 N5B     -0.431800
      5 C5         -2.1940   -0.4490   -1.0280 cx        1 N5B     -0.099400
      6 C6         -1.2890    0.0300   -2.1160 cx        1 N5B     -0.099400
      7 C7          1.8120    0.0370    1.5210 cd        1 N5B     -0.142700
      8 N8          1.0380    1.2140    1.3880 na        1 N5B      0.031400
      9 N9          2.9210   -0.1320    2.4290 n4        1 N5B     -0.518200
     10 C10         3.9900    0.9550    2.2560 c         1 N5B      0.593700
     11 C11         5.3250    0.4820    1.9050 ca        1 N5B     -0.206600
     12 O12         3.5890    2.0970    2.4190 o         1 N5B     -0.431100
     13 C13         6.1000    1.3110    1.0760 ca        1 N5B     -0.066500
     14 C14         5.8580   -0.7230    2.3940 ca        1 N5B     -0.066500
     15 C15         7.3900    0.9200    0.7220 ca        1 N5B     -0.120500
     16 C16         7.1490   -1.0970    2.0390 ca        1 N5B     -0.120500
     17 C17         7.9150   -0.2810    1.1980 ca        1 N5B     -0.048000
     18 H2         -0.4450   -1.8610   -1.2220 hc        1 N5B      0.098700
     19 H3          1.5630   -1.9470    0.4690 ha        1 N5B      0.191000
     20 H5C1       -2.5860    0.2790   -0.2940 hc        1 N5B      0.088450
     21 H5C2       -2.9210   -1.2540   -1.2400 hc        1 N5B      0.088450
     22 H6C1       -1.0300    1.1030   -2.1680 hc        1 N5B      0.088450
     23 H6C2       -1.3580   -0.4270   -3.1210 hc        1 N5B      0.088450
     24 H8          1.2260    2.1060    1.8020 hn        1 N5B      0.359700
     25 H9          2.5700   -0.1060    3.3970 hn        1 N5B      0.469300
     26 H13         5.6880    2.2680    0.7120 ha        1 N5B      0.149500
     27 H14         5.2930   -1.3650    3.0870 ha        1 N5B      0.149500
     28 H15         7.9960    1.5690    0.0670 ha        1 N5B      0.170500
     29 H16         7.5740   -2.0380    2.4270 ha        1 N5B      0.170500
     30 H17         8.9370   -0.5880    0.9190 ha        1 N5B      0.171000
     31 H92         3.3290   -1.0580    2.2430 hn        1 N5B      0.469300
@<TRIPOS>BOND
     1    1    2 1   
     2    1    3 1   
     3    1    4 2   
     4    2    5 1   
     5    2    6 1   
     6    2   18 1   
     7    3    7 2   
     8    3   19 1   
     9    4    8 1   
    10    5    6 1   
    11    5   20 1   
    12    5   21 1   
    13    6   22 1   
    14    6   23 1   
    15    7    8 1   
    16    7    9 1   
    17    8   24 1   
    18    9   10 1   
    19    9   25 1   
    20    9   31 1   
    21   10   11 1   
    22   10   12 2   
    23   11   13 ar  
    24   11   14 ar  
    25   13   15 ar  
    26   13   26 1   
    27   14   16 ar  
    28   14   27 1   
    29   15   17 ar  
    30   15   28 1   
    31   16   17 ar  
    32   16   29 1   
    33   17   30 1   
@<TRIPOS>SUBSTRUCTURE
     1 N5B         1 TEMP              0 ****  ****    0 ROOT
