@<TRIPOS>MOLECULE
N5B
   30    32     1     0     0
SMALL
bcc


@<TRIPOS>ATOM
      1 C1         -0.0690   -0.0640    3.1140 cc        1 N5B      0.360600
      2 C2         -0.8500    0.1280    4.3330 cx        1 N5B     -0.161000
      3 C3         -0.6290    0.0050    1.7770 cc        1 N5B     -0.286300
      4 N4          1.2660   -0.3280    3.0530 nd        1 N5B     -0.525800
      5 C5         -0.5120   -0.6310    5.5940 cx        1 N5B     -0.118900
      6 C6         -0.2550    0.8420    5.5240 cx        1 N5B     -0.118900
      7 C7          0.4630   -0.2300    0.9180 cd        1 N5B      0.016300
      8 N8          1.6110   -0.3550    1.7610 na        1 N5B     -0.040600
      9 N9          0.5230   -0.2710   -0.4730 n         1 N5B     -0.458100
     10 C10        -0.5150    0.1590   -1.3010 c         1 N5B      0.684700
     11 C11        -0.2340    0.1120   -2.7650 ca        1 N5B     -0.147600
     12 O12        -1.6150    0.5190   -0.8510 o         1 N5B     -0.563100
     13 C13        -1.2340   -0.3800   -3.6130 ca        1 N5B     -0.091000
     14 C14         0.9720    0.5770   -3.2980 ca        1 N5B     -0.091000
     15 C15        -1.0150   -0.4230   -4.9890 ca        1 N5B     -0.135500
     16 C16         1.1810    0.5360   -4.6760 ca        1 N5B     -0.135500
     17 C17         0.1910    0.0330   -5.5210 ca        1 N5B     -0.105000
     18 H2         -1.9220    0.3040    4.1050 hc        1 N5B      0.089700
     19 H3         -1.6580    0.2080    1.4960 ha        1 N5B      0.192000
     20 H5C1       -1.3440   -1.0050    6.2170 hc        1 N5B      0.074950
     21 H5C2        0.3460   -1.3260    5.5880 hc        1 N5B      0.074950
     22 H6C1        0.7870    1.2020    5.4650 hc        1 N5B      0.074950
     23 H6C2       -0.9010    1.5320    6.0950 hc        1 N5B      0.074950
     24 H8          2.4520   -0.8200    1.5070 hn        1 N5B      0.303700
     25 H9          1.3770   -0.5530   -0.8970 hn        1 N5B      0.321500
     26 H13        -2.1900   -0.7200   -3.1840 ha        1 N5B      0.146000
     27 H14         1.7520    0.9950   -2.6430 ha        1 N5B      0.146000
     28 H15        -1.8000   -0.8120   -5.6550 ha        1 N5B      0.140000
     29 H16         2.1280    0.9070   -5.0970 ha        1 N5B      0.140000
     30 H17         0.3610    0.0010   -6.6080 ha        1 N5B      0.138000
@<TRIPOS>BOND
     1    1    2 1   
     2    1    3 1   
     3    1    4 2   
     4    2    5 1   
     5    2    6 1   
     6    2   18 1   
     7    3    7 2   
     8    3   19 1   
     9    4    8 1   
    10    5    6 1   
    11    5   20 1   
    12    5   21 1   
    13    6   22 1   
    14    6   23 1   
    15    7    8 1   
    16    7    9 1   
    17    8   24 1   
    18    9   10 1   
    19    9   25 1   
    20   10   11 1   
    21   10   12 2   
    22   11   13 ar  
    23   11   14 ar  
    24   13   15 ar  
    25   13   26 1   
    26   14   16 ar  
    27   14   27 1   
    28   15   17 ar  
    29   15   28 1   
    30   16   17 ar  
    31   16   29 1   
    32   17   30 1   
@<TRIPOS>SUBSTRUCTURE
     1 N5B         1 TEMP              0 ****  ****    0 ROOT
