@<TRIPOS>MOLECULE
N5F
   44    44     1     0     0
SMALL
bcc


@<TRIPOS>ATOM
      1 OAM         4.0550    0.0170    1.8910 o         1 N5F     -0.913500
      2 PAT         4.4460    0.5820    0.5600 p5        1 N5F      1.314900
      3 OAZ         5.1840    1.9010    0.5690 o         1 N5F     -0.913500
      4 OAU         4.8960   -0.3910   -0.4950 o         1 N5F     -0.913500
      5 OAS         2.9280    1.1370   -0.1070 os        1 N5F     -0.553200
      6 CAR         2.8250    1.1150   -1.4680 c3        1 N5F      0.240700
      7 CAQ         2.8930    2.4930   -2.0860 ca        1 N5F     -0.126600
      8 CAY         3.6860    3.4780   -1.4050 ca        1 N5F      0.392200
      9 NAX         3.8380    4.7300   -1.8210 nb        1 N5F     -0.675000
     10 CAW         3.2280    5.1060   -2.9870 ca        1 N5F      0.340600
     11 CAV         3.3700    6.5160   -3.4590 c3        1 N5F     -0.121400
     12 CAO         2.4630    4.1990   -3.7400 ca        1 N5F     -0.042200
     13 OAN         1.8360    4.6590   -4.8850 oh        1 N5F     -0.559100
     14 CAP         2.2840    2.8650   -3.2820 ca        1 N5F     -0.204300
     15 CAK         1.5420    1.8950   -4.1410 c3        1 N5F      0.171100
     16 N           0.1540    2.3560   -4.4680 n4        1 N5F     -0.744000
     17 CA         -0.4430    1.6260   -5.6330 c3        1 N5F     -0.028500
     18 C           0.4170    1.8190   -6.9440 c         1 N5F      0.925600
     19 OXT         0.2510    0.9560   -7.8360 o         1 N5F     -0.810800
     20 O           1.1870    2.8170   -7.0040 o         1 N5F     -0.810800
     21 CB         -1.8530    2.1160   -5.9520 c3        1 N5F     -0.098400
     22 CAG        -2.9120    1.7750   -4.9250 c3        1 N5F     -0.076400
     23 CAH        -4.2470    2.3540   -5.3400 c3        1 N5F     -0.188400
     24 CAI        -5.4390    1.7630   -4.5720 c         1 N5F      0.907600
     25 OAB        -6.4170    2.5340   -4.3330 o         1 N5F     -0.858300
     26 OAJ        -5.4230    0.5410   -4.2460 o         1 N5F     -0.858300
     27 HAR         3.6570    0.4910   -1.9250 h1        1 N5F      0.022700
     28 HARA        1.8260    0.6600   -1.7520 h1        1 N5F      0.022700
     29 HAY         4.2420    3.1150   -0.4640 h4        1 N5F      0.171100
     30 HAV         4.3920    6.9140   -3.2490 hc        1 N5F      0.029700
     31 HAVA        3.1760    6.5690   -4.5580 hc        1 N5F      0.029700
     32 HAVB        2.6240    7.1650   -2.9360 hc        1 N5F      0.029700
     33 HOAN        2.1160    4.0870   -5.6250 ho        1 N5F      0.452000
     34 HAK         1.4640    0.8840   -3.6500 hx        1 N5F      0.109700
     35 HAKA        2.0920    1.7820   -5.1240 hx        1 N5F      0.109700
     36 HN          0.1990    3.3540   -4.7280 hn        1 N5F      0.443300
     37 HA         -0.4590    0.5320   -5.3730 hx        1 N5F      0.089700
     38 HB         -2.1250    1.6340   -6.9310 hc        1 N5F      0.061700
     39 HBA        -1.8350    3.2250   -6.1260 hc        1 N5F      0.061700
     40 HAG        -2.6320    2.1780   -3.9170 hc        1 N5F      0.042700
     41 HAGA       -3.0160    0.6620   -4.8210 hc        1 N5F      0.042700
     42 HAH        -4.4260    2.1440   -6.4270 hc        1 N5F      0.020700
     43 HAHA       -4.2410    3.4650   -5.2060 hc        1 N5F      0.020700
     44 H2         -0.4460    2.2550   -3.6490 hn        1 N5F      0.443300
@<TRIPOS>BOND
     1    1    2 1   
     2    2    3 1   
     3    2    4 1   
     4    2    5 1   
     5    5    6 1   
     6    6    7 1   
     7    6   27 1   
     8    6   28 1   
     9    7    8 ar  
    10    7   14 ar  
    11    8    9 ar  
    12    8   29 1   
    13    9   10 ar  
    14   10   11 1   
    15   10   12 ar  
    16   11   30 1   
    17   11   31 1   
    18   11   32 1   
    19   12   13 1   
    20   12   14 ar  
    21   13   33 1   
    22   14   15 1   
    23   15   16 1   
    24   15   34 1   
    25   15   35 1   
    26   16   17 1   
    27   16   36 1   
    28   16   44 1   
    29   17   18 1   
    30   17   21 1   
    31   17   37 1   
    32   18   19 1   
    33   18   20 1   
    34   21   22 1   
    35   21   38 1   
    36   21   39 1   
    37   22   23 1   
    38   22   40 1   
    39   22   41 1   
    40   23   24 1   
    41   23   42 1   
    42   23   43 1   
    43   24   25 1   
    44   24   26 1   
@<TRIPOS>SUBSTRUCTURE
     1 N5F         1 TEMP              0 ****  ****    0 ROOT
