@<TRIPOS>MOLECULE
N5F
   44    44     1     0     0
SMALL
bcc


@<TRIPOS>ATOM
      1 OAM         3.2110    0.0840    0.9010 o         1 N5F     -0.912833
      2 PAT         4.5540    0.6340    0.5130 p5        1 N5F      1.315900
      3 OAZ         4.7710    2.0880    0.8670 o         1 N5F     -0.912833
      4 OAU         5.7390   -0.2730    0.6410 o         1 N5F     -0.912833
      5 OAS         4.3640    0.7950   -1.2160 os        1 N5F     -0.553200
      6 CAR         3.1040    1.0960   -1.6520 c3        1 N5F      0.243700
      7 CAQ         3.0140    2.5040   -2.2020 ca        1 N5F     -0.129600
      8 CAY         3.7310    3.5130   -1.4740 ca        1 N5F      0.386200
      9 NAX         3.7810    4.7930   -1.8230 nb        1 N5F     -0.676000
     10 CAW         3.1210    5.1810   -2.9570 ca        1 N5F      0.342600
     11 CAV         3.1670    6.6160   -3.3690 c3        1 N5F     -0.121400
     12 CAO         2.3860    4.2650   -3.7280 ca        1 N5F     -0.046200
     13 OAN         1.6910    4.7420   -4.8260 oh        1 N5F     -0.559100
     14 CAP         2.3110    2.8990   -3.3370 ca        1 N5F     -0.197300
     15 CAK         1.5750    1.9340   -4.2090 c3        1 N5F      0.171100
     16 N           0.1600    2.3470   -4.4770 n4        1 N5F     -0.745000
     17 CA         -0.4360    1.6450   -5.6590 c3        1 N5F     -0.028500
     18 C           0.3820    1.9330   -6.9800 c         1 N5F      0.925600
     19 OXT         0.2440    1.0960   -7.9010 o         1 N5F     -0.810800
     20 O           1.0930    2.9760   -7.0180 o         1 N5F     -0.810800
     21 CB         -1.8730    2.0870   -5.9230 c3        1 N5F     -0.098400
     22 CAG        -2.8920    1.6470   -4.8940 c3        1 N5F     -0.076400
     23 CAH        -4.2580    2.1950   -5.2440 c3        1 N5F     -0.188400
     24 CAI        -5.4090    1.5020   -4.5000 c         1 N5F      0.907600
     25 OAB        -6.4150    2.2100   -4.1960 o         1 N5F     -0.858300
     26 OAJ        -5.3340    0.2630   -4.2580 o         1 N5F     -0.858300
     27 HAR         2.8200    0.3720   -2.4750 h1        1 N5F      0.020700
     28 HARA        2.3520    1.0010   -0.8070 h1        1 N5F      0.020700
     29 HAY         4.2880    3.1540   -0.5270 h4        1 N5F      0.174100
     30 HAV         4.1690    7.0660   -3.1670 hc        1 N5F      0.030033
     31 HAVA        2.3990    7.1960   -2.8000 hc        1 N5F      0.030033
     32 HAVB        2.9410    6.7050   -4.4600 hc        1 N5F      0.030033
     33 HOAN        1.9860    4.2330   -5.6050 ho        1 N5F      0.453000
     34 HAK         1.5420    0.9050   -3.7530 hx        1 N5F      0.109700
     35 HAKA        2.0980    1.8780   -5.2110 hx        1 N5F      0.109700
     36 HN          0.1490    3.3570   -4.6910 hn        1 N5F      0.443300
     37 HA         -0.3990    0.5400   -5.4490 hx        1 N5F      0.089700
     38 HB         -1.9080    3.2030   -6.0400 hc        1 N5F      0.061700
     39 HBA        -2.1470    1.6430   -6.9200 hc        1 N5F      0.061700
     40 HAG        -2.9510    0.5270   -4.8510 hc        1 N5F      0.042200
     41 HAGA       -2.6020    2.0030   -3.8710 hc        1 N5F      0.042200
     42 HAH        -4.2960    3.2930   -5.0320 hc        1 N5F      0.020700
     43 HAHA       -4.4490    2.0540   -6.3400 hc        1 N5F      0.020700
     44 H2         -0.4140    2.1810   -3.6480 hn        1 N5F      0.443300
@<TRIPOS>BOND
     1    1    2 1   
     2    2    3 1   
     3    2    4 1   
     4    2    5 1   
     5    5    6 1   
     6    6    7 1   
     7    6   27 1   
     8    6   28 1   
     9    7    8 ar  
    10    7   14 ar  
    11    8    9 ar  
    12    8   29 1   
    13    9   10 ar  
    14   10   11 1   
    15   10   12 ar  
    16   11   30 1   
    17   11   31 1   
    18   11   32 1   
    19   12   13 1   
    20   12   14 ar  
    21   13   33 1   
    22   14   15 1   
    23   15   16 1   
    24   15   34 1   
    25   15   35 1   
    26   16   17 1   
    27   16   36 1   
    28   16   44 1   
    29   17   18 1   
    30   17   21 1   
    31   17   37 1   
    32   18   19 1   
    33   18   20 1   
    34   21   22 1   
    35   21   38 1   
    36   21   39 1   
    37   22   23 1   
    38   22   40 1   
    39   22   41 1   
    40   23   24 1   
    41   23   42 1   
    42   23   43 1   
    43   24   25 1   
    44   24   26 1   
@<TRIPOS>SUBSTRUCTURE
     1 N5F         1 TEMP              0 ****  ****    0 ROOT
