@<TRIPOS>MOLECULE
N5F
   44    44     1     0     0
SMALL
bcc


@<TRIPOS>ATOM
      1 OAM         4.9520   -0.4140   -0.5890 o         1 N5F     -0.913500
      2 PAT         4.5520    0.5810    0.4650 p5        1 N5F      1.314900
      3 OAZ         4.1960    0.0420    1.8160 o         1 N5F     -0.913500
      4 OAU         5.3110    1.8880    0.4310 o         1 N5F     -0.913500
      5 OAS         3.0220    1.1520   -0.1600 os        1 N5F     -0.553200
      6 CAR         2.8740    1.1130   -1.5170 c3        1 N5F      0.240700
      7 CAQ         2.9440    2.4810   -2.1570 ca        1 N5F     -0.126600
      8 CAY         3.7760    3.4610   -1.5170 ca        1 N5F      0.392200
      9 NAX         3.9340    4.7050   -1.9560 nb        1 N5F     -0.675000
     10 CAW         3.2920    5.0740   -3.1070 ca        1 N5F      0.340600
     11 CAV         3.4420    6.4740   -3.6040 c3        1 N5F     -0.121400
     12 CAO         2.4890    4.1700   -3.8210 ca        1 N5F     -0.042200
     13 OAN         1.8320    4.6240   -4.9520 oh        1 N5F     -0.559100
     14 CAP         2.3030    2.8450   -3.3380 ca        1 N5F     -0.204300
     15 CAK         1.5180    1.8760   -4.1580 c3        1 N5F      0.171100
     16 N           0.1280    2.3550   -4.4470 ny        1 N5F     -0.744000
     17 CA         -0.5190    1.6190   -5.5800 c3        1 N5F     -0.028500
     18 C           0.3010    1.7780   -6.9210 c         1 N5F      0.925600
     19 OXT         0.0910    0.9060   -7.7950 o         1 N5F     -0.810800
     20 O           1.0850    2.7630   -7.0210 o         1 N5F     -0.810800
     21 CB         -1.9300    2.1280   -5.8600 c3        1 N5F     -0.098400
     22 CAG        -2.9610    1.8190   -4.7950 c3        1 N5F     -0.076400
     23 CAH        -4.2990    2.4140   -5.1750 c3        1 N5F     -0.188400
     24 CAI        -5.4750    1.8550   -4.3600 c         1 N5F      0.907600
     25 OAB        -6.4310    2.6450   -4.1010 o         1 N5F     -0.858300
     26 OAJ        -5.4690    0.6370   -4.0180 o         1 N5F     -0.858300
     27 HAR         3.6810    0.4680   -1.9910 h1        1 N5F      0.022700
     28 HARA        1.8590    0.6710   -1.7610 h1        1 N5F      0.022700
     29 HAY         4.3560    3.1030   -0.5890 h4        1 N5F      0.171100
     30 HAV         2.7250    7.1430   -3.0670 hc        1 N5F      0.029700
     31 HAVA        4.4770    6.8580   -3.4340 hc        1 N5F      0.029700
     32 HAVB        3.2130    6.5150   -4.6970 hc        1 N5F      0.029700
     33 HOAN        2.0780    4.0360   -5.6920 ho        1 N5F      0.452000
     34 HAK         2.0340    1.7390   -5.1570 hx        1 N5F      0.109700
     35 HAKA        1.4390    0.8740   -3.6500 hx        1 N5F      0.109700
     36 HN          0.1800    3.3480   -4.7230 hn        1 N5F      0.443300
     37 HA         -0.5440    0.5290   -5.3030 hx        1 N5F      0.089700
     38 HB         -1.9010    3.2340   -6.0510 hc        1 N5F      0.061700
     39 HBA        -2.2420    1.6360   -6.8240 hc        1 N5F      0.061700
     40 HAG        -2.6420    2.2320   -3.8030 hc        1 N5F      0.042700
     41 HAGA       -3.0790    0.7100   -4.6710 hc        1 N5F      0.042700
     42 HAH        -4.2710    3.5270   -5.0580 hc        1 N5F      0.020700
     43 HAHA       -4.5160    2.1920   -6.2520 hc        1 N5F      0.020700
     44 H2         -0.4470    2.2760   -3.6070 hn        1 N5F      0.443300
@<TRIPOS>BOND
     1    1    2 1   
     2    2    3 1   
     3    2    4 1   
     4    2    5 1   
     5    5    6 1   
     6    6    7 1   
     7    6   27 1   
     8    6   28 1   
     9    7    8 ar  
    10    7   14 ar  
    11    8    9 ar  
    12    8   29 1   
    13    9   10 ar  
    14   10   11 1   
    15   10   12 ar  
    16   11   30 1   
    17   11   31 1   
    18   11   32 1   
    19   12   13 1   
    20   12   14 ar  
    21   13   33 1   
    22   14   15 1   
    23   15   16 1   
    24   15   34 1   
    25   15   35 1   
    26   16   17 1   
    27   16   36 1   
    28   16   44 1   
    29   17   18 1   
    30   17   21 1   
    31   17   37 1   
    32   18   19 1   
    33   18   20 1   
    34   21   22 1   
    35   21   38 1   
    36   21   39 1   
    37   22   23 1   
    38   22   40 1   
    39   22   41 1   
    40   23   24 1   
    41   23   42 1   
    42   23   43 1   
    43   24   25 1   
    44   24   26 1   
@<TRIPOS>SUBSTRUCTURE
     1 N5F         1 TEMP              0 ****  ****    0 ROOT
