@<TRIPOS>MOLECULE
N5F
   43    41     1     0     0
SMALL
bcc


@<TRIPOS>ATOM
      1 OAM         5.4160   -1.3270   -1.3340 o         1 N5F     -0.931500
      2 PAT         5.1990    0.1060   -0.9120 p5        1 N5F      1.552500
      3 OAZ         6.5270    0.8320   -0.8910 o         1 N5F     -0.931500
      4 OAU         4.2790    0.7760   -1.8820 o         1 N5F     -0.931500
      5 OAS         4.5440    0.1400    0.5550 os        1 N5F     -0.733000
      6 CAR         3.2730   -0.5190    0.7530 c3        1 N5F      0.089000
      7 CAQ         2.4720    0.2220    1.7910 c2        1 N5F     -0.082000
      8 CAY         3.1140    0.9580    2.7640 c1        1 N5F     -0.111000
      9 NAX         2.3840    1.6390    3.7020 n1        1 N5F     -0.164000
     10 CAW         1.0000    1.5890    3.6740 c1        1 N5F     -0.140000
     11 CAV         0.1860    2.3580    4.7180 c2        1 N5F     -0.124000
     12 CAO         0.3500    0.8450    2.6920 c2        1 N5F      0.046000
     13 OAN        -1.0230    0.6330    2.7800 oh        1 N5F     -0.316000
     14 CAP         1.0800    0.1680    1.7600 c2        1 N5F     -0.136000
     15 CAK         0.3770   -0.7480    0.7500 c3        1 N5F     -0.027000
     16 N          -0.7150   -0.0150    0.0930 n3        1 N5F     -0.343000
     17 CA         -1.2630   -0.8160   -0.9510 c3        1 N5F     -0.086000
     18 C          -0.4050   -0.6710   -2.2090 c2        1 N5F      0.320000
     19 OXT         0.1930   -1.6700   -2.6790 o         1 N5F     -0.594500
     20 O          -0.2550    0.4840   -2.7560 o         1 N5F     -0.594500
     21 CB         -2.6630   -0.3600   -1.2440 c3        1 N5F     -0.138000
     22 CAG        -3.2740   -1.2320   -2.4100 c3        1 N5F     -0.148000
     23 CAH        -4.2380   -0.3610   -3.2470 c3        1 N5F     -0.199000
     24 CAI        -4.5300   -1.0570   -4.5880 c2        1 N5F      0.324000
     25 OAB        -3.8120   -0.7950   -5.6120 o         1 N5F     -0.620000
     26 OAJ        -5.5460   -1.7940   -4.7040 o         1 N5F     -0.620000
     27 HAR         3.4260   -1.4420    1.0540 h1        1 N5F      0.059500
     28 HARA        2.7750   -0.5290   -0.0960 h1        1 N5F      0.059500
     29 HAY         4.1080    0.9940    2.7840 ha        1 N5F      0.274000
     30 HAV        -0.4530    2.9940    4.2490 ha        1 N5F      0.053667
     31 HAVA       -0.3260    1.7230    5.2690 ha        1 N5F      0.053667
     32 HAVB        0.7820    2.8620    5.2810 ha        1 N5F      0.053667
     33 HOAN       -1.2940    0.7450    3.6500 ho        1 N5F      0.265000
     34 HAK         1.0370   -1.0490    0.0600 h1        1 N5F      0.080000
     35 HAKA        0.0070   -1.5420    1.2250 h1        1 N5F      0.080000
     36 HN         -0.3840    0.7730   -0.2670 hn        1 N5F      0.179000
     37 HA         -1.2750   -1.7100   -0.6840 h1        1 N5F      0.081000
     38 HB         -3.2150   -0.4580   -0.4360 hc        1 N5F      0.058000
     39 HBA        -2.6480    0.5760   -1.5140 hc        1 N5F      0.058000
     40 HAG        -2.5410   -1.5690   -2.9890 hc        1 N5F      0.090500
     41 HAGA       -3.7720   -2.0000   -2.0250 hc        1 N5F      0.090500
     42 HAH        -5.0560   -0.2390   -2.7680 hc        1 N5F      0.051500
     43 HAHA       -3.8380    0.4860   -3.4090 hc        1 N5F      0.051500
@<TRIPOS>BOND
     1    1    2 1   
     2    2    3 1   
     3    2    4 1   
     4    2    5 1   
     5    5    6 1   
     6    6    7 1   
     7    6   27 1   
     8    6   28 1   
     9    7    8 1   
    10    7   14 1   
    11    8   29 1   
    12    9   10 1   
    13   10   12 1   
    14   11   30 1   
    15   11   31 1   
    16   11   32 1   
    17   12   13 1   
    18   12   14 1   
    19   13   33 1   
    20   14   15 1   
    21   15   16 1   
    22   15   34 1   
    23   15   35 1   
    24   16   17 1   
    25   16   36 1   
    26   17   18 1   
    27   17   21 1   
    28   17   37 1   
    29   18   19 1   
    30   18   20 1   
    31   21   22 1   
    32   21   38 1   
    33   21   39 1   
    34   22   23 1   
    35   22   40 1   
    36   22   41 1   
    37   23   24 1   
    38   23   42 1   
    39   23   43 1   
    40   24   25 1   
    41   24   26 1   
@<TRIPOS>SUBSTRUCTURE
     1 N5F         1 TEMP              0 ****  ****    0 ROOT
