@<TRIPOS>MOLECULE
N5F
   43    43     1     0     0
SMALL
bcc


@<TRIPOS>ATOM
      1 OAM         3.0250   -4.4910    0.9780 o         1 N5F     -0.933500
      2 PAT         1.7770   -5.2870    1.2550 p5        1 N5F      1.318900
      3 OAZ         1.0960   -5.8570    0.0330 o         1 N5F     -0.933500
      4 OAU         1.8370   -6.2040    2.4480 o         1 N5F     -0.933500
      5 OAS         0.6460   -4.0780    1.7540 os        1 N5F     -0.572200
      6 CAR         0.7320   -2.8460    1.1490 c3        1 N5F      0.250700
      7 CAQ        -0.4810   -2.5420    0.2920 ca        1 N5F     -0.151600
      8 CAY        -0.9560   -3.6380   -0.4910 ca        1 N5F      0.346200
      9 NAX        -2.0180   -3.5880   -1.2940 nb        1 N5F     -0.690000
     10 CAW        -2.7120   -2.4180   -1.3510 ca        1 N5F      0.269600
     11 CAV        -3.9240   -2.3130   -2.2150 c3        1 N5F     -0.097400
     12 CAO        -2.3220   -1.2760   -0.6080 ca        1 N5F      0.046800
     13 OAN        -3.1520   -0.1930   -0.7390 oh        1 N5F     -0.550100
     14 CAP        -1.1580   -1.3220    0.2050 ca        1 N5F     -0.141300
     15 CAK        -0.7620   -0.0900    0.9790 c3        1 N5F      0.207100
     16 N          -0.6380    1.1010    0.1530 n3        1 N5F     -0.831200
     17 CA         -0.7850    2.3670    0.8630 c3        1 N5F      0.068500
     18 C          -2.0970    2.4750    1.7080 c         1 N5F      0.912600
     19 OXT        -2.0190    3.1020    2.8060 o         1 N5F     -0.861800
     20 O          -3.1850    1.9840    1.2840 o         1 N5F     -0.861800
     21 CB         -0.7920    3.5730   -0.0960 c3        1 N5F     -0.067400
     22 CAG         0.5790    4.0860   -0.4960 c3        1 N5F     -0.068400
     23 CAH         0.4510    5.2630   -1.4410 c3        1 N5F     -0.173400
     24 CAI         1.7240    6.0830   -1.6610 c         1 N5F      0.902600
     25 OAB         2.5010    6.3440   -0.6950 o         1 N5F     -0.881800
     26 OAJ         1.9360    6.5450   -2.8290 o         1 N5F     -0.881800
     27 HAR         0.8120   -2.0570    1.9550 h1        1 N5F      0.014700
     28 HARA        1.6520   -2.7890    0.4940 h1        1 N5F      0.014700
     29 HAY        -0.3770   -4.6110   -0.4100 h4        1 N5F      0.130100
     30 HAV        -4.7910   -1.9700   -1.5960 hc        1 N5F      0.012033
     31 HAVA       -3.7480   -1.5470   -3.0100 hc        1 N5F      0.012033
     32 HAVB       -4.1890   -3.2830   -2.7020 hc        1 N5F      0.012033
     33 HOAN       -2.8880    0.5130   -0.1120 ho        1 N5F      0.488000
     34 HAK        -1.5730    0.0960    1.7460 h1        1 N5F      0.046200
     35 HAKA        0.1930   -0.2940    1.5440 h1        1 N5F      0.046200
     36 HN          0.2280    1.0910   -0.3480 hn        1 N5F      0.345800
     37 HA          0.0710    2.5150    1.5910 h1        1 N5F      0.009700
     38 HB         -1.3800    3.3210   -1.0170 hc        1 N5F      0.034700
     39 HBA        -1.3380    4.4020    0.4290 hc        1 N5F      0.034700
     40 HAG         1.1540    4.4060    0.4120 hc        1 N5F      0.036200
     41 HAGA        1.1660    3.2680   -0.9880 hc        1 N5F      0.036200
     42 HAH         0.0820    4.9040   -2.4360 hc        1 N5F      0.014200
     43 HAHA       -0.3180    5.9750   -1.0370 hc        1 N5F      0.014200
@<TRIPOS>BOND
     1    1    2 1   
     2    2    3 1   
     3    2    4 1   
     4    2    5 1   
     5    5    6 1   
     6    6    7 1   
     7    6   27 1   
     8    6   28 1   
     9    7    8 ar  
    10    7   14 ar  
    11    8    9 ar  
    12    8   29 1   
    13    9   10 ar  
    14   10   11 1   
    15   10   12 ar  
    16   11   30 1   
    17   11   31 1   
    18   11   32 1   
    19   12   13 1   
    20   12   14 ar  
    21   13   33 1   
    22   14   15 1   
    23   15   16 1   
    24   15   34 1   
    25   15   35 1   
    26   16   17 1   
    27   16   36 1   
    28   17   18 1   
    29   17   21 1   
    30   17   37 1   
    31   18   19 1   
    32   18   20 1   
    33   21   22 1   
    34   21   38 1   
    35   21   39 1   
    36   22   23 1   
    37   22   40 1   
    38   22   41 1   
    39   23   24 1   
    40   23   42 1   
    41   23   43 1   
    42   24   25 1   
    43   24   26 1   
@<TRIPOS>SUBSTRUCTURE
     1 N5F         1 TEMP              0 ****  ****    0 ROOT
