@<TRIPOS>MOLECULE
N5I
   37    39     1     0     0
SMALL
bcc


@<TRIPOS>ATOM
      1 O3P         2.2330   -0.5410   -5.5580 oh        1 N5I     -0.781400
      2 OR2         3.8560    6.7790    2.9920 o         1 N5I     -0.280000
      3 NRO         2.6960    6.6340    2.6750 no        1 N5I      0.319200
      4 OR1         1.9290    7.5640    2.7860 o         1 N5I     -0.280000
      5 CZ3         2.2250    5.3400    2.1690 ca        1 N5I     -0.224200
      6 CE3         0.8660    5.1890    1.8250 ca        1 N5I     -0.095000
      7 CD2         0.4240    3.9590    1.3670 ca        1 N5I     -0.056800
      8 CH2         3.1480    4.2770    2.0400 ca        1 N5I     -0.131000
      9 CZ2         2.7290    3.0380    1.5800 ca        1 N5I     -0.149000
     10 CE2         1.3840    2.8520    1.2520 ca        1 N5I     -0.056200
     11 NE1         0.6670    1.7460    0.7920 nh        1 N5I     -0.101500
     12 CD1        -0.6890    2.0680    0.6080 c1        1 N5I     -0.112900
     13 CG         -0.8420    3.4340    0.9550 ce        1 N5I     -0.460300
     14 C1'         1.2060    0.4150    0.7180 c3        1 N5I      0.265800
     15 O4'         2.4170    0.3580   -0.0800 os        1 N5I     -0.450600
     16 C4'         2.3560   -0.7210   -1.0260 c3        1 N5I      0.086100
     17 C3'         1.1270   -1.5820   -0.6700 c3        1 N5I      0.098100
     18 O3'         1.4980   -2.7280    0.0810 oh        1 N5I     -0.605800
     19 C2'         0.2390   -0.6500    0.1580 c3        1 N5I     -0.130400
     20 C5'         2.3090   -0.1610   -2.4560 c3        1 N5I      0.183400
     21 O5'         3.1470   -0.9060   -3.2860 os        1 N5I     -0.583200
     22 P           2.4350   -1.7710   -4.4980 p5        1 N5I      1.426800
     23 O2P         1.1210   -2.2300   -4.0070 o         1 N5I     -0.841000
     24 O1P         3.4880   -2.5900   -5.1360 o         1 N5I     -0.841000
     25 HZ2         3.4460    2.2130    1.4530 ha        1 N5I      0.136000
     26 HD1         2.9890   -0.4400   -6.1230 ho        1 N5I      0.419000
     27 HG         -1.7670    3.9940    0.9130 ha        1 N5I      0.115000
     28 H1'         1.5530    0.1220    1.7600 h2        1 N5I      0.018700
     29 H4'         3.3100   -1.2990   -0.8830 h1        1 N5I      0.068700
     30 H3'         0.6190   -1.9950   -1.5870 h1        1 N5I      0.147700
     31 H3T         2.0160   -2.4140    0.8310 ho        1 N5I      0.379000
     32 H2'1       -0.5490   -0.1770   -0.4820 hc        1 N5I      0.081700
     33 H2'2       -0.2610   -1.1940    0.9930 hc        1 N5I      0.081700
     34 H5'1        2.6930    0.8980   -2.4290 h1        1 N5I      0.044700
     35 H5'2        1.2560   -0.1710   -2.8510 h1        1 N5I      0.044700
     36 HE3         0.1680    6.0340    1.9210 ha        1 N5I      0.134000
     37 HH2         4.2040    4.4370    2.3030 ha        1 N5I      0.129000
@<TRIPOS>BOND
     1    1   22 1   
     2    1   26 1   
     3    2    3 1   
     4    3    4 1   
     5    3    5 1   
     6    5    6 ar  
     7    5    8 ar  
     8    6    7 ar  
     9    6   36 1   
    10    7   10 ar  
    11    7   13 1   
    12    8    9 ar  
    13    8   37 1   
    14    9   10 ar  
    15    9   25 1   
    16   10   11 1   
    17   11   12 2   
    18   11   14 1   
    19   12   13 2   
    20   13   27 1   
    21   14   15 1   
    22   14   19 1   
    23   14   28 1   
    24   15   16 1   
    25   16   17 1   
    26   16   20 1   
    27   16   29 1   
    28   17   18 1   
    29   17   19 1   
    30   17   30 1   
    31   18   31 1   
    32   19   32 1   
    33   19   33 1   
    34   20   21 1   
    35   20   34 1   
    36   20   35 1   
    37   21   22 1   
    38   22   23 1   
    39   22   24 1   
@<TRIPOS>SUBSTRUCTURE
     1 N5I         1 TEMP              0 ****  ****    0 ROOT
