@<TRIPOS>MOLECULE
N5M
   35    36     1     0     0
SMALL
bcc


@<TRIPOS>ATOM
      1 O4          2.1020   -2.6300    1.3170 o         1 N5M     -0.241500
      2 N5          2.7640   -2.4470    0.3300 no        1 N5M      0.338100
      3 O3          3.3670   -3.3650   -0.1820 o         1 N5M     -0.241500
      4 C5          2.8570   -1.1010   -0.2210 cc        1 N5M     -0.512700
      5 C4          3.9490   -0.6520   -1.0850 cc        1 N5M      0.795500
      6 N4          4.9510   -1.5150   -1.4830 nh        1 N5M     -0.916800
      7 N3          4.0430    0.6370   -1.4610 nd        1 N5M     -0.767100
      8 C2          3.1010    1.5680   -1.0190 c         1 N5M      0.833900
      9 O2          3.2350    2.7870   -1.2350 o         1 N5M     -0.608500
     10 C6          1.8480   -0.1680    0.1060 cd        1 N5M      0.178600
     11 N1          1.9290    1.1160   -0.2810 n         1 N5M     -0.340000
     12 C1'         0.8700    2.1030    0.0460 c3        1 N5M      0.252500
     13 O4'         0.2630    1.7510    1.2740 os        1 N5M     -0.443600
     14 C2'        -0.2390    2.2280   -1.0540 c3        1 N5M      0.117100
     15 O2'        -0.2330    3.5510   -1.5390 oh        1 N5M     -0.609800
     16 C3'        -1.5360    1.7870   -0.3530 c3        1 N5M      0.092100
     17 O3'        -2.4760    2.8360   -0.3930 oh        1 N5M     -0.681800
     18 C4'        -1.1490    1.4590    1.1010 c3        1 N5M      0.051100
     19 C5'        -1.4370   -0.0240    1.4490 c3        1 N5M      0.211400
     20 O5'        -2.7680   -0.2340    1.6580 os        1 N5M     -0.555200
     21 P          -3.7070   -0.7640    0.2800 p5        1 N5M      1.329900
     22 OP2        -2.6380   -1.3920   -0.5730 o         1 N5M     -0.923500
     23 OP1        -4.7660   -1.6320    0.8770 o         1 N5M     -0.923500
     24 OP3        -4.1010    0.6020   -0.2450 o         1 N5M     -0.923500
     25 HN4         4.7730   -2.4920   -1.4400 hn        1 N5M      0.437300
     26 HN4A        5.5880   -1.2010   -2.1760 hn        1 N5M      0.437300
     27 H6          0.9470   -0.4750    0.7040 h4        1 N5M      0.248000
     28 H1'         1.4030    3.0890    0.1980 h2        1 N5M      0.101700
     29 H2'        -0.0230    1.5790   -1.9430 h1        1 N5M      0.076700
     30 HO2'       -0.9520    4.0330   -1.1070 ho        1 N5M      0.428000
     31 H3'        -1.9900    0.8520   -0.8290 h1        1 N5M      0.169700
     32 HO3'       -3.3580    2.3900   -0.3760 ho        1 N5M      0.508000
     33 H4'        -1.6770    2.1360    1.8210 h1        1 N5M      0.074700
     34 H5'        -1.0520   -0.6820    0.6160 h1        1 N5M      0.003200
     35 H5'A       -0.8660   -0.2510    2.3980 h1        1 N5M      0.003200
@<TRIPOS>BOND
     1    1    2 1   
     2    2    3 1   
     3    2    4 1   
     4    4    5 1   
     5    4   10 2   
     6    5    6 1   
     7    5    7 2   
     8    6   25 1   
     9    6   26 1   
    10    7    8 1   
    11    8    9 2   
    12    8   11 1   
    13   10   11 1   
    14   10   27 1   
    15   11   12 1   
    16   12   13 1   
    17   12   14 1   
    18   12   28 1   
    19   13   18 1   
    20   14   15 1   
    21   14   16 1   
    22   14   29 1   
    23   15   30 1   
    24   16   17 1   
    25   16   18 1   
    26   16   31 1   
    27   17   32 1   
    28   18   19 1   
    29   18   33 1   
    30   19   20 1   
    31   19   34 1   
    32   19   35 1   
    33   20   21 1   
    34   21   22 1   
    35   21   23 1   
    36   21   24 1   
@<TRIPOS>SUBSTRUCTURE
     1 N5M         1 TEMP              0 ****  ****    0 ROOT
