@<TRIPOS>MOLECULE
N5M
   35    33     1     0     0
SMALL
bcc


@<TRIPOS>ATOM
      1 O4         -2.0740    1.6070    3.8160 o         1 N5M     -0.379700
      2 N5         -0.8570    1.7120    3.7350 n2        1 N5M      0.552700
      3 O3         -0.1070    1.8450    4.8680 os        1 N5M     -0.334000
      4 C5         -0.2240    1.6630    2.4670 c2        1 N5M     -0.394000
      5 C4          0.0350    2.9050    1.7260 c2        1 N5M      0.269000
      6 N4         -0.2870    4.1590    2.3080 n3        1 N5M     -0.354000
      7 N3          0.6990    2.8550    0.4730 n1        1 N5M     -0.337000
      8 C2          1.1360    1.5710   -0.0730 c1        1 N5M      0.356000
      9 O2          1.7040    1.5310   -1.1470 o         1 N5M     -0.338000
     10 C6          0.2600    0.3810    1.9360 c1        1 N5M      0.171000
     11 N1          0.9760    0.3490    0.7130 n2        1 N5M     -0.230000
     12 C1'         1.6070   -0.8750    0.2790 c3        1 N5M      0.095000
     13 O4'         1.8010   -0.8510   -1.0030 os        1 N5M     -0.285000
     14 C2'         0.6690   -2.0770    0.5220 c3        1 N5M     -0.012000
     15 O2'         1.3470   -3.0920    1.0910 oh        1 N5M     -0.339000
     16 C3'         0.1560   -2.4920   -0.8780 c3        1 N5M      0.018000
     17 O3'         0.8060   -3.7620   -1.3090 oh        1 N5M     -0.411000
     18 C4'         0.5030   -1.5230   -1.6620 c3        1 N5M     -0.064000
     19 C5'        -0.6170   -0.5060   -1.7600 c3        1 N5M      0.087000
     20 O5'        -0.4420    0.2750   -2.9190 os        1 N5M     -0.714000
     21 P          -1.6460    0.3950   -3.9360 p5        1 N5M      1.569500
     22 OP2        -1.3160    1.4280   -4.9870 o         1 N5M     -0.928167
     23 OP1        -2.8930    0.8140   -3.1930 o         1 N5M     -0.928167
     24 OP3        -1.8800   -0.9410   -4.5990 o         1 N5M     -0.928167
     25 HN4        -0.0450    4.9340    1.8870 hn        1 N5M      0.233000
     26 HN4A       -0.7190    4.1910    3.1130 hn        1 N5M      0.233000
     27 H6          0.1540   -0.4340    2.4600 ha        1 N5M      0.233000
     28 H1'         2.4540   -1.0060    0.7480 h2        1 N5M      0.155000
     29 H2'        -0.0810   -1.8100    1.0900 h1        1 N5M      0.098000
     30 HO2'        0.8460   -3.4650    1.7240 ho        1 N5M      0.235000
     31 H3'        -0.8160   -2.5910   -0.8690 h1        1 N5M      0.158000
     32 HO3'        0.2090   -4.4220   -1.2920 ho        1 N5M      0.318000
     33 H4'         0.7200   -1.8710   -2.5500 h1        1 N5M      0.123000
     34 H5'        -1.4770   -0.9720   -1.8070 h1        1 N5M      0.035500
     35 H5'A       -0.6020    0.0730   -0.9700 h1        1 N5M      0.035500
@<TRIPOS>BOND
     1    1    2 2   
     2    2    4 1   
     3    4    5 1   
     4    4   10 1   
     5    5    6 1   
     6    5    7 1   
     7    6   25 1   
     8    6   26 1   
     9    8    9 1   
    10    8   11 1   
    11   10   27 1   
    12   11   12 1   
    13   12   13 1   
    14   12   14 1   
    15   12   28 1   
    16   13   18 1   
    17   14   15 1   
    18   14   16 1   
    19   14   29 1   
    20   15   30 1   
    21   16   17 1   
    22   16   18 1   
    23   16   31 1   
    24   17   32 1   
    25   18   19 1   
    26   18   33 1   
    27   19   20 1   
    28   19   34 1   
    29   19   35 1   
    30   20   21 1   
    31   21   22 1   
    32   21   23 1   
    33   21   24 1   
@<TRIPOS>SUBSTRUCTURE
     1 N5M         1 TEMP              0 ****  ****    0 ROOT
