@<TRIPOS>MOLECULE
N5N
   72    75     1     0     0
SMALL
bcc


@<TRIPOS>ATOM
      1 N1          0.2980   -2.3220   -2.3860 n         1 N5N     -0.425800
      2 C2          1.0960   -3.5090   -2.4450 cx        1 N5N      0.046700
      3 C3          0.8590   -1.1330   -2.8170 c         1 N5N      0.648100
      4 C4         -1.0340   -2.4350   -1.8450 c3        1 N5N     -0.027000
      5 C5          2.1480   -3.8470   -1.4010 cx        1 N5N     -0.139900
      6 C6          0.8940   -4.6630   -1.4840 cx        1 N5N     -0.139900
      7 C7          0.1520    0.2110   -2.4800 c3        1 N5N      0.165500
      8 O8          1.9210   -1.1330   -3.4790 o         1 N5N     -0.635100
      9 C9         -1.2030   -2.1310   -0.3390 c         1 N5N      0.898600
     10 N10         1.1150    1.2710   -2.3520 n3        1 N5N     -0.902100
     11 C11        -0.8930    0.4730   -3.5780 c3        1 N5N     -0.162400
     12 O12        -1.3010   -3.0870    0.4720 o         1 N5N     -0.845300
     13 O13        -1.3070   -0.9120    0.0150 o         1 N5N     -0.845300
     14 S14         1.2870    2.2790   -1.1050 sy        1 N5N      1.517200
     15 C15        -2.0760    1.3140   -3.1210 c         1 N5N      0.653100
     16 C16         2.1080    1.3710    0.0620 ca        1 N5N     -0.372500
     17 O17         2.1530    3.3280   -1.5160 o         1 N5N     -0.659800
     18 O18         0.0440    2.6790   -0.5800 o         1 N5N     -0.659800
     19 N19        -2.7930    0.8890   -2.0260 n         1 N5N     -0.555900
     20 O20        -2.4340    2.3020   -3.8000 o         1 N5N     -0.639100
     21 C21         3.4670    1.5200    0.2500 ca        1 N5N      0.011000
     22 C22         1.3960    0.4630    0.8890 ca        1 N5N     -0.034000
     23 C23        -3.8520    1.7000   -1.4770 c3        1 N5N      0.102000
     24 C24         4.1600    0.7930    1.2500 ca        1 N5N     -0.077000
     25 C25         2.0400   -0.2610    1.8630 ca        1 N5N     -0.137000
     26 C26        -4.5330    1.0480   -0.2700 c3        1 N5N     -0.107700
     27 C27         3.4360   -0.1130    2.0670 ca        1 N5N      0.009000
     28 C28         5.5610    0.9460    1.4510 ca        1 N5N     -0.098000
     29 C29        -3.6200    1.1190    0.9660 c3        1 N5N      0.153800
     30 C30        -5.8480    1.7460    0.0380 c3        1 N5N     -0.070400
     31 C31         4.1340   -0.8490    3.0680 ca        1 N5N     -0.127000
     32 C32         6.2070    0.2250    2.4230 ca        1 N5N     -0.150000
     33 N33        -4.1980    0.5480    2.1750 nh        1 N5N     -0.691600
     34 C34        -6.4890    1.1400    1.2710 c3        1 N5N     -0.107400
     35 C35         5.4850   -0.6820    3.2390 ca        1 N5N     -0.120000
     36 C36        -5.5150    1.0980    2.4500 c3        1 N5N      0.192800
     37 C37        -4.0640   -0.9070    2.2490 c2        1 N5N      0.752100
     38 N38        -2.7340   -1.3790    2.4650 nh        1 N5N     -0.904800
     39 N39        -5.1330   -1.6720    2.2480 n2        1 N5N     -0.917100
     40 H2          1.3590   -3.7470   -3.5020 h1        1 N5N      0.077700
     41 H41C       -1.7180   -1.7410   -2.4090 h1        1 N5N      0.049200
     42 H42C       -1.3910   -3.4900   -2.0200 h1        1 N5N      0.049200
     43 H51C        3.1020   -4.2710   -1.7580 hc        1 N5N      0.080950
     44 H52C        2.2880   -3.1800   -0.5320 hc        1 N5N      0.080950
     45 H61C        0.1450   -4.5590   -0.6680 hc        1 N5N      0.080950
     46 H62C        0.9340   -5.6860   -1.8950 hc        1 N5N      0.080950
     47 H7         -0.3540    0.0900   -1.4660 h1        1 N5N      0.141700
     48 H10         1.7670    1.2840   -3.1060 hn        1 N5N      0.458800
     49 H111       -0.4230    1.0020   -4.4490 hc        1 N5N      0.077200
     50 H112       -1.2910   -0.5040   -3.9600 hc        1 N5N      0.077200
     51 H19        -2.3860    0.2110   -1.4090 hn        1 N5N      0.348500
     52 H21         4.0360    2.2290   -0.3800 ha        1 N5N      0.150000
     53 H22         0.3020    0.3320    0.7390 ha        1 N5N      0.199000
     54 H231       -3.4480    2.7110   -1.1770 h1        1 N5N      0.044700
     55 H232       -4.6160    1.8720   -2.2880 h1        1 N5N      0.044700
     56 H25         1.4780   -0.9700    2.4900 ha        1 N5N      0.153000
     57 H26        -4.7510   -0.0340   -0.4980 hc        1 N5N      0.069700
     58 H28         6.1100    1.6520    0.8100 ha        1 N5N      0.130000
     59 H291       -2.6340    0.6270    0.7340 h1        1 N5N      0.080700
     60 H292       -3.4120    2.2040    1.1950 h1        1 N5N      0.080700
     61 H301       -5.6600    2.8390    0.2050 hc        1 N5N      0.032700
     62 H302       -6.5430    1.6520   -0.8360 hc        1 N5N      0.032700
     63 H31         3.5640   -1.5520    3.6940 ha        1 N5N      0.137000
     64 H32         7.2880    0.3390    2.5820 ha        1 N5N      0.124000
     65 H341       -7.3830    1.7460    1.5680 hc        1 N5N      0.046700
     66 H342       -6.8420    0.1010    1.0390 hc        1 N5N      0.046700
     67 H35         6.0260   -1.2490    4.0100 ha        1 N5N      0.124000
     68 H361       -5.9890    0.5390    3.3020 h1        1 N5N      0.046700
     69 H362       -5.3290    2.1580    2.7920 h1        1 N5N      0.046700
     70 H381       -2.0160   -0.7240    2.2200 hn        1 N5N      0.413300
     71 H382       -2.5490   -2.2560    2.0060 hn        1 N5N      0.413300
     72 H39        -4.9500   -2.6440    2.3710 hn        1 N5N      0.380400
@<TRIPOS>BOND
     1    1    2 1   
     2    1    3 1   
     3    1    4 1   
     4    2    5 1   
     5    2    6 1   
     6    2   40 1   
     7    3    7 1   
     8    3    8 2   
     9    4    9 1   
    10    4   41 1   
    11    4   42 1   
    12    5    6 1   
    13    5   43 1   
    14    5   44 1   
    15    6   45 1   
    16    6   46 1   
    17    7   10 1   
    18    7   11 1   
    19    7   47 1   
    20    9   12 1   
    21    9   13 1   
    22   10   14 1   
    23   10   48 1   
    24   11   15 1   
    25   11   49 1   
    26   11   50 1   
    27   14   16 1   
    28   14   17 2   
    29   14   18 2   
    30   15   19 1   
    31   15   20 2   
    32   16   21 ar  
    33   16   22 ar  
    34   19   23 1   
    35   19   51 1   
    36   21   24 ar  
    37   21   52 1   
    38   22   25 ar  
    39   22   53 1   
    40   23   26 1   
    41   23   54 1   
    42   23   55 1   
    43   24   27 ar  
    44   24   28 ar  
    45   25   27 ar  
    46   25   56 1   
    47   26   29 1   
    48   26   30 1   
    49   26   57 1   
    50   27   31 ar  
    51   28   32 ar  
    52   28   58 1   
    53   29   33 1   
    54   29   59 1   
    55   29   60 1   
    56   30   34 1   
    57   30   61 1   
    58   30   62 1   
    59   31   35 ar  
    60   31   63 1   
    61   32   35 ar  
    62   32   64 1   
    63   33   36 1   
    64   33   37 1   
    65   34   36 1   
    66   34   65 1   
    67   34   66 1   
    68   35   67 1   
    69   36   68 1   
    70   36   69 1   
    71   37   38 1   
    72   37   39 2   
    73   38   70 1   
    74   38   71 1   
    75   39   72 1   
@<TRIPOS>SUBSTRUCTURE
     1 N5N         1 TEMP              0 ****  ****    0 ROOT
