@<TRIPOS>MOLECULE
N5N
   76    79     1     0     0
SMALL
bcc


@<TRIPOS>ATOM
      1 N1          1.0020   -0.7340   -0.5520 n         1 N5N     -0.296000
      2 C2          2.3750   -0.8180   -0.9790 cx        1 N5N     -0.085000
      3 C3          0.0060   -1.1180   -1.4450 c2        1 N5N      0.307000
      4 C4          0.7130   -0.4100    0.8110 c3        1 N5N     -0.040000
      5 C5          3.4710    0.0300   -0.3650 cx        1 N5N     -0.211500
      6 C6          3.4720   -1.4560   -0.1530 cx        1 N5N     -0.211500
      7 C7         -1.4890   -0.9670   -1.0360 c3        1 N5N     -0.022000
      8 O8          0.2720   -1.5580   -2.5760 o         1 N5N     -0.318000
      9 C9          0.3020    1.0380    1.0290 c2        1 N5N      0.452000
     10 N10        -1.7650    0.3670   -0.5900 n3        1 N5N     -0.388000
     11 C11        -2.3030   -1.4830   -2.2540 c3        1 N5N     -0.236000
     12 O12        -0.4980    1.3630    1.9600 os        1 N5N     -0.564000
     13 O13         0.7420    2.0890    0.3390 oh        1 N5N     -0.232000
     14 S14        -1.8340    2.5930    2.4320 s6        1 N5N      2.941000
     15 C15        -3.7610   -1.5780   -1.9480 c2        1 N5N      0.270000
     16 C16        -1.0810    3.7300    3.1930 ca        1 N5N     -1.036000
     17 O17        -2.1870    2.8180    1.1270 o         1 N5N     -0.881000
     18 O18        -2.5050    1.6530    3.1550 o         1 N5N     -0.881000
     19 N19        -4.5770   -2.4370   -2.9230 n4        1 N5N     -0.122000
     20 O20        -4.3960   -1.0730   -1.0390 o         1 N5N     -0.160000
     21 C21        -0.6310    4.9070    2.5800 ca        1 N5N      0.103000
     22 C22        -0.8690    3.6020    4.6100 ca        1 N5N     -0.049000
     23 C23        -5.7410   -1.6870   -3.4810 c3        1 N5N     -0.134000
     24 C24        -0.0090    5.9360    3.3030 ca        1 N5N     -0.098000
     25 C25        -0.2620    4.5860    5.3350 ca        1 N5N     -0.105000
     26 C26        -6.6360   -2.4940   -4.4310 c3        1 N5N     -0.160000
     27 C27         0.1860    5.7850    4.7090 ca        1 N5N      0.061000
     28 C28         0.4290    7.1370    2.6670 ca        1 N5N     -0.088000
     29 C29        -7.6450   -3.3490   -3.6390 c3        1 N5N     -0.064000
     30 C30        -7.3590   -1.4880   -5.3260 c3        1 N5N     -0.164000
     31 C31         0.8090    6.8250    5.4390 ca        1 N5N     -0.146000
     32 C32         1.0280    8.1290    3.4010 ca        1 N5N     -0.113000
     33 N33        -8.7780   -3.8760   -4.3790 n3        1 N5N     -0.273000
     34 C34        -8.4210   -2.1560   -6.1700 c3        1 N5N     -0.194000
     35 C35         1.2200    7.9740    4.7980 ca        1 N5N     -0.034000
     36 C36        -9.4040   -2.9210   -5.2910 c3        1 N5N     -0.074000
     37 C37        -8.6200   -5.2030   -4.9180 c2        1 N5N      0.079000
     38 N38        -9.8640   -6.0430   -4.6770 n4        1 N5N     -0.042000
     39 N39        -7.6620   -5.8190   -5.5130 n2        1 N5N     -0.180000
     40 H2          2.4190   -0.9860   -2.0850 h1        1 N5N      0.185000
     41 H41C        1.6270   -0.5830    1.4620 h1        1 N5N      0.167500
     42 H42C       -0.1210   -1.0510    1.2260 h1        1 N5N      0.167500
     43 H51C        3.2610    0.6900    0.4960 hc        1 N5N      0.134000
     44 H52C        4.2170    0.4810   -1.0480 hc        1 N5N      0.134000
     45 H61C        4.2160   -2.0800   -0.6860 hc        1 N5N      0.134000
     46 H62C        3.2640   -1.8580    0.8550 hc        1 N5N      0.134000
     47 H7         -1.6860   -1.6760   -0.1750 h1        1 N5N      0.138000
     48 H10        -2.6430    0.4520   -0.1180 hn        1 N5N      0.199500
     49 H111       -1.8820   -2.4860   -2.5510 hc        1 N5N      0.174500
     50 H112       -2.1530   -0.7920   -3.1320 hc        1 N5N      0.174500
     51 H19        -3.9700   -2.7530   -3.6870 hn        1 N5N      0.254500
     52 H21        -0.7800    5.0380    1.4900 ha        1 N5N      0.156000
     53 H22        -1.2250    2.6820    5.1080 ha        1 N5N      0.166000
     54 H231       -6.3480   -1.3000   -2.6080 hx        1 N5N      0.164000
     55 H232       -5.3210   -0.7980   -4.0390 hx        1 N5N      0.164000
     56 H25        -0.1140    4.4720    6.4230 ha        1 N5N      0.175000
     57 H26        -6.0100   -3.1630   -5.0840 hc        1 N5N      0.102000
     58 H28         0.2730    7.2530    1.5830 ha        1 N5N      0.151000
     59 H291       -8.1120   -2.7000   -2.8370 h1        1 N5N      0.116000
     60 H292       -7.1000   -4.1940   -3.1340 h1        1 N5N      0.116000
     61 H301       -7.8370   -0.6960   -4.6870 hc        1 N5N      0.119000
     62 H302       -6.6170   -0.9810   -5.9980 hc        1 N5N      0.119000
     63 H31         0.9560    6.7040    6.5250 ha        1 N5N      0.169000
     64 H32         1.3660    9.0620    2.9170 ha        1 N5N      0.171000
     65 H341       -7.9480   -2.8390   -6.9230 hc        1 N5N      0.128000
     66 H342       -8.9900   -1.3740   -6.7420 hc        1 N5N      0.128000
     67 H35         1.7030    8.7880    5.3650 ha        1 N5N      0.173000
     68 H361       -9.9650   -2.1930   -4.6330 h1        1 N5N      0.129000
     69 H362      -10.1540   -3.4510   -5.9420 h1        1 N5N      0.129000
     70 H381       -9.7200   -7.0070   -5.0160 hn        1 N5N      0.281000
     71 H382      -10.6560   -5.6230   -5.1790 hn        1 N5N      0.281000
     72 H39        -6.8300   -5.3160   -5.7370 hn        1 N5N      0.222000
     73 H11         1.4070    1.8350   -0.3330 ho        1 N5N      0.299000
     74 H102       -1.6700    1.0600   -1.3040 hn        1 N5N      0.199500
     75 H192       -4.9180   -3.2640   -2.4180 hn        1 N5N      0.254500
     76 H383      -10.0740   -6.0600   -3.6710 hn        1 N5N      0.281000
@<TRIPOS>BOND
     1    1    2 1   
     2    1    3 1   
     3    1    4 1   
     4    2    5 1   
     5    2    6 1   
     6    2   40 1   
     7    3    7 1   
     8    3    8 1   
     9    4    9 1   
    10    4   41 1   
    11    4   42 1   
    12    5    6 1   
    13    5   43 1   
    14    5   44 1   
    15    6   45 1   
    16    6   46 1   
    17    7   10 1   
    18    7   11 1   
    19    7   47 1   
    20    9   12 1   
    21    9   13 1   
    22   10   48 1   
    23   10   74 1   
    24   11   15 1   
    25   11   49 1   
    26   11   50 1   
    27   12   14 1   
    28   13   73 1   
    29   14   16 1   
    30   14   17 1   
    31   14   18 1   
    32   15   19 1   
    33   15   20 1   
    34   16   21 1   
    35   16   22 1   
    36   19   23 1   
    37   19   51 1   
    38   19   75 1   
    39   21   24 1   
    40   21   52 1   
    41   22   25 1   
    42   22   53 1   
    43   23   26 1   
    44   23   54 1   
    45   23   55 1   
    46   24   27 1   
    47   24   28 1   
    48   25   27 1   
    49   25   56 1   
    50   26   29 1   
    51   26   30 1   
    52   26   57 1   
    53   27   31 1   
    54   28   32 1   
    55   28   58 1   
    56   29   33 1   
    57   29   59 1   
    58   29   60 1   
    59   30   34 1   
    60   30   61 1   
    61   30   62 1   
    62   31   35 1   
    63   31   63 1   
    64   32   35 1   
    65   32   64 1   
    66   33   36 1   
    67   33   37 1   
    68   34   36 1   
    69   34   65 1   
    70   34   66 1   
    71   35   67 1   
    72   36   68 1   
    73   36   69 1   
    74   37   38 1   
    75   37   39 1   
    76   38   70 1   
    77   38   71 1   
    78   38   76 1   
    79   39   72 1   
@<TRIPOS>SUBSTRUCTURE
     1 N5N         1 TEMP              0 ****  ****    0 ROOT
