@<TRIPOS>MOLECULE
N5N
   76    79     1     0     0
SMALL
bcc


@<TRIPOS>ATOM
      1 N1          0.6860   -0.3280   -0.0720 n         1 N5N     -0.267000
      2 C2          1.9150    0.3070   -0.4830 cx        1 N5N     -0.074000
      3 C3         -0.3770   -0.3330   -0.9670 c2        1 N5N      0.315000
      4 C4          0.5910   -0.8460    1.2520 c3        1 N5N     -0.027000
      5 C5          2.9300    0.8710    0.4890 cx        1 N5N     -0.207500
      6 C6          3.2680   -0.3550   -0.3080 cx        1 N5N     -0.207500
      7 C7         -1.7160   -1.0300   -0.5930 c3        1 N5N     -0.017000
      8 O8         -0.2770    0.1730   -2.0990 o         1 N5N     -0.327000
      9 C9          0.0320    0.0920    2.3110 c2        1 N5N      0.429000
     10 N10        -2.2890   -0.4710    0.5960 n3        1 N5N     -0.390000
     11 C11        -2.5860   -0.9610   -1.8810 c3        1 N5N     -0.241000
     12 O12        -0.4420    1.2500    2.0980 os        1 N5N     -0.555000
     13 O13        -0.0030   -0.2340    3.6040 oh        1 N5N     -0.216000
     14 S14        -1.6850    2.4820    2.7860 s6        1 N5N      2.939000
     15 C15        -3.8410   -1.7610   -1.7500 c2        1 N5N      0.270000
     16 C16        -0.8140    3.7270    3.1440 ca        1 N5N     -1.032000
     17 O17        -2.3490    2.4830    1.5840 o         1 N5N     -0.883500
     18 O18        -2.1190    1.6720    3.7910 o         1 N5N     -0.883500
     19 N19        -4.5270   -2.0830   -3.0810 n4        1 N5N     -0.118000
     20 O20        -4.3910   -2.1790   -0.7470 o         1 N5N     -0.164000
     21 C21        -0.4990    4.7430    2.2300 ca        1 N5N      0.109000
     22 C22        -0.3360    3.8810    4.4920 ca        1 N5N     -0.053000
     23 C23        -5.9070   -2.6270   -2.9240 c3        1 N5N     -0.132000
     24 C24         0.2400    5.8770    2.5990 ca        1 N5N     -0.098000
     25 C25         0.3860    4.9730    4.8750 ca        1 N5N     -0.103000
     26 C26        -6.5720   -3.0150   -4.2500 c3        1 N5N     -0.162000
     27 C27         0.6970    6.0070    3.9450 ca        1 N5N      0.061000
     28 C28         0.5400    6.9100    1.6620 ca        1 N5N     -0.087000
     29 C29        -7.9460   -3.6320   -3.8990 c3        1 N5N     -0.054000
     30 C30        -6.7420   -1.8140   -5.1680 c3        1 N5N     -0.176000
     31 C31         1.4360    7.1550    4.3190 ca        1 N5N     -0.145000
     32 C32         1.2580    8.0130    2.0540 ca        1 N5N     -0.114000
     33 N33        -8.8610   -3.8380   -5.0050 n3        1 N5N     -0.279000
     34 C34        -7.5880   -2.1600   -6.3740 c3        1 N5N     -0.191000
     35 C35         1.7100    8.1370    3.3920 ca        1 N5N     -0.034000
     36 C36        -8.9380   -2.7290   -5.9490 c3        1 N5N     -0.070000
     37 C37        -8.8480   -5.1500   -5.5980 c2        1 N5N      0.081000
     38 N38       -10.2610   -5.6710   -5.8020 n4        1 N5N     -0.043000
     39 N39        -7.9180   -5.9680   -5.9420 n2        1 N5N     -0.175000
     40 H2          1.7510    0.8810   -1.4290 h1        1 N5N      0.182000
     41 H41C       -0.0660   -1.7680    1.2840 h1        1 N5N      0.156000
     42 H42C        1.6280   -1.1450    1.6070 h1        1 N5N      0.156000
     43 H51C        3.4040    1.8370    0.2280 hc        1 N5N      0.130250
     44 H52C        2.7820    0.7790    1.5790 hc        1 N5N      0.130250
     45 H61C        3.3590   -1.3260    0.2100 hc        1 N5N      0.130250
     46 H62C        3.9870   -0.2780   -1.1470 hc        1 N5N      0.130250
     47 H7         -1.4980   -2.1250   -0.3980 h1        1 N5N      0.129000
     48 H10        -3.1270   -0.9440    0.8710 hn        1 N5N      0.198500
     49 H111       -2.8530    0.1140   -2.0920 hc        1 N5N      0.175000
     50 H112       -1.9600   -1.3210   -2.7460 hc        1 N5N      0.175000
     51 H19        -3.9460   -2.7650   -3.5830 hn        1 N5N      0.259500
     52 H21        -0.8530    4.6560    1.1840 ha        1 N5N      0.156000
     53 H22        -0.5830    3.0910    5.2250 ha        1 N5N      0.166000
     54 H231       -6.5230   -1.8400   -2.3990 hx        1 N5N      0.160500
     55 H232       -5.8440   -3.5310   -2.2480 hx        1 N5N      0.160500
     56 H25         0.7370    5.0770    5.9170 ha        1 N5N      0.176000
     57 H26        -5.9460   -3.7920   -4.7710 hc        1 N5N      0.105000
     58 H28         0.1830    6.8090    0.6250 ha        1 N5N      0.150000
     59 H291       -8.4870   -2.9210   -3.2040 h1        1 N5N      0.129000
     60 H292       -7.7830   -4.6010   -3.3490 h1        1 N5N      0.129000
     61 H301       -7.2280   -0.9730   -4.6030 hc        1 N5N      0.101500
     62 H302       -5.7420   -1.4530   -5.5280 hc        1 N5N      0.101500
     63 H31         1.7850    7.2520    5.3610 ha        1 N5N      0.169000
     64 H32         1.4900    8.8170    1.3350 ha        1 N5N      0.170000
     65 H341       -7.0430   -2.8860   -7.0330 hc        1 N5N      0.125500
     66 H342       -7.7730   -1.2330   -6.9830 hc        1 N5N      0.125500
     67 H35         2.2830    9.0350    3.6820 ha        1 N5N      0.173000
     68 H361       -9.5340   -1.9240   -5.4260 h1        1 N5N      0.128000
     69 H362       -9.5110   -3.0460   -6.8650 h1        1 N5N      0.128000
     70 H381      -10.2400   -6.6250   -6.1940 hn        1 N5N      0.280667
     71 H382      -10.7610   -5.0500   -6.4480 hn        1 N5N      0.280667
     72 H39        -6.9650   -5.6840   -5.8540 hn        1 N5N      0.225000
     73 H11         0.3660   -1.1230    3.7740 ho        1 N5N      0.291000
     74 H102       -2.4320    0.5200    0.5340 hn        1 N5N      0.198500
     75 H192       -4.5610   -1.2250   -3.6460 hn        1 N5N      0.259500
     76 H383      -10.7500   -5.6840   -4.8980 hn        1 N5N      0.280667
@<TRIPOS>BOND
     1    1    2 1   
     2    1    3 1   
     3    1    4 1   
     4    2    5 1   
     5    2    6 1   
     6    2   40 1   
     7    3    7 1   
     8    3    8 1   
     9    4    9 1   
    10    4   41 1   
    11    4   42 1   
    12    5    6 1   
    13    5   43 1   
    14    5   44 1   
    15    6   45 1   
    16    6   46 1   
    17    7   10 1   
    18    7   11 1   
    19    7   47 1   
    20    9   12 1   
    21    9   13 1   
    22   10   48 1   
    23   10   74 1   
    24   11   15 1   
    25   11   49 1   
    26   11   50 1   
    27   12   14 1   
    28   13   73 1   
    29   14   16 1   
    30   14   17 1   
    31   14   18 1   
    32   15   19 1   
    33   15   20 1   
    34   16   21 1   
    35   16   22 1   
    36   19   23 1   
    37   19   51 1   
    38   19   75 1   
    39   21   24 1   
    40   21   52 1   
    41   22   25 1   
    42   22   53 1   
    43   23   26 1   
    44   23   54 1   
    45   23   55 1   
    46   24   27 1   
    47   24   28 1   
    48   25   27 1   
    49   25   56 1   
    50   26   29 1   
    51   26   30 1   
    52   26   57 1   
    53   27   31 1   
    54   28   32 1   
    55   28   58 1   
    56   29   33 1   
    57   29   59 1   
    58   29   60 1   
    59   30   34 1   
    60   30   61 1   
    61   30   62 1   
    62   31   35 1   
    63   31   63 1   
    64   32   35 1   
    65   32   64 1   
    66   33   36 1   
    67   33   37 1   
    68   34   36 1   
    69   34   65 1   
    70   34   66 1   
    71   35   67 1   
    72   36   68 1   
    73   36   69 1   
    74   37   38 1   
    75   37   39 1   
    76   38   70 1   
    77   38   71 1   
    78   38   76 1   
    79   39   72 1   
@<TRIPOS>SUBSTRUCTURE
     1 N5N         1 TEMP              0 ****  ****    0 ROOT
