@<TRIPOS>MOLECULE
N5N
   76    79     1     0     0
SMALL
bcc


@<TRIPOS>ATOM
      1 N1          0.6580   -0.3560    0.0180 n         1 N5N     -0.267000
      2 C2          1.9060    0.2510   -0.3780 cx        1 N5N     -0.074000
      3 C3         -0.3840   -0.3660   -0.9020 c2        1 N5N      0.315000
      4 C4          0.5250   -0.8430    1.3510 c3        1 N5N     -0.027000
      5 C5          2.9060    0.8230    0.6040 cx        1 N5N     -0.207500
      6 C6          3.2440   -0.4250   -0.1570 cx        1 N5N     -0.207500
      7 C7         -1.7410   -1.0360   -0.5440 c3        1 N5N     -0.017000
      8 O8         -0.2490    0.1120   -2.0420 o         1 N5N     -0.327000
      9 C9         -0.0450    0.1270    2.3740 c2        1 N5N      0.429000
     10 N10        -2.3330   -0.4410    0.6180 n8        1 N5N     -0.390000
     11 C11        -2.5800   -0.9840   -1.8530 c3        1 N5N     -0.241000
     12 O12        -0.4960    1.2870    2.1240 os        1 N5N     -0.555000
     13 O13        -0.1150   -0.1690    3.6730 oh        1 N5N     -0.216000
     14 S14        -1.7370    2.5530    2.7540 s6        1 N5N      2.939000
     15 C15        -3.8490   -1.7630   -1.7340 c2        1 N5N      0.270000
     16 C16        -0.8560    3.7920    3.1050 ca        1 N5N     -1.032000
     17 O17        -2.3720    2.5350    1.5380 o         1 N5N     -0.883500
     18 O18        -2.2060    1.7710    3.7660 o         1 N5N     -0.883500
     19 N19        -4.5080   -2.1070   -3.0730 ny        1 N5N     -0.118000
     20 O20        -4.4290   -2.1490   -0.7350 o         1 N5N     -0.164000
     21 C21        -0.5040    4.7820    2.1770 ca        1 N5N      0.109000
     22 C22        -0.4070    3.9700    4.4600 ca        1 N5N     -0.053000
     23 C23        -5.8990   -2.6270   -2.9370 c3        1 N5N     -0.132000
     24 C24         0.2430    5.9140    2.5380 ca        1 N5N     -0.099000
     25 C25         0.3220    5.0590    4.8370 ca        1 N5N     -0.103000
     26 C26        -6.5380   -3.0380   -4.2690 c3        1 N5N     -0.162000
     27 C27         0.6700    6.0680    3.8910 ca        1 N5N      0.061000
     28 C28         0.5810    6.9210    1.5850 ca        1 N5N     -0.087000
     29 C29        -7.9290   -3.6250   -3.9360 c3        1 N5N     -0.054000
     30 C30        -6.6660   -1.8580   -5.2200 c3        1 N5N     -0.176000
     31 C31         1.4180    7.2130    4.2570 ca        1 N5N     -0.145000
     32 C32         1.3060    8.0220    1.9690 ca        1 N5N     -0.114000
     33 N33        -8.8200   -3.8450   -5.0590 n3        1 N5N     -0.279000
     34 C34        -7.4890   -2.2210   -6.4380 c3        1 N5N     -0.191000
     35 C35         1.7270    8.1700    3.3150 ca        1 N5N     -0.034000
     36 C36        -8.8570   -2.7600   -6.0330 c3        1 N5N     -0.070000
     37 C37        -8.8130   -5.1720   -5.6190 c2        1 N5N      0.081000
     38 N38       -10.2290   -5.6770   -5.8450 nz        1 N5N     -0.043000
     39 N39        -7.8880   -6.0120   -5.9200 n2        1 N5N     -0.175000
     40 H2          1.7730    0.8060   -1.3410 h1        1 N5N      0.182000
     41 H41C       -0.1460   -1.7540    1.3870 h1        1 N5N      0.156000
     42 H42C        1.5490   -1.1480    1.7360 h1        1 N5N      0.156000
     43 H51C        3.4010    1.7760    0.3330 hc        1 N5N      0.130250
     44 H52C        2.7320    0.7580    1.6920 hc        1 N5N      0.130250
     45 H61C        3.9840   -0.3780   -0.9800 hc        1 N5N      0.130250
     46 H62C        3.3090   -1.3860    0.3850 hc        1 N5N      0.130250
     47 H7         -1.5440   -2.1290   -0.3180 h1        1 N5N      0.129000
     48 H10        -2.4600    0.5500    0.5300 hn        1 N5N      0.198500
     49 H111       -2.8260    0.0900   -2.0950 hc        1 N5N      0.175000
     50 H112       -1.9390   -1.3720   -2.6940 hc        1 N5N      0.175000
     51 H19        -3.9250   -2.8100   -3.5440 hn        1 N5N      0.259500
     52 H21        -0.8340    4.6770    1.1250 ha        1 N5N      0.156000
     53 H22        -0.6830    3.2010    5.2050 ha        1 N5N      0.166000
     54 H231       -5.8670   -3.5140   -2.2370 hx        1 N5N      0.160500
     55 H232       -6.5160   -1.8170   -2.4460 hx        1 N5N      0.160500
     56 H25         0.6500    5.1830    5.8840 ha        1 N5N      0.176000
     57 H26        -5.9120   -3.8370   -4.7550 hc        1 N5N      0.105000
     58 H28         0.2470    6.8010    0.5420 ha        1 N5N      0.150000
     59 H291       -8.4760   -2.8890   -3.2730 h1        1 N5N      0.129000
     60 H292       -7.7950   -4.5820   -3.3590 h1        1 N5N      0.129000
     61 H301       -5.6530   -1.5210   -5.5640 hc        1 N5N      0.101500
     62 H302       -7.1530   -0.9960   -4.6880 hc        1 N5N      0.101500
     63 H31         1.7430    7.3290    5.3040 ha        1 N5N      0.169000
     64 H32         1.5670    8.8060    1.2380 ha        1 N5N      0.170000
     65 H341       -6.9390   -2.9720   -7.0640 hc        1 N5N      0.125500
     66 H342       -7.6440   -1.3070   -7.0740 hc        1 N5N      0.125500
     67 H35         2.3070    9.0660    3.5980 ha        1 N5N      0.173000
     68 H361       -9.4120   -3.0910   -6.9540 h1        1 N5N      0.128000
     69 H362       -9.4540   -1.9330   -5.5450 h1        1 N5N      0.128000
     70 H381      -10.7040   -5.0650   -6.5190 hn        1 N5N      0.280667
     71 H382      -10.7400   -5.6600   -4.9540 hn        1 N5N      0.280667
     72 H39        -6.9340   -5.7400   -5.8150 hn        1 N5N      0.225000
     73 H11         0.2360   -1.0580    3.8720 ho        1 N5N      0.291000
     74 H102       -3.1840   -0.8950    0.8840 hn        1 N5N      0.198500
     75 H192       -4.5150   -1.2630   -3.6590 hn        1 N5N      0.259500
     76 H383      -10.2130   -6.6410   -6.2130 hn        1 N5N      0.280667
@<TRIPOS>BOND
     1    1    2 1   
     2    1    3 1   
     3    1    4 1   
     4    2    5 1   
     5    2    6 1   
     6    2   40 1   
     7    3    7 1   
     8    3    8 1   
     9    4    9 1   
    10    4   41 1   
    11    4   42 1   
    12    5    6 1   
    13    5   43 1   
    14    5   44 1   
    15    6   45 1   
    16    6   46 1   
    17    7   10 1   
    18    7   11 1   
    19    7   47 1   
    20    9   12 1   
    21    9   13 1   
    22   10   48 1   
    23   10   74 1   
    24   11   15 1   
    25   11   49 1   
    26   11   50 1   
    27   12   14 1   
    28   13   73 1   
    29   14   16 1   
    30   14   17 1   
    31   14   18 1   
    32   15   19 1   
    33   15   20 1   
    34   16   21 1   
    35   16   22 1   
    36   19   23 1   
    37   19   51 1   
    38   19   75 1   
    39   21   24 1   
    40   21   52 1   
    41   22   25 1   
    42   22   53 1   
    43   23   26 1   
    44   23   54 1   
    45   23   55 1   
    46   24   27 1   
    47   24   28 1   
    48   25   27 1   
    49   25   56 1   
    50   26   29 1   
    51   26   30 1   
    52   26   57 1   
    53   27   31 1   
    54   28   32 1   
    55   28   58 1   
    56   29   33 1   
    57   29   59 1   
    58   29   60 1   
    59   30   34 1   
    60   30   61 1   
    61   30   62 1   
    62   31   35 1   
    63   31   63 1   
    64   32   35 1   
    65   32   64 1   
    66   33   36 1   
    67   33   37 1   
    68   34   36 1   
    69   34   65 1   
    70   34   66 1   
    71   35   67 1   
    72   36   68 1   
    73   36   69 1   
    74   37   38 1   
    75   37   39 1   
    76   38   70 1   
    77   38   71 1   
    78   38   76 1   
    79   39   72 1   
@<TRIPOS>SUBSTRUCTURE
     1 N5N         1 TEMP              0 ****  ****    0 ROOT
