@<TRIPOS>MOLECULE
N5O
   39    41     1     0     0
SMALL
bcc


@<TRIPOS>ATOM
      1 O53        -2.7840    2.3860   -1.8870 oh        1 N5O     -0.608800
      2 C52        -2.9520    2.5420   -0.4880 c3        1 N5O      0.098400
      3 C51        -3.9070    1.4320   -0.0220 c3        1 N5O      0.077000
      4 N5'        -3.3930    0.0990   -0.1840 n         1 N5O     -0.523900
      5 C5'        -2.8680   -0.6130    0.8680 c         1 N5O      0.626100
      6 O5'        -2.9800   -0.2400    2.0570 o         1 N5O     -0.632100
      7 C4'        -2.2080   -1.9590    0.5370 c3        1 N5O      0.025100
      8 O4'        -1.2820   -1.8000   -0.5390 os        1 N5O     -0.401600
      9 C3'        -1.4470   -2.5440    1.7470 c3        1 N5O      0.083100
     10 O3'        -1.9300   -3.8310    2.0720 oh        1 N5O     -0.596800
     11 C2'         0.0210   -2.6770    1.2840 c3        1 N5O      0.124100
     12 O2'         0.4310   -3.9890    0.9730 oh        1 N5O     -0.582800
     13 C1'         0.0750   -1.8870   -0.0670 c3        1 N5O      0.242800
     14 N9          0.6640   -0.5800    0.0620 na        1 N5O     -0.290000
     15 C8          0.2820    0.4650    0.9470 cc        1 N5O      0.400700
     16 N7          0.9400    1.6120    0.7430 nd        1 N5O     -0.542100
     17 C5          1.7970    1.3560   -0.3400 ca        1 N5O     -0.237200
     18 C4          1.6270   -0.0190   -0.7970 ca        1 N5O      0.474800
     19 N3          2.3270   -0.5640   -1.8350 nb        1 N5O     -0.729000
     20 C2          3.1980    0.3110   -2.3920 ca        1 N5O      0.688900
     21 N1          3.4650    1.6050   -2.0730 nb        1 N5O     -0.790000
     22 C6          2.7560    2.1650   -1.0350 ca        1 N5O      0.753200
     23 N6          2.9270    3.4840   -0.6930 nh        1 N5O     -0.950500
     24 HO53       -2.0730    2.9810   -2.1520 ho        1 N5O      0.409000
     25 H521       -3.4220    3.5390   -0.2710 h1        1 N5O      0.039200
     26 H522       -1.9630    2.4770    0.0380 h1        1 N5O      0.039200
     27 H511       -4.8540    1.5030   -0.6290 h1        1 N5O      0.075700
     28 H512       -4.1490    1.6110    1.0640 h1        1 N5O      0.075700
     29 HN5'       -3.0940   -0.1450   -1.1040 hn        1 N5O      0.333500
     30 H4'        -2.9910   -2.6770    0.1650 h1        1 N5O      0.110700
     31 H3'        -1.5200   -1.8580    2.6350 h1        1 N5O      0.092700
     32 HO3'       -2.7320   -3.7070    2.5960 ho        1 N5O      0.427000
     33 H2'         0.7160   -2.2570    2.0590 h1        1 N5O      0.074700
     34 HO2'       -0.0250   -4.6000    1.5680 ho        1 N5O      0.436000
     35 H1'         0.6270   -2.4710   -0.8650 h2        1 N5O      0.152700
     36 H8         -0.4910    0.3000    1.7130 h5        1 N5O      0.083800
     37 H2          3.7930   -0.0890   -3.2420 h5        1 N5O      0.055100
     38 HN61        3.6760    4.0000   -1.0850 hn        1 N5O      0.442800
     39 HN62        2.5270    3.7970    0.1580 hn        1 N5O      0.442800
@<TRIPOS>BOND
     1    1    2 1   
     2    1   24 1   
     3    2    3 1   
     4    2   25 1   
     5    2   26 1   
     6    3    4 1   
     7    3   27 1   
     8    3   28 1   
     9    4    5 1   
    10    4   29 1   
    11    5    6 2   
    12    5    7 1   
    13    7    8 1   
    14    7    9 1   
    15    7   30 1   
    16    8   13 1   
    17    9   10 1   
    18    9   11 1   
    19    9   31 1   
    20   10   32 1   
    21   11   12 1   
    22   11   13 1   
    23   11   33 1   
    24   12   34 1   
    25   13   14 1   
    26   13   35 1   
    27   14   15 1   
    28   14   18 1   
    29   15   16 2   
    30   15   36 1   
    31   16   17 1   
    32   17   18 ar  
    33   17   22 ar  
    34   18   19 ar  
    35   19   20 ar  
    36   20   21 ar  
    37   20   37 1   
    38   21   22 ar  
    39   22   23 1   
    40   23   38 1   
    41   23   39 1   
@<TRIPOS>SUBSTRUCTURE
     1 N5O         1 TEMP              0 ****  ****    0 ROOT
