@<TRIPOS>MOLECULE
N5O
   40    42     1     0     0
SMALL
bcc


@<TRIPOS>ATOM
      1 O53        -0.1540    0.2930    1.0760 oh        1 N5O     -0.628800
      2 C52         1.0900    0.8560    1.4480 c3        1 N5O      0.109400
      3 C51         1.6010    0.0550    2.6520 c3        1 N5O      0.098800
      4 N5'         1.5710   -1.4150    2.4060 ny        1 N5O     -0.678800
      5 C5'         2.1700   -2.2210    3.5430 c         1 N5O      0.528100
      6 O5'         3.0640   -1.7090    4.1910 o         1 N5O     -0.387100
      7 C4'         1.5470   -3.5970    3.6870 c3        1 N5O      0.040100
      8 O4'         2.2160   -4.3140    4.7060 os        1 N5O     -0.371600
      9 C3'         0.0400   -3.4860    4.0470 c3        1 N5O      0.118100
     10 O3'        -0.7280   -3.6110    2.8840 oh        1 N5O     -0.598800
     11 C2'        -0.1520   -4.5650    5.1330 c3        1 N5O      0.095100
     12 O2'        -0.5150   -5.7610    4.4800 oh        1 N5O     -0.599800
     13 C1'         1.2840   -4.7280    5.7410 c3        1 N5O      0.239800
     14 N9          1.4950   -3.9430    6.9260 na        1 N5O     -0.327000
     15 C8          2.6690   -3.2070    7.2730 cc        1 N5O      0.407700
     16 N7          2.7140   -2.8570    8.5600 nd        1 N5O     -0.511100
     17 C5          1.5600   -3.4110    9.1400 ca        1 N5O     -0.237200
     18 C4          0.7890   -4.1270    8.1350 ca        1 N5O      0.463800
     19 N3         -0.3760   -4.7870    8.3880 nb        1 N5O     -0.778000
     20 C2         -0.7430   -4.7050    9.6960 ca        1 N5O      0.708900
     21 N1         -0.1360   -4.0820   10.7330 nb        1 N5O     -0.777000
     22 C6          1.0440   -3.4070   10.4820 ca        1 N5O      0.777200
     23 N6          1.6960   -2.7410   11.4750 nv        1 N5O     -0.939500
     24 HO53       -0.6500    0.9630    0.5860 ho        1 N5O      0.453000
     25 H521        1.8050    0.7850    0.5830 h1        1 N5O      0.074700
     26 H522        0.9890    1.9290    1.7620 h1        1 N5O      0.074700
     27 H511        2.6610    0.3620    2.8860 hx        1 N5O      0.117700
     28 H512        0.9520    0.2610    3.5500 hx        1 N5O      0.117700
     29 HN5'        2.0890   -1.6220    1.5450 hn        1 N5O      0.476300
     30 H4'         1.7050   -4.1730    2.7270 h1        1 N5O      0.127700
     31 H3'        -0.2080   -2.4760    4.4770 h1        1 N5O      0.091700
     32 HO3'       -0.9820   -4.5420    2.7670 ho        1 N5O      0.463000
     33 H2'        -0.9190   -4.2530    5.8880 h1        1 N5O      0.125700
     34 HO2'       -1.0070   -6.3030    5.1140 ho        1 N5O      0.454000
     35 H1'         1.5320   -5.8190    5.9180 h2        1 N5O      0.128700
     36 H8          3.4190   -2.9630    6.5080 h5        1 N5O      0.084800
     37 H2         -1.6850   -5.2370    9.9580 h5        1 N5O      0.064100
     38 HN61        1.3610   -2.7660   12.4080 hn        1 N5O      0.459300
     39 HN62        2.5690   -2.3160   11.2790 hn        1 N5O      0.459300
     40 H5'2        0.5880   -1.7060    2.2550 hn        1 N5O      0.476300
@<TRIPOS>BOND
     1    1    2 1   
     2    1   24 1   
     3    2    3 1   
     4    2   25 1   
     5    2   26 1   
     6    3    4 1   
     7    3   27 1   
     8    3   28 1   
     9    4    5 1   
    10    4   29 1   
    11    4   40 1   
    12    5    6 2   
    13    5    7 1   
    14    7    8 1   
    15    7    9 1   
    16    7   30 1   
    17    8   13 1   
    18    9   10 1   
    19    9   11 1   
    20    9   31 1   
    21   10   32 1   
    22   11   12 1   
    23   11   13 1   
    24   11   33 1   
    25   12   34 1   
    26   13   14 1   
    27   13   35 1   
    28   14   15 1   
    29   14   18 1   
    30   15   16 2   
    31   15   36 1   
    32   16   17 1   
    33   17   18 ar  
    34   17   22 ar  
    35   18   19 ar  
    36   19   20 ar  
    37   20   21 ar  
    38   20   37 1   
    39   21   22 ar  
    40   22   23 1   
    41   23   38 1   
    42   23   39 1   
@<TRIPOS>SUBSTRUCTURE
     1 N5O         1 TEMP              0 ****  ****    0 ROOT
