@<TRIPOS>MOLECULE
N5O
   41    43     1     0     0
SMALL
bcc


@<TRIPOS>ATOM
      1 O53        -0.1530    0.2380    0.7010 oh        1 N5O     -0.635800
      2 C52         1.1900    0.6800    0.7600 c3        1 N5O      0.110400
      3 C51         1.7750    0.1370    2.0710 c3        1 N5O      0.102800
      4 N5'         1.5440   -1.3340    2.2150 n4        1 N5O     -0.671800
      5 C5'         2.0550   -1.9000    3.5140 c         1 N5O      0.535100
      6 O5'         2.8360   -1.2400    4.1760 o         1 N5O     -0.386100
      7 C4'         1.4870   -3.2700    3.8260 c3        1 N5O      0.029100
      8 O4'         2.1770   -3.8220    4.9420 os        1 N5O     -0.379600
      9 C3'        -0.0210   -3.1730    4.1770 c3        1 N5O      0.120100
     10 O3'        -0.7820   -3.3230    3.0140 oh        1 N5O     -0.587800
     11 C2'        -0.2010   -4.2450    5.2720 c3        1 N5O      0.097100
     12 O2'        -0.5820   -5.4400    4.6330 oh        1 N5O     -0.586800
     13 C1'         1.2430   -4.4460    5.8520 c3        1 N5O      0.229800
     14 N9          1.4450   -3.8870    7.1740 na        1 N5O     -0.294000
     15 C8          2.5460   -3.1100    7.6210 cc        1 N5O      0.517700
     16 N7          2.6060   -2.9680    8.9550 nd        1 N5O     -0.560100
     17 C5          1.5230   -3.7040    9.4510 ca        1 N5O     -0.131200
     18 C4          0.7700   -4.3130    8.3330 ca        1 N5O      0.452800
     19 N3         -0.3290   -5.0850    8.5100 nb        1 N5O     -0.647000
     20 C2         -0.6760   -5.2600    9.8130 ca        1 N5O      0.691900
     21 N1         -0.0670   -4.7610   10.9280 nb        1 N5O     -0.662000
     22 C6          1.0310   -3.9880   10.7390 ca        1 N5O      0.541200
     23 N6          1.7370   -3.4380   11.9110 n4        1 N5O     -0.818300
     24 HO53       -0.6270    0.8030    0.0740 ho        1 N5O      0.462000
     25 H521        1.2620    1.8010    0.7890 h1        1 N5O      0.081200
     26 H522        1.7560    0.2910   -0.1290 h1        1 N5O      0.081200
     27 H511        1.2810    0.6440    2.9490 hx        1 N5O      0.119200
     28 H512        2.8840    0.3360    2.1070 hx        1 N5O      0.119200
     29 HN5'        0.5250   -1.5190    2.1380 hn        1 N5O      0.483800
     30 H4'         1.6610   -3.9670    2.9540 h1        1 N5O      0.131700
     31 H3'        -0.2820   -2.1570    4.5880 h1        1 N5O      0.100700
     32 HO3'       -1.0240   -4.2590    2.9000 ho        1 N5O      0.468000
     33 H2'        -0.9440   -3.9200    6.0440 h1        1 N5O      0.111700
     34 HO2'       -1.1980   -5.9150    5.2110 ho        1 N5O      0.459000
     35 H1'         1.5180   -5.5480    5.8630 h2        1 N5O      0.139700
     36 H8          3.2620   -2.6750    6.9000 h5        1 N5O      0.120800
     37 H2         -1.5750   -5.8960   10.0060 h5        1 N5O      0.112100
     38 HN61        1.9180   -2.4380   11.7500 hn        1 N5O      0.486133
     39 HN62        2.6340   -3.9310   12.0150 hn        1 N5O      0.486133
     40 H5'2        2.0040   -1.8220    1.4350 hn        1 N5O      0.483800
     41 H63         1.1810   -3.5560   12.7710 hn        1 N5O      0.486133
@<TRIPOS>BOND
     1    1    2 1   
     2    1   24 1   
     3    2    3 1   
     4    2   25 1   
     5    2   26 1   
     6    3    4 1   
     7    3   27 1   
     8    3   28 1   
     9    4    5 1   
    10    4   29 1   
    11    4   40 1   
    12    5    6 2   
    13    5    7 1   
    14    7    8 1   
    15    7    9 1   
    16    7   30 1   
    17    8   13 1   
    18    9   10 1   
    19    9   11 1   
    20    9   31 1   
    21   10   32 1   
    22   11   12 1   
    23   11   13 1   
    24   11   33 1   
    25   12   34 1   
    26   13   14 1   
    27   13   35 1   
    28   14   15 1   
    29   14   18 1   
    30   15   16 2   
    31   15   36 1   
    32   16   17 1   
    33   17   18 ar  
    34   17   22 ar  
    35   18   19 ar  
    36   19   20 ar  
    37   20   21 ar  
    38   20   37 1   
    39   21   22 ar  
    40   22   23 1   
    41   23   38 1   
    42   23   39 1   
    43   23   41 1   
@<TRIPOS>SUBSTRUCTURE
     1 N5O         1 TEMP              0 ****  ****    0 ROOT
