@<TRIPOS>MOLECULE
N5O
   40    42     1     0     0
SMALL
bcc


@<TRIPOS>ATOM
      1 O53        -0.2120    0.2050    1.0490 oh        1 N5O     -0.628800
      2 C52         1.0080    0.8180    1.4220 c3        1 N5O      0.109400
      3 C51         1.5420    0.0480    2.6360 c3        1 N5O      0.098800
      4 N5'         1.5690   -1.4250    2.4020 n4        1 N5O     -0.678800
      5 C5'         2.1910   -2.1980    3.5490 c         1 N5O      0.528100
      6 O5'         3.0550   -1.6450    4.2030 o         1 N5O     -0.387100
      7 C4'         1.6260   -3.5990    3.6950 c3        1 N5O      0.040100
      8 O4'         2.3150   -4.2820    4.7240 os        1 N5O     -0.371600
      9 C3'         0.1130   -3.5510    4.0410 c3        1 N5O      0.118100
     10 O3'        -0.6390   -3.7130    2.8720 oh        1 N5O     -0.598800
     11 C2'        -0.0430   -4.6310    5.1310 c3        1 N5O      0.095100
     12 O2'        -0.3500   -5.8440    4.4820 oh        1 N5O     -0.600800
     13 C1'         1.3930   -4.7300    5.7530 c3        1 N5O      0.239800
     14 N9          1.5600   -3.9320    6.9360 na        1 N5O     -0.327000
     15 C8          2.6970   -3.1430    7.2890 cc        1 N5O      0.407700
     16 N7          2.7150   -2.7860    8.5750 nd        1 N5O     -0.511100
     17 C5          1.5810   -3.3880    9.1480 ca        1 N5O     -0.237200
     18 C4          0.8510   -4.1400    8.1400 ca        1 N5O      0.463800
     19 N3         -0.2860   -4.8490    8.3860 nb        1 N5O     -0.778000
     20 C2         -0.6670   -4.7780    9.6910 ca        1 N5O      0.708900
     21 N1         -0.0980   -4.1250   10.7290 nb        1 N5O     -0.777000
     22 C6          1.0540   -3.4000   10.4850 ca        1 N5O      0.777200
     23 N6          1.6680   -2.7020   11.4810 nh        1 N5O     -0.939500
     24 HO53       -0.7310    0.8520    0.5510 ho        1 N5O      0.453000
     25 H521        1.7290    0.7680    0.5620 h1        1 N5O      0.074700
     26 H522        0.8630    1.8890    1.7270 h1        1 N5O      0.074700
     27 H511        2.5880    0.3970    2.8740 hx        1 N5O      0.118200
     28 H512        0.8800    0.2350    3.5290 hx        1 N5O      0.118200
     29 HN5'        2.1010   -1.6180    1.5460 hn        1 N5O      0.476300
     30 H4'         1.8170   -4.1720    2.7400 h1        1 N5O      0.127700
     31 H3'        -0.1830   -2.5490    4.4630 h1        1 N5O      0.091700
     32 HO3'       -0.8530   -4.6540    2.7580 ho        1 N5O      0.463000
     33 H2'        -0.8300   -4.3480    5.8780 h1        1 N5O      0.125700
     34 HO2'       -0.8240   -6.4030    5.1140 ho        1 N5O      0.454000
     35 H1'         1.6860   -5.8080    5.9380 h2        1 N5O      0.128700
     36 H8          3.4420   -2.8700    6.5300 h5        1 N5O      0.084800
     37 H2         -1.5880   -5.3490    9.9470 h5        1 N5O      0.064100
     38 HN61        2.5230   -2.2400   11.2900 hn        1 N5O      0.459300
     39 HN62        1.3270   -2.7370   12.4110 hn        1 N5O      0.459300
     40 H5'2        0.6000   -1.7550    2.2470 hn        1 N5O      0.476300
@<TRIPOS>BOND
     1    1    2 1   
     2    1   24 1   
     3    2    3 1   
     4    2   25 1   
     5    2   26 1   
     6    3    4 1   
     7    3   27 1   
     8    3   28 1   
     9    4    5 1   
    10    4   29 1   
    11    4   40 1   
    12    5    6 2   
    13    5    7 1   
    14    7    8 1   
    15    7    9 1   
    16    7   30 1   
    17    8   13 1   
    18    9   10 1   
    19    9   11 1   
    20    9   31 1   
    21   10   32 1   
    22   11   12 1   
    23   11   13 1   
    24   11   33 1   
    25   12   34 1   
    26   13   14 1   
    27   13   35 1   
    28   14   15 1   
    29   14   18 1   
    30   15   16 2   
    31   15   36 1   
    32   16   17 1   
    33   17   18 ar  
    34   17   22 ar  
    35   18   19 ar  
    36   19   20 ar  
    37   20   21 ar  
    38   20   37 1   
    39   21   22 ar  
    40   22   23 1   
    41   23   38 1   
    42   23   39 1   
@<TRIPOS>SUBSTRUCTURE
     1 N5O         1 TEMP              0 ****  ****    0 ROOT
