@<TRIPOS>MOLECULE
N5P
   45    47     1     0     0
SMALL
bcc


@<TRIPOS>ATOM
      1 OR2         0.0000    0.0000    0.0000 o         1 N5P     -0.595500
      2 NRO         1.2180    0.0000    0.0000 no        1 N5P      0.973200
      3 OR1         1.8280    0.0000    1.0550 o         1 N5P     -0.595500
      4 CZ3         1.9580   -0.0070   -1.2820 ca        1 N5P     -0.538200
      5 CE3         3.3250   -0.0140   -1.2750 ca        1 N5P     -0.151000
      6 CD2         4.0230   -0.0200   -2.4850 ca        1 N5P     -0.034800
      7 CH2         1.2590   -0.0130   -2.4800 ca        1 N5P     -0.062000
      8 CZ2         1.9270   -0.0200   -3.6850 ca        1 N5P     -0.130000
      9 CE2         3.3200   -0.0200   -3.7020 ca        1 N5P     -0.328200
     10 NE1         4.2540   -0.0270   -4.7120 na        1 N5P      0.408600
     11 CD1         5.5150   -0.0310   -4.1790 cc        1 N5P     -0.232100
     12 CG          5.4450   -0.0270   -2.8380 cd        1 N5P     -0.253200
     13 C1'         3.9470   -0.0300   -6.1440 c3        1 N5P      0.149800
     14 O4'         5.0590   -0.5610   -6.8830 os        1 N5P     -0.355600
     15 C4'         5.1060    0.1450   -8.1410 c3        1 N5P      0.153100
     16 C3'         4.7770    1.6070   -7.7480 c3        1 N5P      0.145100
     17 O3'         4.2260    2.3210   -8.8560 oh        1 N5P     -0.579800
     18 C2'         3.7190    1.4130   -6.6340 c3        1 N5P     -0.120400
     19 C5'         6.5040    0.0540   -8.7580 c3        1 N5P      0.311400
     20 O5'         6.7770   -1.3010   -9.1220 os        1 N5P     -0.492200
     21 PA          8.1610   -1.7640   -9.8010 p5        1 N5P      0.955800
     22 O1A         8.4050   -0.9620  -11.0220 o         1 N5P     -0.696500
     23 O2A         9.3700   -1.5400   -8.7620 o         1 N5P     -0.696500
     24 O3A         8.0710   -3.3230  -10.1930 os        1 N5P     -0.490800
     25 PB          8.9430   -4.2910  -11.1390 p5        1 N5P      1.013800
     26 O1B        10.3830   -4.0570  -10.8900 o         1 N5P     -0.657000
     27 O2B         8.6080   -3.9770  -12.6820 o         1 N5P     -0.657000
     28 O3B         8.5850   -5.8260  -10.8130 os        1 N5P     -0.479800
     29 PG          9.3330   -7.2280  -11.0690 p5        1 N5P      0.846900
     30 O3G         8.6490   -8.3740  -10.1700 o         1 N5P     -0.590500
     31 O2G         9.2110   -7.6250  -12.6250 o         1 N5P     -0.590500
     32 O1G        10.7610   -7.0990  -10.7040 o         1 N5P     -0.590500
     33 HE3         3.8620    0.0800   -0.3400 ha        1 N5P      0.102000
     34 HH2         0.1750   -0.0110   -2.4690 ha        1 N5P      0.089000
     35 HZ2         1.3720   -0.0240   -4.6150 ha        1 N5P      0.073000
     36 HD1         6.4330   -0.0370   -4.7540 h4        1 N5P      0.152000
     37 HG          6.2700   -0.1970   -2.1570 ha        1 N5P      0.109000
     38 H1'         3.0620   -0.6250   -6.3360 h2        1 N5P      0.022700
     39 H4'         4.3570   -0.2420   -8.8210 h1        1 N5P      0.025700
     40 H3'         5.6560    2.1050   -7.3580 h1        1 N5P      0.015700
     41 HO3'        4.4740    3.2290   -8.8000 ho        1 N5P      0.366000
     42 H2'1        3.8870    2.1170   -5.8280 hc        1 N5P      0.023700
     43 H2'2        2.7210    1.5210   -7.0390 hc        1 N5P      0.023700
     44 H5'1        6.5510    0.6820   -9.6400 h1        1 N5P     -0.021300
     45 H5'2        7.2390    0.3890   -8.0370 h1        1 N5P     -0.021300
@<TRIPOS>BOND
     1    1    2 1   
     2    2    3 1   
     3    2    4 1   
     4    4    5 ar  
     5    4    7 ar  
     6    5    6 ar  
     7    5   33 1   
     8    6    9 ar  
     9    6   12 1   
    10    7    8 ar  
    11    7   34 1   
    12    8    9 ar  
    13    8   35 1   
    14    9   10 1   
    15   10   11 1   
    16   10   13 1   
    17   11   12 2   
    18   11   36 1   
    19   12   37 1   
    20   13   14 1   
    21   13   18 1   
    22   13   38 1   
    23   14   15 1   
    24   15   16 1   
    25   15   19 1   
    26   15   39 1   
    27   16   17 1   
    28   16   18 1   
    29   16   40 1   
    30   17   41 1   
    31   18   42 1   
    32   18   43 1   
    33   19   20 1   
    34   19   44 1   
    35   19   45 1   
    36   20   21 1   
    37   21   22 1   
    38   21   23 1   
    39   21   24 1   
    40   24   25 1   
    41   25   26 1   
    42   25   27 1   
    43   25   28 1   
    44   28   29 1   
    45   29   30 1   
    46   29   31 1   
    47   29   32 1   
@<TRIPOS>SUBSTRUCTURE
     1 N5P         1 TEMP              0 ****  ****    0 ROOT
