@<TRIPOS>MOLECULE
N5T
   43    45     1     0     0
SMALL
bcc


@<TRIPOS>ATOM
      1 C1         -0.1770    1.0580    0.9390 ca        1 N5T      0.134900
      2 C2          1.2260    1.0380    0.9300 ca        1 N5T     -0.132000
      3 C3          1.9350   -0.0330    1.4950 ca        1 N5T     -0.061800
      4 C4          1.1940   -1.0930    2.0710 ca        1 N5T      0.109900
      5 C5         -0.2140   -1.0680    2.0790 ca        1 N5T     -0.126000
      6 C6         -0.9010   -0.0030    1.5190 ca        1 N5T     -0.119000
      7 C10         3.3800   -0.0060    1.4650 ce        1 N5T     -0.062400
      8 C11         4.2150   -1.1540    2.0150 c3        1 N5T      0.101200
      9 N12         5.6040   -0.7600    1.7740 n         1 N5T     -0.434800
     10 C13         5.6590    0.5930    1.1360 c3        1 N5T      0.196200
     11 C14         4.1940    0.9620    0.9850 c2        1 N5T     -0.148200
     12 C17         6.4320    1.5890    1.9450 ca        1 N5T     -0.143300
     13 C19         7.7980    1.7620    1.6880 ca        1 N5T     -0.101500
     14 C20         8.5260    2.7120    2.4010 ca        1 N5T     -0.128500
     15 C21         7.8980    3.4880    3.3760 ca        1 N5T     -0.095000
     16 C22         6.5390    3.3110    3.6400 ca        1 N5T     -0.128500
     17 C23         5.8060    2.3620    2.9290 ca        1 N5T     -0.101500
     18 C29         6.6630   -1.6060    1.7030 c         1 N5T      0.649100
     19 N30         6.5180   -2.9970    2.3810 nx        1 N5T     -0.578200
     20 C31         7.6110   -3.1630    3.3710 c3        1 N5T      0.086600
     21 C35         6.5710   -4.0430    1.3310 c3        1 N5T      0.086600
     22 O39         7.7800   -1.3990    1.2120 o         1 N5T     -0.506100
     23 F40         1.8190   -2.1600    2.6310 f         1 N5T     -0.155900
     24 F41        -0.8350    2.1030    0.3880 f         1 N5T     -0.116900
     25 H2          1.7660    1.8810    0.4700 ha        1 N5T      0.160000
     26 H5         -0.7630   -1.9070    2.5380 ha        1 N5T      0.168000
     27 H6         -2.0030    0.0240    1.5220 ha        1 N5T      0.174000
     28 H111        3.9580   -2.1110    1.4800 h1        1 N5T      0.075700
     29 H112        4.0340   -1.2780    3.1190 h1        1 N5T      0.075700
     30 H13         6.1420    0.4840    0.1170 h1        1 N5T      0.097700
     31 H14         3.9330    1.9190    0.5290 ha        1 N5T      0.187000
     32 H19         8.2960    1.1450    0.9230 ha        1 N5T      0.141500
     33 H20         9.5980    2.8520    2.1900 ha        1 N5T      0.149500
     34 H21         8.4740    4.2430    3.9350 ha        1 N5T      0.151000
     35 H22         6.0430    3.9240    4.4080 ha        1 N5T      0.149500
     36 H23         4.7330    2.2310    3.1360 ha        1 N5T      0.141500
     37 H311        7.5090   -2.3750    4.1660 hx        1 N5T      0.108700
     38 H312        7.5430   -4.1840    3.8310 hx        1 N5T      0.108700
     39 H313        8.6020   -3.0420    2.8540 hx        1 N5T      0.108700
     40 H351        6.5380   -5.0580    1.8120 hx        1 N5T      0.108700
     41 H352        7.5260   -3.9330    0.7470 hx        1 N5T      0.108700
     42 H353        5.6920   -3.9200    0.6430 hx        1 N5T      0.108700
     43 H301        5.6200   -3.0670    2.8730 hn        1 N5T      0.447800
@<TRIPOS>BOND
     1    1    2 ar  
     2    1    6 ar  
     3    1   24 1   
     4    2    3 ar  
     5    2   25 1   
     6    3    4 ar  
     7    3    7 1   
     8    4    5 ar  
     9    4   23 1   
    10    5    6 ar  
    11    5   26 1   
    12    6   27 1   
    13    7    8 1   
    14    7   11 2   
    15    8    9 1   
    16    8   28 1   
    17    8   29 1   
    18    9   10 1   
    19    9   18 1   
    20   10   11 1   
    21   10   12 1   
    22   10   30 1   
    23   11   31 1   
    24   12   13 ar  
    25   12   17 ar  
    26   13   14 ar  
    27   13   32 1   
    28   14   15 ar  
    29   14   33 1   
    30   15   16 ar  
    31   15   34 1   
    32   16   17 ar  
    33   16   35 1   
    34   17   36 1   
    35   18   19 1   
    36   18   22 2   
    37   19   20 1   
    38   19   21 1   
    39   19   43 1   
    40   20   37 1   
    41   20   38 1   
    42   20   39 1   
    43   21   40 1   
    44   21   41 1   
    45   21   42 1   
@<TRIPOS>SUBSTRUCTURE
     1 N5T         1 TEMP              0 ****  ****    0 ROOT
