@<TRIPOS>MOLECULE
N5T
   43    45     1     0     0
SMALL
bcc


@<TRIPOS>ATOM
      1 C1         -0.1710    1.0730    0.9420 ca        1 N5T      0.134900
      2 C2          1.2320    1.0460    0.9310 ca        1 N5T     -0.132000
      3 C3          1.9360   -0.0250    1.5000 ca        1 N5T     -0.061800
      4 C4          1.1900   -1.0790    2.0840 ca        1 N5T      0.109900
      5 C5         -0.2170   -1.0470    2.0930 ca        1 N5T     -0.126000
      6 C6         -0.9000    0.0190    1.5280 ca        1 N5T     -0.119000
      7 C10         3.3810   -0.0060    1.4690 ce        1 N5T     -0.062400
      8 C11         4.2110   -1.1550    2.0240 c3        1 N5T      0.101200
      9 N12         5.6020   -0.7690    1.7800 n         1 N5T     -0.434800
     10 C13         5.6620    0.5800    1.1330 c3        1 N5T      0.196200
     11 C14         4.2000    0.9550    0.9810 c2        1 N5T     -0.148200
     12 C17         6.4410    1.5770    1.9360 ca        1 N5T     -0.143300
     13 C19         7.8080    1.7420    1.6750 ca        1 N5T     -0.101500
     14 C20         8.5410    2.6920    2.3820 ca        1 N5T     -0.128500
     15 C21         7.9180    3.4780    3.3530 ca        1 N5T     -0.095000
     16 C22         6.5590    3.3090    3.6200 ca        1 N5T     -0.128500
     17 C23         5.8210    2.3590    2.9150 ca        1 N5T     -0.101500
     18 C29         6.6570   -1.6210    1.7130 c         1 N5T      0.649100
     19 N30         6.5050   -3.0060    2.3990 n4        1 N5T     -0.578200
     20 C31         7.5980   -3.1710    3.3910 c3        1 N5T      0.086600
     21 C35         6.5540   -4.0600    1.3570 c3        1 N5T      0.086600
     22 O39         7.7740   -1.4210    1.2190 o         1 N5T     -0.506100
     23 F40         1.8110   -2.1460    2.6480 f         1 N5T     -0.155900
     24 F41        -0.8250    2.1170    0.3850 f         1 N5T     -0.116900
     25 H2          1.7750    1.8830    0.4650 ha        1 N5T      0.160000
     26 H5         -0.7700   -1.8800    2.5570 ha        1 N5T      0.168000
     27 H6         -2.0010    0.0500    1.5320 ha        1 N5T      0.174000
     28 H111        3.9490   -2.1140    1.4950 h1        1 N5T      0.075700
     29 H112        4.0310   -1.2710    3.1300 h1        1 N5T      0.075700
     30 H13         6.1440    0.4620    0.1150 h1        1 N5T      0.097700
     31 H14         3.9420    1.9100    0.5200 ha        1 N5T      0.187000
     32 H19         8.3020    1.1170    0.9140 ha        1 N5T      0.141500
     33 H20         9.6130    2.8260    2.1690 ha        1 N5T      0.149500
     34 H21         8.4990    4.2330    3.9060 ha        1 N5T      0.151000
     35 H22         6.0660    3.9290    4.3850 ha        1 N5T      0.149500
     36 H23         4.7470    2.2340    3.1240 ha        1 N5T      0.141500
     37 H311        7.5000   -2.3780    4.1800 hx        1 N5T      0.108700
     38 H312        8.5900   -3.0580    2.8730 hx        1 N5T      0.108700
     39 H313        7.5260   -4.1890    3.8570 hx        1 N5T      0.108700
     40 H351        7.5090   -3.9570    0.7710 hx        1 N5T      0.108700
     41 H352        6.5170   -5.0710    1.8430 hx        1 N5T      0.108700
     42 H353        5.6760   -3.9370    0.6670 hx        1 N5T      0.108700
     43 H301        5.6070   -3.0690    2.8920 hn        1 N5T      0.447800
@<TRIPOS>BOND
     1    1    2 ar  
     2    1    6 ar  
     3    1   24 1   
     4    2    3 ar  
     5    2   25 1   
     6    3    4 ar  
     7    3    7 1   
     8    4    5 ar  
     9    4   23 1   
    10    5    6 ar  
    11    5   26 1   
    12    6   27 1   
    13    7    8 1   
    14    7   11 2   
    15    8    9 1   
    16    8   28 1   
    17    8   29 1   
    18    9   10 1   
    19    9   18 1   
    20   10   11 1   
    21   10   12 1   
    22   10   30 1   
    23   11   31 1   
    24   12   13 ar  
    25   12   17 ar  
    26   13   14 ar  
    27   13   32 1   
    28   14   15 ar  
    29   14   33 1   
    30   15   16 ar  
    31   15   34 1   
    32   16   17 ar  
    33   16   35 1   
    34   17   36 1   
    35   18   19 1   
    36   18   22 2   
    37   19   20 1   
    38   19   21 1   
    39   19   43 1   
    40   20   37 1   
    41   20   38 1   
    42   20   39 1   
    43   21   40 1   
    44   21   41 1   
    45   21   42 1   
@<TRIPOS>SUBSTRUCTURE
     1 N5T         1 TEMP              0 ****  ****    0 ROOT
