@<TRIPOS>MOLECULE
N5T
   42    44     1     0     0
SMALL
bcc


@<TRIPOS>ATOM
      1 C1         -4.6560    0.6010   -0.8050 ca        1 N5T      0.114900
      2 C2         -3.2620    0.5580   -0.9600 ca        1 N5T     -0.138000
      3 C3         -2.4450    0.0340    0.0520 ca        1 N5T     -0.038800
      4 C4         -3.0590   -0.4480    1.2320 ca        1 N5T      0.119900
      5 C5         -4.4600   -0.4010    1.3810 ca        1 N5T     -0.141000
      6 C6         -5.2570    0.1170    0.3720 ca        1 N5T     -0.138000
      7 C10        -1.0140    0.0160   -0.1520 ce        1 N5T     -0.099400
      8 C11        -0.1220   -1.1030    0.3610 c3        1 N5T      0.101200
      9 N12         1.2390   -0.7740   -0.0790 n         1 N5T     -0.422800
     10 C13         1.1900    0.4940   -0.8560 c3        1 N5T      0.149200
     11 C14        -0.2670    0.9200   -0.8240 c2        1 N5T     -0.149200
     12 C17         2.1170    1.5380   -0.2970 ca        1 N5T     -0.082300
     13 C19         3.4700    1.4920   -0.6570 ca        1 N5T     -0.111000
     14 C20         4.3520    2.4590   -0.1780 ca        1 N5T     -0.136000
     15 C21         3.8920    3.4710    0.6650 ca        1 N5T     -0.125000
     16 C22         2.5470    3.5110    1.0330 ca        1 N5T     -0.136000
     17 C23         1.6610    2.5450    0.5570 ca        1 N5T     -0.111000
     18 C29         2.0730   -1.7980   -0.6060 c         1 N5T      0.740100
     19 N30         2.0990   -3.0740    0.0010 n         1 N5T     -0.451800
     20 C31         3.0710   -4.0070   -0.5120 c3        1 N5T      0.070300
     21 C35         1.7510   -3.2210    1.3900 c3        1 N5T      0.070300
     22 O39         2.8070   -1.5630   -1.5980 o         1 N5T     -0.638100
     23 F40        -2.3220   -0.9560    2.2480 f         1 N5T     -0.135900
     24 F41        -5.4270    1.1100   -1.7960 f         1 N5T     -0.134900
     25 H2         -2.8070    0.9360   -1.8880 ha        1 N5T      0.158000
     26 H5         -4.9120   -0.7800    2.3100 ha        1 N5T      0.156000
     27 H6         -6.3510    0.1550    0.4830 ha        1 N5T      0.157000
     28 H111       -0.4800   -2.0930   -0.0340 h1        1 N5T      0.071200
     29 H112       -0.1310   -1.1330    1.4870 h1        1 N5T      0.071200
     30 H13         1.4930    0.3010   -1.9330 h1        1 N5T      0.094700
     31 H14        -0.5830    1.8430   -1.3110 ha        1 N5T      0.159000
     32 H19         3.8270    0.6820   -1.3150 ha        1 N5T      0.145000
     33 H20         5.4130    2.4210   -0.4640 ha        1 N5T      0.131000
     34 H21         4.5880    4.2340    1.0410 ha        1 N5T      0.130000
     35 H22         2.1830    4.3050    1.7020 ha        1 N5T      0.131000
     36 H23         0.6030    2.5760    0.8580 ha        1 N5T      0.145000
     37 H311        3.1770   -3.8740   -1.6220 h1        1 N5T      0.045033
     38 H312        4.0790   -3.8640   -0.0370 h1        1 N5T      0.045033
     39 H313        2.7090   -5.0470   -0.2970 h1        1 N5T      0.045033
     40 H351        2.0610   -2.3330    2.0040 h1        1 N5T      0.045033
     41 H352        0.6390   -3.3510    1.4820 h1        1 N5T      0.045033
     42 H353        2.2490   -4.1330    1.8170 h1        1 N5T      0.045033
@<TRIPOS>BOND
     1    1    2 ar  
     2    1    6 ar  
     3    1   24 1   
     4    2    3 ar  
     5    2   25 1   
     6    3    4 ar  
     7    3    7 1   
     8    4    5 ar  
     9    4   23 1   
    10    5    6 ar  
    11    5   26 1   
    12    6   27 1   
    13    7    8 1   
    14    7   11 2   
    15    8    9 1   
    16    8   28 1   
    17    8   29 1   
    18    9   10 1   
    19    9   18 1   
    20   10   11 1   
    21   10   12 1   
    22   10   30 1   
    23   11   31 1   
    24   12   13 ar  
    25   12   17 ar  
    26   13   14 ar  
    27   13   32 1   
    28   14   15 ar  
    29   14   33 1   
    30   15   16 ar  
    31   15   34 1   
    32   16   17 ar  
    33   16   35 1   
    34   17   36 1   
    35   18   19 1   
    36   18   22 2   
    37   19   20 1   
    38   19   21 1   
    39   20   37 1   
    40   20   38 1   
    41   20   39 1   
    42   21   40 1   
    43   21   41 1   
    44   21   42 1   
@<TRIPOS>SUBSTRUCTURE
     1 N5T         1 TEMP              0 ****  ****    0 ROOT
