@<TRIPOS>MOLECULE
N5T
   43    45     1     0     0
SMALL
bcc


@<TRIPOS>ATOM
      1 C1         -0.1880    1.0370    0.9730 ca        1 N5T      0.134900
      2 C2          1.2150    1.0170    0.9490 ca        1 N5T     -0.132000
      3 C3          1.9310   -0.0430    1.5250 ca        1 N5T     -0.061800
      4 C4          1.1970   -1.0920    2.1290 ca        1 N5T      0.109900
      5 C5         -0.2110   -1.0680    2.1520 ca        1 N5T     -0.126000
      6 C6         -0.9050   -0.0130    1.5800 ca        1 N5T     -0.119000
      7 C10         3.3750   -0.0160    1.4790 ce        1 N5T     -0.062400
      8 C11         4.2170   -1.1550    2.0370 c3        1 N5T      0.101200
      9 N12         5.6040   -0.7640    1.7740 n         1 N5T     -0.434800
     10 C13         5.6500    0.5780    1.1140 c3        1 N5T      0.196200
     11 C14         4.1840    0.9440    0.9730 c2        1 N5T     -0.148200
     12 C17         6.4320    1.5870    1.8980 ca        1 N5T     -0.143300
     13 C19         7.7950    1.7560    1.6220 ca        1 N5T     -0.101500
     14 C20         8.5300    2.7180    2.3120 ca        1 N5T     -0.128500
     15 C21         7.9130    3.5100    3.2810 ca        1 N5T     -0.095000
     16 C22         6.5580    3.3370    3.5630 ca        1 N5T     -0.128500
     17 C23         5.8170    2.3760    2.8760 ca        1 N5T     -0.101500
     18 C29         6.6620   -1.6110    1.7040 c         1 N5T      0.649100
     19 N30         6.5240   -2.9910    2.4060 n4        1 N5T     -0.578200
     20 C31         7.6300   -3.1420    3.3850 c3        1 N5T      0.086600
     21 C35         6.5620   -4.0540    1.3730 c3        1 N5T      0.086600
     22 O39         7.7720   -1.4110    1.1980 o         1 N5T     -0.506100
     23 F40         1.8290   -2.1490    2.7010 f         1 N5T     -0.155900
     24 F41        -0.8530    2.0710    0.4100 f         1 N5T     -0.116900
     25 H2          1.7490    1.8520    0.4670 ha        1 N5T      0.160000
     26 H5         -0.7540   -1.8980    2.6320 ha        1 N5T      0.168000
     27 H6         -2.0060    0.0120    1.5950 ha        1 N5T      0.174000
     28 H111        4.0490   -1.2600    3.1460 h1        1 N5T      0.075700
     29 H112        3.9550   -2.1200    1.5210 h1        1 N5T      0.075700
     30 H13         6.1210    0.4530    0.0910 h1        1 N5T      0.097700
     31 H14         3.9160    1.8940    0.5050 ha        1 N5T      0.187000
     32 H19         8.2840    1.1270    0.8620 ha        1 N5T      0.141500
     33 H20         9.6000    2.8550    2.0870 ha        1 N5T      0.149500
     34 H21         8.4950    4.2730    3.8210 ha        1 N5T      0.151000
     35 H22         6.0690    3.9620    4.3270 ha        1 N5T      0.149500
     36 H23         4.7460    2.2480    3.0970 ha        1 N5T      0.141500
     37 H311        7.5680   -4.1560    3.8610 hx        1 N5T      0.108700
     38 H312        7.5400   -2.3420    4.1680 hx        1 N5T      0.108700
     39 H313        8.6150   -3.0310    2.8530 hx        1 N5T      0.108700
     40 H351        7.5090   -3.9540    0.7740 hx        1 N5T      0.108700
     41 H352        5.6750   -3.9410    0.6950 hx        1 N5T      0.108700
     42 H353        6.5350   -5.0610    1.8700 hx        1 N5T      0.108700
     43 H301        5.6330   -3.0520    2.9120 hn        1 N5T      0.447800
@<TRIPOS>BOND
     1    1    2 ar  
     2    1    6 ar  
     3    1   24 1   
     4    2    3 ar  
     5    2   25 1   
     6    3    4 ar  
     7    3    7 1   
     8    4    5 ar  
     9    4   23 1   
    10    5    6 ar  
    11    5   26 1   
    12    6   27 1   
    13    7    8 1   
    14    7   11 2   
    15    8    9 1   
    16    8   28 1   
    17    8   29 1   
    18    9   10 1   
    19    9   18 1   
    20   10   11 1   
    21   10   12 1   
    22   10   30 1   
    23   11   31 1   
    24   12   13 ar  
    25   12   17 ar  
    26   13   14 ar  
    27   13   32 1   
    28   14   15 ar  
    29   14   33 1   
    30   15   16 ar  
    31   15   34 1   
    32   16   17 ar  
    33   16   35 1   
    34   17   36 1   
    35   18   19 1   
    36   18   22 2   
    37   19   20 1   
    38   19   21 1   
    39   19   43 1   
    40   20   37 1   
    41   20   38 1   
    42   20   39 1   
    43   21   40 1   
    44   21   41 1   
    45   21   42 1   
@<TRIPOS>SUBSTRUCTURE
     1 N5T         1 TEMP              0 ****  ****    0 ROOT
