@<TRIPOS>MOLECULE
N5Y
   44    46     1     0     0
SMALL
bcc


@<TRIPOS>ATOM
      1 CAY        -4.1750    0.1380    0.1030 ca        1 N5Y     -0.119500
      2 CAZ        -5.2390    0.3090    0.9870 ca        1 N5Y     -0.127500
      3 CBA        -5.4680   -0.6270    1.9960 ca        1 N5Y     -0.117000
      4 CAX        -4.6330   -1.7380    2.1190 ca        1 N5Y     -0.127500
      5 CAW        -3.5640   -1.9100    1.2410 ca        1 N5Y     -0.119500
      6 CAV        -3.3290   -0.9700    0.2320 ca        1 N5Y     -0.132300
      7 CAU        -2.2120   -1.1790   -0.7490 c3        1 N5Y      0.130300
      8 NAN        -1.2230   -0.1150   -0.7830 n         1 N5Y     -0.389000
      9 CAO        -0.2770    0.0470    0.2490 cc        1 N5Y      0.356600
     10 NAP        -0.3380   -0.7930    1.3530 nh        1 N5Y     -0.843600
     11 CAM        -1.2400    0.7720   -1.8930 c         1 N5Y      0.817500
     12 OAL        -2.1530    0.6990   -2.7460 o         1 N5Y     -0.645500
     13 NAD        -0.2240    1.7160   -2.0180 n         1 N5Y     -0.580500
     14 CAE         0.8110    1.8600   -1.0790 c         1 N5Y      0.725700
     15 OAA         1.6890    2.7110   -1.3150 o         1 N5Y     -0.627500
     16 CAF         0.7500    1.0040    0.1150 cd        1 N5Y     -0.264600
     17 NAG         1.6930    1.2080    1.1480 n         1 N5Y     -0.360000
     18 OAC         3.7600    0.7890    2.0360 o         1 N5Y     -0.583100
     19 CA0         2.9250    0.5370    1.1460 c         1 N5Y      0.675700
     20 CAT         3.1810   -0.5210    0.1290 ca        1 N5Y     -0.125600
     21 CAS         3.3000   -1.8530    0.5390 ca        1 N5Y     -0.095000
     22 CAR         3.6010   -2.8410   -0.3970 ca        1 N5Y     -0.137500
     23 CAI         3.7950   -2.5010   -1.7360 ca        1 N5Y     -0.116000
     24 CAJ         3.6870   -1.1700   -2.1410 ca        1 N5Y     -0.137500
     25 CAA         1.5690    2.4510    1.8740 c3        1 N5Y      0.068300
     26 CAK         3.3780   -0.1770   -1.2120 ca        1 N5Y     -0.095000
     27 HAW        -2.9180   -2.7960    1.3330 ha        1 N5Y      0.142000
     28 HAX        -4.8190   -2.4810    2.9080 ha        1 N5Y      0.138500
     29 HBA        -6.3100   -0.4920    2.6910 ha        1 N5Y      0.138000
     30 HAZ        -5.9010    1.1820    0.8830 ha        1 N5Y      0.138500
     31 HAY        -3.9990    0.8630   -0.7080 ha        1 N5Y      0.142000
     32 HAU1       -1.6810   -2.1520   -0.5340 h1        1 N5Y      0.089200
     33 HAU2       -2.6670   -1.2630   -1.7840 h1        1 N5Y      0.089200
     34 HAP1       -1.2100   -1.2110    1.5880 hn        1 N5Y      0.438800
     35 HAP2        0.2510   -0.5590    2.1190 hn        1 N5Y      0.438800
     36 HAD        -0.2410    2.3020   -2.8270 hn        1 N5Y      0.356500
     37 HAA1        0.5570    2.4890    2.3570 h1        1 N5Y      0.052033
     38 HAA2        2.3620    2.5060    2.6650 h1        1 N5Y      0.052033
     39 HAA3        1.6770    3.3280    1.1790 h1        1 N5Y      0.052033
     40 HAI         4.0380   -3.2810   -2.4720 ha        1 N5Y      0.133000
     41 HAJ         3.8480   -0.9000   -3.1950 ha        1 N5Y      0.135500
     42 HAR         3.6940   -3.8890   -0.0760 ha        1 N5Y      0.135500
     43 HAK         3.2910    0.8760   -1.5280 ha        1 N5Y      0.148500
     44 HAS         3.1690   -2.1130    1.6000 ha        1 N5Y      0.148500
@<TRIPOS>BOND
     1    1    2 ar  
     2    1    6 ar  
     3    1   31 1   
     4    2    3 ar  
     5    2   30 1   
     6    3    4 ar  
     7    3   29 1   
     8    4    5 ar  
     9    4   28 1   
    10    5    6 ar  
    11    5   27 1   
    12    6    7 1   
    13    7    8 1   
    14    7   32 1   
    15    7   33 1   
    16    8    9 1   
    17    8   11 1   
    18    9   10 1   
    19    9   16 2   
    20   10   34 1   
    21   10   35 1   
    22   11   12 2   
    23   11   13 1   
    24   13   14 1   
    25   13   36 1   
    26   14   15 2   
    27   14   16 1   
    28   16   17 1   
    29   17   19 1   
    30   17   25 1   
    31   18   19 2   
    32   19   20 1   
    33   20   21 ar  
    34   20   26 ar  
    35   21   22 ar  
    36   21   44 1   
    37   22   23 ar  
    38   22   42 1   
    39   23   24 ar  
    40   23   40 1   
    41   24   26 ar  
    42   24   41 1   
    43   25   37 1   
    44   25   38 1   
    45   25   39 1   
    46   26   43 1   
@<TRIPOS>SUBSTRUCTURE
     1 N5Y         1 TEMP              0 ****  ****    0 ROOT
