@<TRIPOS>MOLECULE
N5Y
   46    48     1     0     0
SMALL
bcc


@<TRIPOS>ATOM
      1 CAY         0.6150   -0.6600    1.1560 ca        1 N5Y     -0.139500
      2 CAZ         1.5360   -0.0700    2.0230 ca        1 N5Y     -0.109500
      3 CBA         1.2120    1.1120    2.6900 ca        1 N5Y     -0.077000
      4 CAX        -0.0400    1.7040    2.4950 ca        1 N5Y     -0.109500
      5 CAW        -0.9650    1.1150    1.6370 ca        1 N5Y     -0.139500
      6 CAV        -0.6410   -0.0740    0.9640 ca        1 N5Y     -0.223300
      7 CAU        -1.5750   -0.6090   -0.0740 c3        1 N5Y      0.095300
      8 NAN        -2.1330   -1.9340    0.2250 n         1 N5Y     -0.351000
      9 CAO        -2.7390   -2.2310    1.4250 cc        1 N5Y      0.241600
     10 NAP        -2.7830   -1.1380    2.4360 nz        1 N5Y     -0.768400
     11 CAM        -2.0480   -2.9460   -0.8190 c         1 N5Y      0.817500
     12 OAL        -1.4240   -2.6910   -1.8510 o         1 N5Y     -0.489500
     13 NAD        -2.6910   -4.1620   -0.5950 ns        1 N5Y     -0.553500
     14 CAE        -3.3640   -4.4860    0.5790 c         1 N5Y      0.737700
     15 OAA        -3.9890   -5.5470    0.6620 o         1 N5Y     -0.519500
     16 CAF        -3.2800   -3.4890    1.7010 cd        1 N5Y     -0.217200
     17 NAG        -3.7980   -3.8880    3.0020 nx        1 N5Y     -0.457000
     18 OAC        -6.1100   -3.9780    2.5580 o         1 N5Y     -0.339100
     19 CA0        -5.2600   -3.3770    3.1840 c         1 N5Y      0.557700
     20 CAT        -5.4040   -2.2190    4.0670 ca        1 N5Y     -0.265600
     21 CAS        -4.6330   -2.0400    5.2320 ca        1 N5Y     -0.094500
     22 CAR        -4.9290   -0.9950    6.1000 ca        1 N5Y     -0.115000
     23 CAI        -5.9970   -0.1280    5.8280 ca        1 N5Y     -0.038000
     24 CAJ        -6.7690   -0.3110    4.6810 ca        1 N5Y     -0.115000
     25 CAA        -3.7480   -5.3590    3.2700 c3        1 N5Y      0.089100
     26 CAK        -6.4870   -1.3590    3.8050 ca        1 N5Y     -0.094500
     27 HAW        -1.9100    1.6400    1.4200 ha        1 N5Y      0.148000
     28 HAX        -0.2800    2.6580    2.9950 ha        1 N5Y      0.174500
     29 HBA         1.9520    1.5950    3.3520 ha        1 N5Y      0.179000
     30 HAZ         2.5340   -0.5230    2.1550 ha        1 N5Y      0.174500
     31 HAY         0.8970   -1.5660    0.5940 ha        1 N5Y      0.148000
     32 HAU1       -1.0060   -0.6910   -1.0570 h1        1 N5Y      0.126200
     33 HAU2       -2.4390    0.0980   -0.2500 h1        1 N5Y      0.126200
     34 HAP1       -3.4630   -1.3280    3.1870 hn        1 N5Y      0.494133
     35 HAP2       -1.8290   -0.9920    2.8250 hn        1 N5Y      0.494133
     36 HAD        -2.6960   -4.8260   -1.3560 hn        1 N5Y      0.413500
     37 HAA1       -2.7750   -5.7860    2.9060 hx        1 N5Y      0.129033
     38 HAA2       -4.5990   -5.8800    2.7420 hx        1 N5Y      0.129033
     39 HAA3       -3.8500   -5.5030    4.3810 hx        1 N5Y      0.129033
     40 HAI        -6.2410    0.6830    6.5390 ha        1 N5Y      0.192000
     41 HAJ        -7.6280    0.3540    4.4780 ha        1 N5Y      0.188500
     42 HAR        -4.3430   -0.8670    7.0280 ha        1 N5Y      0.188500
     43 HAK        -7.1310   -1.5330    2.9240 ha        1 N5Y      0.161000
     44 HAS        -3.8540   -2.7590    5.5300 ha        1 N5Y      0.161000
     45 HAP3       -3.0510   -0.2460    1.9750 hn        1 N5Y      0.494133
     46 HAG1       -3.2070   -3.4590    3.7240 hn        1 N5Y      0.425800
@<TRIPOS>BOND
     1    1    2 ar  
     2    1    6 ar  
     3    1   31 1   
     4    2    3 ar  
     5    2   30 1   
     6    3    4 ar  
     7    3   29 1   
     8    4    5 ar  
     9    4   28 1   
    10    5    6 ar  
    11    5   27 1   
    12    6    7 1   
    13    7    8 1   
    14    7   32 1   
    15    7   33 1   
    16    8    9 1   
    17    8   11 1   
    18    9   10 1   
    19    9   16 2   
    20   10   34 1   
    21   10   35 1   
    22   10   45 1   
    23   11   12 2   
    24   11   13 1   
    25   13   14 1   
    26   13   36 1   
    27   14   15 2   
    28   14   16 1   
    29   16   17 1   
    30   17   19 1   
    31   17   25 1   
    32   17   46 1   
    33   18   19 2   
    34   19   20 1   
    35   20   21 ar  
    36   20   26 ar  
    37   21   22 ar  
    38   21   44 1   
    39   22   23 ar  
    40   22   42 1   
    41   23   24 ar  
    42   23   40 1   
    43   24   26 ar  
    44   24   41 1   
    45   25   37 1   
    46   25   38 1   
    47   25   39 1   
    48   26   43 1   
@<TRIPOS>SUBSTRUCTURE
     1 N5Y         1 TEMP              0 ****  ****    0 ROOT
