@<TRIPOS>MOLECULE
N5Y
   46    48     1     0     0
SMALL
bcc


@<TRIPOS>ATOM
      1 CAY         0.6250   -0.6930    1.1570 ca        1 N5Y     -0.139500
      2 CAZ         1.5500   -0.1060    2.0240 ca        1 N5Y     -0.109500
      3 CBA         1.2340    1.0800    2.6860 ca        1 N5Y     -0.077000
      4 CAX        -0.0130    1.6820    2.4850 ca        1 N5Y     -0.109500
      5 CAW        -0.9420    1.0970    1.6280 ca        1 N5Y     -0.139500
      6 CAV        -0.6260   -0.0980    0.9600 ca        1 N5Y     -0.223300
      7 CAU        -1.5620   -0.6300   -0.0770 c3        1 N5Y      0.095300
      8 NAN        -2.1310   -1.9490    0.2260 n         1 N5Y     -0.351000
      9 CAO        -2.7420   -2.2360    1.4260 cc        1 N5Y      0.241600
     10 NAP        -2.7790   -1.1390    2.4330 n4        1 N5Y     -0.768400
     11 CAM        -2.0530   -2.9660   -0.8130 c         1 N5Y      0.817500
     12 OAL        -1.4250   -2.7190   -1.8460 o         1 N5Y     -0.489500
     13 NAD        -2.7070   -4.1750   -0.5860 n         1 N5Y     -0.553500
     14 CAE        -3.3840   -4.4890    0.5880 c         1 N5Y      0.737700
     15 OAA        -4.0190   -5.5440    0.6740 o         1 N5Y     -0.519500
     16 CAF        -3.2930   -3.4890    1.7060 cd        1 N5Y     -0.217200
     17 NAG        -3.8170   -3.8780    3.0080 n4        1 N5Y     -0.457000
     18 OAC        -6.1290   -3.9480    2.5600 o         1 N5Y     -0.339100
     19 CA0        -5.2740   -3.3540    3.1860 c         1 N5Y      0.557700
     20 CAT        -5.4090   -2.1920    4.0660 ca        1 N5Y     -0.266600
     21 CAS        -4.6390   -2.0170    5.2320 ca        1 N5Y     -0.094000
     22 CAR        -4.9260   -0.9670    6.0960 ca        1 N5Y     -0.115000
     23 CAI        -5.9860   -0.0910    5.8210 ca        1 N5Y     -0.037000
     24 CAJ        -6.7580   -0.2700    4.6730 ca        1 N5Y     -0.115000
     25 CAA        -3.7800   -5.3490    3.2820 c3        1 N5Y      0.089100
     26 CAK        -6.4840   -1.3230    3.8000 ca        1 N5Y     -0.094000
     27 HAW        -1.8820    1.6280    1.4080 ha        1 N5Y      0.148000
     28 HAX        -0.2460    2.6390    2.9810 ha        1 N5Y      0.174500
     29 HBA         1.9760    1.5600    3.3470 ha        1 N5Y      0.179000
     30 HAZ         2.5430   -0.5680    2.1590 ha        1 N5Y      0.174500
     31 HAY         0.9010   -1.6030    0.5990 ha        1 N5Y      0.148000
     32 HAU1       -0.9920   -0.7200   -1.0580 h1        1 N5Y      0.126200
     33 HAU2       -2.4200    0.0840   -0.2570 h1        1 N5Y      0.126200
     34 HAP1       -3.4610   -1.3200    3.1840 hn        1 N5Y      0.494133
     35 HAP2       -1.8250   -0.9990    2.8230 hn        1 N5Y      0.494133
     36 HAD        -2.7160   -4.8420   -1.3440 hn        1 N5Y      0.413500
     37 HAA1       -2.8110   -5.7850    2.9210 hx        1 N5Y      0.129367
     38 HAA2       -4.6360   -5.8640    2.7540 hx        1 N5Y      0.129367
     39 HAA3       -3.8860   -5.4880    4.3920 hx        1 N5Y      0.129367
     40 HAI        -6.2240    0.7250    6.5290 ha        1 N5Y      0.192000
     41 HAJ        -7.6110    0.4020    4.4670 ha        1 N5Y      0.188500
     42 HAR        -4.3410   -0.8410    7.0250 ha        1 N5Y      0.188500
     43 HAK        -7.1290   -1.4930    2.9190 ha        1 N5Y      0.161000
     44 HAS        -3.8660   -2.7420    5.5320 ha        1 N5Y      0.161000
     45 HAP3       -3.0390   -0.2470    1.9680 hn        1 N5Y      0.494133
     46 HAG1       -3.2240   -3.4520    3.7290 hn        1 N5Y      0.425800
@<TRIPOS>BOND
     1    1    2 ar  
     2    1    6 ar  
     3    1   31 1   
     4    2    3 ar  
     5    2   30 1   
     6    3    4 ar  
     7    3   29 1   
     8    4    5 ar  
     9    4   28 1   
    10    5    6 ar  
    11    5   27 1   
    12    6    7 1   
    13    7    8 1   
    14    7   32 1   
    15    7   33 1   
    16    8    9 1   
    17    8   11 1   
    18    9   10 1   
    19    9   16 2   
    20   10   34 1   
    21   10   35 1   
    22   10   45 1   
    23   11   12 2   
    24   11   13 1   
    25   13   14 1   
    26   13   36 1   
    27   14   15 2   
    28   14   16 1   
    29   16   17 1   
    30   17   19 1   
    31   17   25 1   
    32   17   46 1   
    33   18   19 2   
    34   19   20 1   
    35   20   21 ar  
    36   20   26 ar  
    37   21   22 ar  
    38   21   44 1   
    39   22   23 ar  
    40   22   42 1   
    41   23   24 ar  
    42   23   40 1   
    43   24   26 ar  
    44   24   41 1   
    45   25   37 1   
    46   25   38 1   
    47   25   39 1   
    48   26   43 1   
@<TRIPOS>SUBSTRUCTURE
     1 N5Y         1 TEMP              0 ****  ****    0 ROOT
