@<TRIPOS>MOLECULE
N5Y
   46    48     1     0     0
SMALL
bcc


@<TRIPOS>ATOM
      1 CAY         0.6060   -0.6540    1.1370 ca        1 N5Y     -0.139500
      2 CAZ         1.5260   -0.0510    1.9970 ca        1 N5Y     -0.109500
      3 CBA         1.1970    1.1350    2.6530 ca        1 N5Y     -0.077000
      4 CAX        -0.0590    1.7200    2.4540 ca        1 N5Y     -0.109500
      5 CAW        -0.9830    1.1180    1.6050 ca        1 N5Y     -0.139500
      6 CAV        -0.6540   -0.0760    0.9420 ca        1 N5Y     -0.223300
      7 CAU        -1.5870   -0.6260   -0.0890 c3        1 N5Y      0.095300
      8 NAN        -2.1380   -1.9510    0.2240 n         1 N5Y     -0.351000
      9 CAO        -2.7400   -2.2400    1.4280 cc        1 N5Y      0.241600
     10 NAP        -2.7870   -1.1380    2.4290 n4        1 N5Y     -0.768400
     11 CAM        -2.0510   -2.9720   -0.8110 c         1 N5Y      0.817500
     12 OAL        -1.4300   -2.7230   -1.8470 o         1 N5Y     -0.489500
     13 NAD        -2.6870   -4.1890   -0.5740 n         1 N5Y     -0.553500
     14 CAE        -3.3560   -4.5060    0.6040 c         1 N5Y      0.737700
     15 OAA        -3.9760   -5.5680    0.6980 o         1 N5Y     -0.519500
     16 CAF        -3.2730   -3.4980    1.7160 cd        1 N5Y     -0.217200
     17 NAG        -3.7870   -3.8880    3.0230 n4        1 N5Y     -0.457000
     18 OAC        -6.0990   -3.9890    2.5850 o         1 N5Y     -0.339100
     19 CA0        -5.2490   -3.3810    3.2050 c         1 N5Y      0.557700
     20 CAT        -5.3950   -2.2170    4.0800 ca        1 N5Y     -0.266600
     21 CAS        -4.6220   -2.0260    5.2410 ca        1 N5Y     -0.094000
     22 CAR        -4.9190   -0.9760    6.1020 ca        1 N5Y     -0.115000
     23 CAI        -5.9910   -0.1160    5.8280 ca        1 N5Y     -0.037000
     24 CAJ        -6.7660   -0.3100    4.6840 ca        1 N5Y     -0.115000
     25 CAA        -3.7290   -5.3560    3.3040 c3        1 N5Y      0.089100
     26 CAK        -6.4830   -1.3640    3.8160 ca        1 N5Y     -0.094000
     27 HAW        -1.9310    1.6350    1.3850 ha        1 N5Y      0.148000
     28 HAX        -0.3020    2.6770    2.9460 ha        1 N5Y      0.174500
     29 HBA         1.9360    1.6290    3.3090 ha        1 N5Y      0.179000
     30 HAZ         2.5260   -0.4980    2.1310 ha        1 N5Y      0.174500
     31 HAY         0.8910   -1.5640    0.5830 ha        1 N5Y      0.148000
     32 HAU1       -1.0200   -0.7140   -1.0720 h1        1 N5Y      0.126200
     33 HAU2       -2.4550    0.0750   -0.2690 h1        1 N5Y      0.126200
     34 HAP1       -1.8330   -0.9840    2.8140 hn        1 N5Y      0.494133
     35 HAP2       -3.0610   -0.2520    1.9600 hn        1 N5Y      0.494133
     36 HAD        -2.6910   -4.8590   -1.3290 hn        1 N5Y      0.413500
     37 HAA1       -3.8280   -5.4910    4.4150 hx        1 N5Y      0.129367
     38 HAA2       -2.7560   -5.7820    2.9410 hx        1 N5Y      0.129367
     39 HAA3       -4.5800   -5.8850    2.7820 hx        1 N5Y      0.129367
     40 HAI        -6.2360    0.7000    6.5330 ha        1 N5Y      0.192000
     41 HAJ        -7.6300    0.3500    4.4790 ha        1 N5Y      0.188500
     42 HAR        -4.3310   -0.8390    7.0270 ha        1 N5Y      0.188500
     43 HAK        -7.1290   -1.5470    2.9380 ha        1 N5Y      0.161000
     44 HAS        -3.8380   -2.7400    5.5420 ha        1 N5Y      0.161000
     45 HAP3       -3.4640   -1.3240    3.1840 hn        1 N5Y      0.494133
     46 HAG1       -3.1950   -3.4500    3.7390 hn        1 N5Y      0.425800
@<TRIPOS>BOND
     1    1    2 ar  
     2    1    6 ar  
     3    1   31 1   
     4    2    3 ar  
     5    2   30 1   
     6    3    4 ar  
     7    3   29 1   
     8    4    5 ar  
     9    4   28 1   
    10    5    6 ar  
    11    5   27 1   
    12    6    7 1   
    13    7    8 1   
    14    7   32 1   
    15    7   33 1   
    16    8    9 1   
    17    8   11 1   
    18    9   10 1   
    19    9   16 2   
    20   10   34 1   
    21   10   35 1   
    22   10   45 1   
    23   11   12 2   
    24   11   13 1   
    25   13   14 1   
    26   13   36 1   
    27   14   15 2   
    28   14   16 1   
    29   16   17 1   
    30   17   19 1   
    31   17   25 1   
    32   17   46 1   
    33   18   19 2   
    34   19   20 1   
    35   20   21 ar  
    36   20   26 ar  
    37   21   22 ar  
    38   21   44 1   
    39   22   23 ar  
    40   22   42 1   
    41   23   24 ar  
    42   23   40 1   
    43   24   26 ar  
    44   24   41 1   
    45   25   37 1   
    46   25   38 1   
    47   25   39 1   
    48   26   43 1   
@<TRIPOS>SUBSTRUCTURE
     1 N5Y         1 TEMP              0 ****  ****    0 ROOT
