@<TRIPOS>MOLECULE
N61
   50    52     1     0     0
SMALL
bcc


@<TRIPOS>ATOM
      1 O1         -0.3420   -0.1040   -0.0850 o         1 N61     -0.586100
      2 C9          0.8860   -0.3210   -0.0450 c         1 N61      0.763100
      3 N3          1.5420   -0.6000    1.1850 ns        1 N61     -0.431100
      4 C8          0.9010   -0.2920    2.3900 cc        1 N61     -0.002700
      5 C7         -0.4530   -0.4310    2.7440 cd        1 N61     -0.263300
      6 C2         -0.5220   -0.0020    4.1280 cd        1 N61      0.331600
      7 C3         -1.7850    0.0330    4.9330 c3        1 N61     -0.076300
      8 C6         -2.7660    0.9870    4.2590 c3        1 N61     -0.084767
      9 C5         -2.3830   -1.3700    4.9660 c3        1 N61     -0.084767
     10 C4         -1.5380    0.5000    6.3610 c3        1 N61     -0.084767
     11 N2          0.7120    0.3600    4.5720 nc        1 N61     -0.502800
     12 N1          1.5640    0.2570    3.5360 na        1 N61      0.062400
     13 C1          2.9970    0.2850    3.6830 c3        1 N61      0.031600
     14 N4          1.6920   -0.3230   -1.2070 ns        1 N61     -0.458100
     15 C10         1.1510   -0.3450   -2.5090 ca        1 N61      0.054600
     16 C20        -0.0480    0.3220   -2.8400 ca        1 N61     -0.144500
     17 C19        -0.5060    0.3320   -4.1530 ca        1 N61     -0.116000
     18 C13         0.2310   -0.3140   -5.1510 ca        1 N61      0.065100
     19 C12         1.4270   -0.9760   -4.8470 ca        1 N61     -0.116000
     20 C11         1.8770   -1.0000   -3.5340 ca        1 N61     -0.144500
     21 O2         -0.2510   -0.4440   -6.4540 os        1 N61     -0.243200
     22 C14        -0.4930    0.7290   -7.1490 ca        1 N61      0.152100
     23 C18        -0.0800    2.0030   -6.7410 ca        1 N61     -0.288800
     24 C17        -0.3740    3.0850   -7.5900 ca        1 N61      0.418700
     25 N5         -1.0260    2.9660   -8.7620 nb        1 N61     -0.684000
     26 C16        -1.4130    1.7280   -9.1300 ca        1 N61      0.418700
     27 C15        -1.1780    0.5730   -8.3690 ca        1 N61     -0.288800
     28 H1          2.5380   -0.5580    1.2030 hn        1 N61      0.305500
     29 H2         -1.2690   -0.7550    2.1070 ha        1 N61      0.188000
     30 H3         -2.3530    2.0240    4.2480 hc        1 N61      0.039033
     31 H4         -3.7330    0.9920    4.8170 hc        1 N61      0.039033
     32 H5         -2.9580    0.6670    3.2070 hc        1 N61      0.039033
     33 H6         -2.5700   -1.7370    3.9280 hc        1 N61      0.039033
     34 H7         -1.6860   -2.0770    5.4750 hc        1 N61      0.039033
     35 H8         -3.3500   -1.3560    5.5230 hc        1 N61      0.039033
     36 H9         -2.5020    0.5080    6.9250 hc        1 N61      0.039033
     37 H10        -0.8260   -0.1840    6.8810 hc        1 N61      0.039033
     38 H11        -1.1120    1.5320    6.3680 hc        1 N61      0.039033
     39 H12         3.4220   -0.7530    3.6270 h1        1 N61      0.054367
     40 H13         3.2790    0.7420    4.6690 h1        1 N61      0.054367
     41 H14         3.4270    0.9100    2.8560 h1        1 N61      0.054367
     42 H15         2.5980   -0.7350   -1.1360 hn        1 N61      0.307500
     43 H16        -0.6420    0.8270   -2.0590 ha        1 N61      0.156000
     44 H17        -1.4450    0.8460   -4.4080 ha        1 N61      0.153500
     45 H18         1.9890   -1.4850   -5.6440 ha        1 N61      0.153500
     46 H19         2.8140   -1.5320   -3.3050 ha        1 N61      0.156000
     47 H20         0.4560    2.1560   -5.7960 ha        1 N61      0.158500
     48 H21        -0.0680    4.1100   -7.3120 h4        1 N61      0.024600
     49 H22        -1.9460    1.6600  -10.0960 h4        1 N61      0.024600
     50 H23        -1.5090   -0.4180   -8.7040 ha        1 N61      0.158500
@<TRIPOS>BOND
     1    1    2 2   
     2    2    3 1   
     3    2   14 1   
     4    3    4 1   
     5    3   28 1   
     6    4    5 2   
     7    4   12 1   
     8    5    6 1   
     9    5   29 1   
    10    6    7 1   
    11    6   11 2   
    12    7    8 1   
    13    7    9 1   
    14    7   10 1   
    15    8   30 1   
    16    8   31 1   
    17    8   32 1   
    18    9   33 1   
    19    9   34 1   
    20    9   35 1   
    21   10   36 1   
    22   10   37 1   
    23   10   38 1   
    24   11   12 1   
    25   12   13 1   
    26   13   39 1   
    27   13   40 1   
    28   13   41 1   
    29   14   15 1   
    30   14   42 1   
    31   15   16 ar  
    32   15   20 ar  
    33   16   17 ar  
    34   16   43 1   
    35   17   18 ar  
    36   17   44 1   
    37   18   19 ar  
    38   18   21 1   
    39   19   20 ar  
    40   19   45 1   
    41   20   46 1   
    42   21   22 1   
    43   22   23 ar  
    44   22   27 ar  
    45   23   24 ar  
    46   23   47 1   
    47   24   25 ar  
    48   24   48 1   
    49   25   26 ar  
    50   26   27 ar  
    51   26   49 1   
    52   27   50 1   
@<TRIPOS>SUBSTRUCTURE
     1 N61         1 TEMP              0 ****  ****    0 ROOT
