@<TRIPOS>MOLECULE
N61
   50    52     1     0     0
SMALL
bcc


@<TRIPOS>ATOM
      1 O1          1.0860   -0.3160   -0.3330 o         1 N61     -0.586100
      2 C9          1.1850    0.9270   -0.3280 c         1 N61      0.763100
      3 N3          2.4560    1.5620   -0.3800 n         1 N61     -0.431100
      4 C8          3.6060    0.8210   -0.0850 cc        1 N61     -0.002700
      5 C7          3.9280   -0.5050   -0.4280 cd        1 N61     -0.263300
      6 C2          5.2630   -0.7130    0.1010 cd        1 N61      0.331600
      7 C3          6.0190   -2.0000   -0.0150 c3        1 N61     -0.076300
      8 C6          5.2280   -3.0970    0.6910 c3        1 N61     -0.084767
      9 C5          6.1640   -2.3500   -1.4930 c3        1 N61     -0.084767
     10 C4          7.4040   -1.9060    0.6110 c3        1 N61     -0.084767
     11 N2          5.7090    0.4180    0.7110 nc        1 N61     -0.502800
     12 N1          4.7160    1.3230    0.6680 na        1 N61      0.062400
     13 C1          4.9060    2.7210    0.9600 c3        1 N61      0.031600
     14 N4          0.0550    1.7770   -0.2910 n         1 N61     -0.458100
     15 C10        -1.2560    1.3110   -0.5210 ca        1 N61      0.054600
     16 C20        -1.6870    0.0330   -0.1040 ca        1 N61     -0.144500
     17 C19        -3.0090   -0.3560   -0.2880 ca        1 N61     -0.116000
     18 C13        -3.9170    0.5270   -0.8800 ca        1 N61      0.065100
     19 C12        -3.5140    1.8020   -1.2950 ca        1 N61     -0.116000
     20 C11        -2.1900    2.1870   -1.1250 ca        1 N61     -0.144500
     21 O2         -5.2170    0.1370   -1.2060 os        1 N61     -0.243200
     22 C14        -6.0270   -0.2670   -0.1580 ca        1 N61      0.152100
     23 C18        -5.7280   -0.0960    1.2000 ca        1 N61     -0.288800
     24 C17        -6.6840   -0.5290    2.1360 ca        1 N61      0.418700
     25 N5         -7.8600   -1.0930    1.8040 nb        1 N61     -0.684000
     26 C16        -8.1230   -1.2460    0.4890 ca        1 N61      0.418700
     27 C15        -7.2490   -0.8550   -0.5370 ca        1 N61     -0.288800
     28 H1          2.5030    2.5340   -0.1640 hn        1 N61      0.305500
     29 H2          3.2980   -1.2220   -0.9440 ha        1 N61      0.188000
     30 H3          4.2050   -3.1810    0.2520 hc        1 N61      0.039033
     31 H4          5.7520   -4.0760    0.5750 hc        1 N61      0.039033
     32 H5          5.1330   -2.8680    1.7790 hc        1 N61      0.039033
     33 H6          6.7600   -1.5680   -2.0200 hc        1 N61      0.039033
     34 H7          6.6860   -3.3310   -1.6000 hc        1 N61      0.039033
     35 H8          5.1600   -2.4220   -1.9750 hc        1 N61      0.039033
     36 H9          7.3280   -1.6640    1.6980 hc        1 N61      0.039033
     37 H10         7.9340   -2.8830    0.4990 hc        1 N61      0.039033
     38 H11         8.0090   -1.1130    0.1080 hc        1 N61      0.039033
     39 H12         4.0380    3.0780    1.5760 h1        1 N61      0.054367
     40 H13         5.8530    2.8740    1.5430 h1        1 N61      0.054367
     41 H14         4.9610    3.3210    0.0110 h1        1 N61      0.054367
     42 H15         0.1940    2.7350   -0.5310 hn        1 N61      0.307500
     43 H16        -0.9760   -0.6750    0.3560 ha        1 N61      0.156000
     44 H17        -3.3410   -1.3560    0.0300 ha        1 N61      0.153500
     45 H18        -4.2400    2.4810   -1.7660 ha        1 N61      0.153500
     46 H19        -1.8830    3.1880   -1.4650 ha        1 N61      0.156000
     47 H20        -4.7840    0.3590    1.5250 ha        1 N61      0.158500
     48 H21        -6.4940   -0.4150    3.2180 h4        1 N61      0.024600
     49 H22        -9.0950   -1.7120    0.2450 h4        1 N61      0.024600
     50 H23        -7.5000   -0.9960   -1.5950 ha        1 N61      0.158500
@<TRIPOS>BOND
     1    1    2 2   
     2    2    3 1   
     3    2   14 1   
     4    3    4 1   
     5    3   28 1   
     6    4    5 2   
     7    4   12 1   
     8    5    6 1   
     9    5   29 1   
    10    6    7 1   
    11    6   11 2   
    12    7    8 1   
    13    7    9 1   
    14    7   10 1   
    15    8   30 1   
    16    8   31 1   
    17    8   32 1   
    18    9   33 1   
    19    9   34 1   
    20    9   35 1   
    21   10   36 1   
    22   10   37 1   
    23   10   38 1   
    24   11   12 1   
    25   12   13 1   
    26   13   39 1   
    27   13   40 1   
    28   13   41 1   
    29   14   15 1   
    30   14   42 1   
    31   15   16 ar  
    32   15   20 ar  
    33   16   17 ar  
    34   16   43 1   
    35   17   18 ar  
    36   17   44 1   
    37   18   19 ar  
    38   18   21 1   
    39   19   20 ar  
    40   19   45 1   
    41   20   46 1   
    42   21   22 1   
    43   22   23 ar  
    44   22   27 ar  
    45   23   24 ar  
    46   23   47 1   
    47   24   25 ar  
    48   24   48 1   
    49   25   26 ar  
    50   26   27 ar  
    51   26   49 1   
    52   27   50 1   
@<TRIPOS>SUBSTRUCTURE
     1 N61         1 TEMP              0 ****  ****    0 ROOT
