@<TRIPOS>MOLECULE
N61
   50    52     1     0     0
SMALL
bcc


@<TRIPOS>ATOM
      1 O1         -0.3390   -0.1050   -0.0840 o         1 N61     -0.586100
      2 C9          0.8910   -0.3110   -0.0450 c         1 N61      0.763100
      3 N3          1.5500   -0.5830    1.1850 n         1 N61     -0.431100
      4 C8          0.9070   -0.2800    2.3900 cc        1 N61     -0.002700
      5 C7         -0.4470   -0.4300    2.7450 cd        1 N61     -0.263300
      6 C2         -0.5200   -0.0010    4.1290 cd        1 N61      0.331600
      7 C3         -1.7830    0.0240    4.9330 c3        1 N61     -0.076300
      8 C6         -2.7720    0.9700    4.2590 c3        1 N61     -0.084767
      9 C5         -2.3690   -1.3840    4.9660 c3        1 N61     -0.084767
     10 C4         -1.5400    0.4940    6.3610 c3        1 N61     -0.084767
     11 N2          0.7110    0.3720    4.5720 nc        1 N61     -0.502800
     12 N1          1.5640    0.2750    3.5360 na        1 N61      0.062400
     13 C1          2.9970    0.3160    3.6840 c3        1 N61      0.031600
     14 N4          1.6970   -0.3070   -1.2060 n         1 N61     -0.458100
     15 C10         1.1570   -0.3360   -2.5090 ca        1 N61      0.054600
     16 C20        -0.0490    0.3210   -2.8400 ca        1 N61     -0.144500
     17 C19        -0.5070    0.3250   -4.1530 ca        1 N61     -0.116000
     18 C13         0.2360   -0.3150   -5.1500 ca        1 N61      0.065100
     19 C12         1.4380   -0.9660   -4.8460 ca        1 N61     -0.116000
     20 C11         1.8880   -0.9850   -3.5330 ca        1 N61     -0.144500
     21 O2         -0.2450   -0.4500   -6.4530 os        1 N61     -0.243200
     22 C14        -0.4980    0.7200   -7.1490 ca        1 N61      0.152100
     23 C18        -0.0960    1.9980   -6.7420 ca        1 N61     -0.289300
     24 C17        -0.4010    3.0770   -7.5920 ca        1 N61      0.418700
     25 N5         -1.0510    2.9510   -8.7640 nb        1 N61     -0.684000
     26 C16        -1.4260    1.7080   -9.1320 ca        1 N61      0.418700
     27 C15        -1.1810    0.5560   -8.3690 ca        1 N61     -0.289300
     28 H1          2.5460   -0.5320    1.2040 hn        1 N61      0.305500
     29 H2         -1.2600   -0.7610    2.1070 ha        1 N61      0.188000
     30 H3         -2.9610    0.6480    3.2070 hc        1 N61      0.039033
     31 H4         -2.3670    2.0100    4.2480 hc        1 N61      0.039033
     32 H5         -3.7390    0.9660    4.8170 hc        1 N61      0.039033
     33 H6         -2.5530   -1.7530    3.9280 hc        1 N61      0.039033
     34 H7         -1.6660   -2.0850    5.4760 hc        1 N61      0.039033
     35 H8         -3.3370   -1.3780    5.5220 hc        1 N61      0.039033
     36 H9         -2.5040    0.4940    6.9240 hc        1 N61      0.039033
     37 H10        -1.1230    1.5290    6.3680 hc        1 N61      0.039033
     38 H11        -0.8230   -0.1850    6.8810 hc        1 N61      0.039033
     39 H12         3.2750    0.7750    4.6700 h1        1 N61      0.054367
     40 H13         3.4220    0.9430    2.8560 h1        1 N61      0.054367
     41 H14         3.4310   -0.7190    3.6290 h1        1 N61      0.054367
     42 H15         2.6070   -0.7110   -1.1350 hn        1 N61      0.307500
     43 H16        -0.6460    0.8210   -2.0590 ha        1 N61      0.156000
     44 H17        -1.4500    0.8310   -4.4090 ha        1 N61      0.153500
     45 H18         2.0050   -1.4720   -5.6420 ha        1 N61      0.153500
     46 H19         2.8290   -1.5090   -3.3040 ha        1 N61      0.156000
     47 H20         0.4370    2.1570   -5.7970 ha        1 N61      0.158500
     48 H21        -0.1040    4.1050   -7.3140 h4        1 N61      0.024600
     49 H22        -1.9580    1.6340  -10.0980 h4        1 N61      0.024600
     50 H23        -1.5010   -0.4380   -8.7040 ha        1 N61      0.158500
@<TRIPOS>BOND
     1    1    2 2   
     2    2    3 1   
     3    2   14 1   
     4    3    4 1   
     5    3   28 1   
     6    4    5 2   
     7    4   12 1   
     8    5    6 1   
     9    5   29 1   
    10    6    7 1   
    11    6   11 2   
    12    7    8 1   
    13    7    9 1   
    14    7   10 1   
    15    8   30 1   
    16    8   31 1   
    17    8   32 1   
    18    9   33 1   
    19    9   34 1   
    20    9   35 1   
    21   10   36 1   
    22   10   37 1   
    23   10   38 1   
    24   11   12 1   
    25   12   13 1   
    26   13   39 1   
    27   13   40 1   
    28   13   41 1   
    29   14   15 1   
    30   14   42 1   
    31   15   16 ar  
    32   15   20 ar  
    33   16   17 ar  
    34   16   43 1   
    35   17   18 ar  
    36   17   44 1   
    37   18   19 ar  
    38   18   21 1   
    39   19   20 ar  
    40   19   45 1   
    41   20   46 1   
    42   21   22 1   
    43   22   23 ar  
    44   22   27 ar  
    45   23   24 ar  
    46   23   47 1   
    47   24   25 ar  
    48   24   48 1   
    49   25   26 ar  
    50   26   27 ar  
    51   26   49 1   
    52   27   50 1   
@<TRIPOS>SUBSTRUCTURE
     1 N61         1 TEMP              0 ****  ****    0 ROOT
