@<TRIPOS>MOLECULE
N61
   52    54     1     0     0
SMALL
bcc


@<TRIPOS>ATOM
      1 O1          4.1360   -0.5160    0.6550 o         1 N61     -0.315100
      2 C9          3.0110   -0.2740    0.2520 c         1 N61      0.474100
      3 N3          1.8870   -1.2490    0.4830 n4        1 N61     -0.441200
      4 C8          1.0790   -0.8340    1.5990 cc        1 N61     -0.249700
      5 C7         -0.2000   -0.2050    1.5560 cd        1 N61     -0.195300
      6 C2         -0.5710   -0.0560    2.9320 cd        1 N61      0.369600
      7 C3         -1.8390    0.5460    3.4650 c3        1 N61     -0.086300
      8 C6         -1.5010    1.7430    4.3470 c3        1 N61     -0.097100
      9 C5         -2.7170    1.0000    2.3070 c3        1 N61     -0.097100
     10 C4         -2.5870   -0.5000    4.2880 c3        1 N61     -0.097100
     11 N2          0.4310   -0.5680    3.7360 nc        1 N61     -0.377800
     12 N1          1.4060   -1.0210    2.9730 na        1 N61      0.168400
     13 C1          2.5740   -1.7380    3.4530 c3        1 N61     -0.003400
     14 N4          2.6920    0.9920   -0.4820 n4        1 N61     -0.464200
     15 C10         2.0550    0.7300   -1.7680 ca        1 N61     -0.230400
     16 C20         0.6760    0.9900   -1.9350 ca        1 N61     -0.053000
     17 C19         0.0990    0.8390   -3.1810 ca        1 N61     -0.165000
     18 C13         0.8870    0.4360   -4.2840 ca        1 N61      0.251100
     19 C12         2.2750    0.1810   -4.1120 ca        1 N61     -0.165000
     20 C11         2.8540    0.3360   -2.8710 ca        1 N61     -0.053000
     21 O2          0.4270    0.2530   -5.5450 os        1 N61     -0.187200
     22 C14        -0.9230    0.5560   -5.8130 ca        1 N61      0.060100
     23 C18        -1.3740    1.8810   -5.8280 ca        1 N61     -0.246800
     24 C17        -2.6950    2.0960   -6.2690 ca        1 N61      0.428200
     25 N5         -3.5210    1.1070   -6.6620 nb        1 N61     -0.620000
     26 C16        -3.0500   -0.1530   -6.6430 ca        1 N61      0.428200
     27 C15        -1.7480   -0.4970   -6.2210 ca        1 N61     -0.246800
     28 H1          2.3160   -2.1780    0.6700 hn        1 N61      0.510300
     29 H2         -0.7890    0.0730    0.6860 ha        1 N61      0.192000
     30 H3         -2.4480    2.2100    4.7140 hc        1 N61      0.055811
     31 H4         -0.9010    1.4270    5.2340 hc        1 N61      0.055811
     32 H5         -0.9280    2.5080    3.7720 hc        1 N61      0.055811
     33 H6         -2.1960    1.7720    1.6920 hc        1 N61      0.055811
     34 H7         -2.9960    0.1360    1.6570 hc        1 N61      0.055811
     35 H8         -3.6570    1.4500    2.7120 hc        1 N61      0.055811
     36 H9         -2.8100   -1.4010    3.6700 hc        1 N61      0.055811
     37 H10        -3.5530   -0.0650    4.6450 hc        1 N61      0.055811
     38 H11        -1.9880   -0.8060    5.1790 hc        1 N61      0.055811
     39 H12         3.4900   -1.3120    2.9630 h1        1 N61      0.099033
     40 H13         2.6650   -1.6210    4.5710 h1        1 N61      0.099033
     41 H14         2.4660   -2.8310    3.2130 h1        1 N61      0.099033
     42 H15         3.5930    1.4910   -0.6360 hn        1 N61      0.507300
     43 H16         0.0510    1.3370   -1.0940 ha        1 N61      0.163000
     44 H17        -0.9760    1.0510   -3.3300 ha        1 N61      0.206500
     45 H18         2.8770   -0.1220   -4.9890 ha        1 N61      0.206500
     46 H19         3.9400    0.1640   -2.7610 ha        1 N61      0.163000
     47 H20        -0.7270    2.7200   -5.5460 ha        1 N61      0.166500
     48 H21        -3.1110    3.1220   -6.3200 h4        1 N61      0.057100
     49 H22        -3.7510   -0.9380   -6.9920 h4        1 N61      0.057100
     50 H23        -1.3960   -1.5360   -6.2450 ha        1 N61      0.166500
     51 H32         1.2800   -1.3100   -0.3560 hn        1 N61      0.510300
     52 H42         2.0780    1.5830    0.1060 hn        1 N61      0.507300
@<TRIPOS>BOND
     1    1    2 2   
     2    2    3 1   
     3    2   14 1   
     4    3    4 1   
     5    3   28 1   
     6    3   51 1   
     7    4    5 2   
     8    4   12 1   
     9    5    6 1   
    10    5   29 1   
    11    6    7 1   
    12    6   11 2   
    13    7    8 1   
    14    7    9 1   
    15    7   10 1   
    16    8   30 1   
    17    8   31 1   
    18    8   32 1   
    19    9   33 1   
    20    9   34 1   
    21    9   35 1   
    22   10   36 1   
    23   10   37 1   
    24   10   38 1   
    25   11   12 1   
    26   12   13 1   
    27   13   39 1   
    28   13   40 1   
    29   13   41 1   
    30   14   15 1   
    31   14   42 1   
    32   14   52 1   
    33   15   16 ar  
    34   15   20 ar  
    35   16   17 ar  
    36   16   43 1   
    37   17   18 ar  
    38   17   44 1   
    39   18   19 ar  
    40   18   21 1   
    41   19   20 ar  
    42   19   45 1   
    43   20   46 1   
    44   21   22 1   
    45   22   23 ar  
    46   22   27 ar  
    47   23   24 ar  
    48   23   47 1   
    49   24   25 ar  
    50   24   48 1   
    51   25   26 ar  
    52   26   27 ar  
    53   26   49 1   
    54   27   50 1   
@<TRIPOS>SUBSTRUCTURE
     1 N61         1 TEMP              0 ****  ****    0 ROOT
