@<TRIPOS>MOLECULE
N68
   26    25     1     0     0
SMALL
bcc


@<TRIPOS>ATOM
      1 N1          6.8620    0.2990    0.0330 n3        1 N68     -0.908800
      2 C1          5.6350   -0.4620    0.1030 c3        1 N68      0.138800
      3 C2          4.3370    0.3370    0.0050 c3        1 N68     -0.117400
      4 C3          3.1300   -0.5710    0.0900 c3        1 N68     -0.075400
      5 C4          1.8380    0.2150   -0.0060 c3        1 N68     -0.076400
      6 C5          0.6240   -0.6820    0.0790 c3        1 N68     -0.097400
      7 C6         -0.6690    0.1350   -0.0210 c3        1 N68      0.200400
      8 O          -1.7620   -0.6950    0.0570 os        1 N68     -0.566200
      9 P          -3.2180    0.2580   -0.0590 p5        1 N68      1.312900
     10 OP1        -4.2890   -0.7930    0.0430 o         1 N68     -0.937167
     11 OP2        -3.0670    1.1820    1.1230 o         1 N68     -0.937167
     12 OP3        -3.0430    0.9120   -1.4060 o         1 N68     -0.937167
     13 HN11        6.9070    0.8000   -0.8340 hn        1 N68      0.331800
     14 HN12        6.8910    0.9720    0.7760 hn        1 N68      0.331800
     15 H11         5.6560   -1.2220   -0.7290 h1        1 N68      0.046700
     16 H12         5.6390   -1.0290    1.0760 h1        1 N68      0.046700
     17 H21         4.2920    1.0940    0.8320 hc        1 N68      0.033700
     18 H22         4.3090    0.9020   -0.9630 hc        1 N68      0.033700
     19 H31         3.1700   -1.3290   -0.7360 hc        1 N68      0.030700
     20 H32         3.1520   -1.1370    1.0590 hc        1 N68      0.030700
     21 H41         1.7990    0.9730    0.8210 hc        1 N68      0.031700
     22 H42         1.8160    0.7810   -0.9740 hc        1 N68      0.031700
     23 H51         0.6460   -1.4370   -0.7480 hc        1 N68      0.019700
     24 H52         0.6290   -1.2460    1.0460 hc        1 N68      0.019700
     25 H61        -0.7010    0.8910    0.8160 h1        1 N68      0.005700
     26 H62        -0.6830    0.6970   -0.9990 h1        1 N68      0.005700
@<TRIPOS>BOND
     1    1    2 1   
     2    1   13 1   
     3    1   14 1   
     4    2    3 1   
     5    2   15 1   
     6    2   16 1   
     7    3    4 1   
     8    3   17 1   
     9    3   18 1   
    10    4    5 1   
    11    4   19 1   
    12    4   20 1   
    13    5    6 1   
    14    5   21 1   
    15    5   22 1   
    16    6    7 1   
    17    6   23 1   
    18    6   24 1   
    19    7    8 1   
    20    7   25 1   
    21    7   26 1   
    22    8    9 1   
    23    9   10 1   
    24    9   11 1   
    25    9   12 1   
@<TRIPOS>SUBSTRUCTURE
     1 N68         1 TEMP              0 ****  ****    0 ROOT
