@<TRIPOS>MOLECULE
N69
   45    47     1     0     0
SMALL
bcc


@<TRIPOS>ATOM
      1 N2         -0.2920   -0.2410   -0.5010 n4        1 N69     -0.812300
      2 C2          1.1970   -0.2040   -0.3480 ca        1 N69      0.720900
      3 N1          1.6300   -0.1740    0.9620 nb        1 N69     -0.792000
      4 N3          1.9000   -0.2060   -1.5110 nb        1 N69     -0.669000
      5 C4          3.2520   -0.1710   -1.2950 ca        1 N69      0.411800
      6 N9          4.3140   -0.1600   -2.1970 na        1 N69     -0.339000
      7 C8          5.5000   -0.1210   -1.4220 cc        1 N69      0.462800
      8 C17         6.8600   -0.0990   -2.0650 c3        1 N69     -0.091000
      9 C19         7.0790   -1.3570   -2.8810 c3        1 N69     -0.103100
     10 C18         7.0220    1.1450   -2.9160 c3        1 N69     -0.103100
     11 C5          3.8700   -0.1370    0.0350 ca        1 N69     -0.110200
     12 N7          5.2540   -0.1060   -0.0860 nd        1 N69     -0.497100
     13 C6          2.9750   -0.1400    1.1520 ca        1 N69      0.764600
     14 O6          3.5390   -0.1070    2.3810 os        1 N69     -0.387100
     15 C10         2.6700   -0.1110    3.5440 c3        1 N69      0.135400
     16 C11         3.6140   -0.0820    4.7410 c3        1 N69     -0.073700
     17 C12         2.8470    0.3920    5.9680 c3        1 N69     -0.073400
     18 C13         3.7430    0.4030    7.1890 c3        1 N69     -0.076900
     19 C14         4.3720   -0.9540    7.4290 c3        1 N69     -0.080400
     20 C15         5.1210   -1.4380    6.2050 c3        1 N69     -0.076900
     21 C16         4.2270   -1.4530    4.9820 c3        1 N69     -0.073400
     22 H2N1       -0.6530   -1.0810   -0.0330 hn        1 N69      0.477467
     23 H2N2       -0.6920    0.5950   -0.0590 hn        1 N69      0.477467
     24 H9          4.2530   -0.1760   -3.1850 hn        1 N69      0.338700
     25 H17         7.6280   -0.0690   -1.2340 hc        1 N69      0.108700
     26 H191        6.9270   -2.2670   -2.2520 hc        1 N69      0.052700
     27 H192        8.1270   -1.3670   -3.2690 hc        1 N69      0.052700
     28 H193        6.3840   -1.4010   -3.7530 hc        1 N69      0.052700
     29 H181        6.8280    2.0650   -2.3130 hc        1 N69      0.052700
     30 H182        6.3250    1.1320   -3.7880 hc        1 N69      0.052700
     31 H183        8.0690    1.1920   -3.3060 hc        1 N69      0.052700
     32 H101        2.0440   -1.0380    3.5300 h1        1 N69      0.059700
     33 H102        2.0230    0.8030    3.5100 h1        1 N69      0.059700
     34 H11         4.4450    0.6480    4.5250 hc        1 N69      0.079700
     35 H121        2.4450    1.4230    5.7880 hc        1 N69      0.043700
     36 H122        1.9730   -0.2880    6.1480 hc        1 N69      0.043700
     37 H131        4.5500    1.1700    7.0530 hc        1 N69      0.049200
     38 H132        3.1400    0.7020    8.0860 hc        1 N69      0.049200
     39 H141        3.5730   -1.6950    7.6960 hc        1 N69      0.048200
     40 H142        5.0760   -0.8910    8.2990 hc        1 N69      0.048200
     41 H151        6.0020   -0.7680    6.0150 hc        1 N69      0.049200
     42 H152        5.5170   -2.4700    6.3880 hc        1 N69      0.049200
     43 H161        3.4110   -2.2090    5.1260 hc        1 N69      0.043700
     44 H162        4.8190   -1.7560    4.0800 hc        1 N69      0.043700
     45 H23        -0.5450   -0.2630   -1.4960 hn        1 N69      0.477467
@<TRIPOS>BOND
     1    1    2 1   
     2    1   22 1   
     3    1   23 1   
     4    1   45 1   
     5    2    3 ar  
     6    2    4 ar  
     7    3   13 ar  
     8    4    5 ar  
     9    5    6 1   
    10    5   11 ar  
    11    6    7 1   
    12    6   24 1   
    13    7    8 1   
    14    7   12 2   
    15    8    9 1   
    16    8   10 1   
    17    8   25 1   
    18    9   26 1   
    19    9   27 1   
    20    9   28 1   
    21   10   29 1   
    22   10   30 1   
    23   10   31 1   
    24   11   12 1   
    25   11   13 ar  
    26   13   14 1   
    27   14   15 1   
    28   15   16 1   
    29   15   32 1   
    30   15   33 1   
    31   16   17 1   
    32   16   21 1   
    33   16   34 1   
    34   17   18 1   
    35   17   35 1   
    36   17   36 1   
    37   18   19 1   
    38   18   37 1   
    39   18   38 1   
    40   19   20 1   
    41   19   39 1   
    42   19   40 1   
    43   20   21 1   
    44   20   41 1   
    45   20   42 1   
    46   21   43 1   
    47   21   44 1   
@<TRIPOS>SUBSTRUCTURE
     1 N69         1 TEMP              0 ****  ****    0 ROOT
