@<TRIPOS>MOLECULE
N69
   44    46     1     0     0
SMALL
bcc


@<TRIPOS>ATOM
      1 N2         -1.0810   -4.4020   -0.5170 nh        1 N69     -0.924500
      2 C2         -1.2080   -3.0100   -0.4270 ca        1 N69      0.910900
      3 N1         -0.0180   -2.2910   -0.2560 nb        1 N69     -0.838000
      4 N3         -2.4890   -2.4920   -0.4600 nb        1 N69     -0.780000
      5 C4         -2.5330   -1.1480   -0.2500 ca        1 N69      0.476800
      6 N9         -3.6310   -0.2870   -0.1990 na        1 N69     -0.377000
      7 C8         -3.1130    1.0160    0.0450 cc        1 N69      0.389800
      8 C17        -4.0230    2.2040    0.1660 c3        1 N69     -0.078000
      9 C19        -4.7880    2.4230   -1.1240 c3        1 N69     -0.095100
     10 C18        -4.9680    2.0340    1.3390 c3        1 N69     -0.095100
     11 C5         -1.3670   -0.2940   -0.0320 ca        1 N69     -0.215200
     12 N7         -1.7680    1.0350    0.1460 nd        1 N69     -0.503100
     13 C6         -0.1110   -0.9620   -0.0530 ca        1 N69      0.756600
     14 O6          0.9930   -0.1750    0.1320 os        1 N69     -0.420100
     15 C10         2.2820   -0.8230    0.1280 c3        1 N69      0.137400
     16 C11         3.2960    0.2900    0.3730 c3        1 N69     -0.071700
     17 C12         4.6280   -0.3240    0.7790 c3        1 N69     -0.073900
     18 C13         5.6750    0.7490    0.9950 c3        1 N69     -0.075400
     19 C14         5.8310    1.6260   -0.2310 c3        1 N69     -0.077400
     20 C15         4.5050    2.2290   -0.6470 c3        1 N69     -0.075400
     21 C16         3.4580    1.1570   -0.8660 c3        1 N69     -0.073900
     22 H2N1       -1.8570   -4.8930   -0.8960 hn        1 N69      0.425800
     23 H2N2       -0.1820   -4.7500   -0.7610 hn        1 N69      0.425800
     24 H9         -4.5790   -0.5350   -0.2960 hn        1 N69      0.314700
     25 H17        -3.3770    3.1110    0.3570 hc        1 N69      0.088700
     26 H191       -4.0840    2.5150   -1.9850 hc        1 N69      0.041867
     27 H192       -5.4890    1.5770   -1.3250 hc        1 N69      0.041867
     28 H193       -5.3870    3.3640   -1.0490 hc        1 N69      0.041867
     29 H181       -5.6720    1.1850    1.1690 hc        1 N69      0.041867
     30 H182       -4.3960    1.8400    2.2770 hc        1 N69      0.041867
     31 H183       -5.5700    2.9660    1.4730 hc        1 N69      0.041867
     32 H101        2.3150   -1.5840    0.9490 h1        1 N69      0.054200
     33 H102        2.4470   -1.3180   -0.8630 h1        1 N69      0.054200
     34 H11         2.9180    0.9370    1.2140 hc        1 N69      0.070700
     35 H121        4.4970   -0.9160    1.7230 hc        1 N69      0.044450
     36 H122        4.9710   -1.0310   -0.0200 hc        1 N69      0.044450
     37 H131        5.3830    1.3840    1.8730 hc        1 N69      0.040700
     38 H132        6.6570    0.2660    1.2400 hc        1 N69      0.040700
     39 H141        6.5660    2.4440   -0.0150 hc        1 N69      0.038700
     40 H142        6.2460    1.0160   -1.0760 hc        1 N69      0.038700
     41 H151        4.1520    2.9400    0.1460 hc        1 N69      0.040700
     42 H152        4.6400    2.8180   -1.5910 hc        1 N69      0.040700
     43 H161        3.7550    0.5160   -1.7370 hc        1 N69      0.044450
     44 H162        2.4710    1.6300   -1.1120 hc        1 N69      0.044450
@<TRIPOS>BOND
     1    1    2 1   
     2    1   22 1   
     3    1   23 1   
     4    2    3 ar  
     5    2    4 ar  
     6    3   13 ar  
     7    4    5 ar  
     8    5    6 1   
     9    5   11 ar  
    10    6    7 1   
    11    6   24 1   
    12    7    8 1   
    13    7   12 2   
    14    8    9 1   
    15    8   10 1   
    16    8   25 1   
    17    9   26 1   
    18    9   27 1   
    19    9   28 1   
    20   10   29 1   
    21   10   30 1   
    22   10   31 1   
    23   11   12 1   
    24   11   13 ar  
    25   13   14 1   
    26   14   15 1   
    27   15   16 1   
    28   15   32 1   
    29   15   33 1   
    30   16   17 1   
    31   16   21 1   
    32   16   34 1   
    33   17   18 1   
    34   17   35 1   
    35   17   36 1   
    36   18   19 1   
    37   18   37 1   
    38   18   38 1   
    39   19   20 1   
    40   19   39 1   
    41   19   40 1   
    42   20   21 1   
    43   20   41 1   
    44   20   42 1   
    45   21   43 1   
    46   21   44 1   
@<TRIPOS>SUBSTRUCTURE
     1 N69         1 TEMP              0 ****  ****    0 ROOT
