@<TRIPOS>MOLECULE
N69
   44    46     1     0     0
SMALL
bcc


@<TRIPOS>ATOM
      1 N2         -0.2330   -0.0520   -0.4750 nh        1 N69     -0.924500
      2 C2          1.1580   -0.1490   -0.3370 ca        1 N69      0.910900
      3 N1          1.6500   -0.1420    0.9740 nb        1 N69     -0.838000
      4 N3          1.9040   -0.1870   -1.5010 nb        1 N69     -0.780000
      5 C4          3.2470   -0.1630   -1.2800 ca        1 N69      0.476800
      6 N9          4.3020   -0.1740   -2.1940 na        1 N69     -0.377000
      7 C8          5.5020   -0.1410   -1.4290 cc        1 N69      0.389800
      8 C17         6.8480   -0.1390   -2.0940 c3        1 N69     -0.078000
      9 C19         7.0460   -1.4040   -2.9030 c3        1 N69     -0.095100
     10 C18         7.0130    1.0940   -2.9600 c3        1 N69     -0.095100
     11 C5          3.8820   -0.1280    0.0360 ca        1 N69     -0.215200
     12 N7          5.2750   -0.1140   -0.1000 nd        1 N69     -0.503100
     13 C6          2.9870   -0.1220    1.1420 ca        1 N69      0.756600
     14 O6          3.5640   -0.1060    2.3820 os        1 N69     -0.420100
     15 C10         2.6860   -0.0890    3.5260 c3        1 N69      0.137400
     16 C11         3.6050   -0.0550    4.7440 c3        1 N69     -0.071700
     17 C12         2.8030    0.3610    5.9680 c3        1 N69     -0.073900
     18 C13         3.6730    0.3700    7.2080 c3        1 N69     -0.075400
     19 C14         4.3420   -0.9720    7.4260 c3        1 N69     -0.077400
     20 C15         5.1310   -1.3970    6.2040 c3        1 N69     -0.075400
     21 C16         4.2620   -1.4090    4.9640 c3        1 N69     -0.073900
     22 H2N1       -0.6090   -0.3170   -1.3560 hn        1 N69      0.425800
     23 H2N2       -0.7740   -0.2920    0.3230 hn        1 N69      0.425800
     24 H9          4.2310   -0.1860   -3.1770 hn        1 N69      0.314700
     25 H17         7.6310   -0.1100   -1.2800 hc        1 N69      0.088700
     26 H191        6.8910   -2.3060   -2.2630 hc        1 N69      0.041867
     27 H192        6.3320   -1.4490   -3.7610 hc        1 N69      0.041867
     28 H193        8.0850   -1.4300   -3.3110 hc        1 N69      0.041867
     29 H181        8.0520    1.1290   -3.3680 hc        1 N69      0.041867
     30 H182        6.3000    1.0800   -3.8190 hc        1 N69      0.041867
     31 H183        6.8320    2.0190   -2.3620 hc        1 N69      0.041867
     32 H101        2.0420    0.8280    3.4840 h1        1 N69      0.054200
     33 H102        2.0470   -1.0080    3.5210 h1        1 N69      0.054200
     34 H11         4.4130    0.7070    4.5580 hc        1 N69      0.070700
     35 H121        2.3710    1.3830    5.8060 hc        1 N69      0.044450
     36 H122        1.9470   -0.3500    6.1120 hc        1 N69      0.044450
     37 H131        4.4570    1.1650    7.1070 hc        1 N69      0.040700
     38 H132        3.0450    0.6270    8.1010 hc        1 N69      0.040700
     39 H141        5.0240   -0.9110    8.3130 hc        1 N69      0.038700
     40 H142        3.5620   -1.7450    7.6540 hc        1 N69      0.038700
     41 H151        5.9910   -0.6930    6.0510 hc        1 N69      0.040700
     42 H152        5.5590   -2.4200    6.3700 hc        1 N69      0.040700
     43 H161        3.4700   -2.1970    5.0690 hc        1 N69      0.044450
     44 H162        4.8800   -1.6650    4.0650 hc        1 N69      0.044450
@<TRIPOS>BOND
     1    1    2 1   
     2    1   22 1   
     3    1   23 1   
     4    2    3 ar  
     5    2    4 ar  
     6    3   13 ar  
     7    4    5 ar  
     8    5    6 1   
     9    5   11 ar  
    10    6    7 1   
    11    6   24 1   
    12    7    8 1   
    13    7   12 2   
    14    8    9 1   
    15    8   10 1   
    16    8   25 1   
    17    9   26 1   
    18    9   27 1   
    19    9   28 1   
    20   10   29 1   
    21   10   30 1   
    22   10   31 1   
    23   11   12 1   
    24   11   13 ar  
    25   13   14 1   
    26   14   15 1   
    27   15   16 1   
    28   15   32 1   
    29   15   33 1   
    30   16   17 1   
    31   16   21 1   
    32   16   34 1   
    33   17   18 1   
    34   17   35 1   
    35   17   36 1   
    36   18   19 1   
    37   18   37 1   
    38   18   38 1   
    39   19   20 1   
    40   19   39 1   
    41   19   40 1   
    42   20   21 1   
    43   20   41 1   
    44   20   42 1   
    45   21   43 1   
    46   21   44 1   
@<TRIPOS>SUBSTRUCTURE
     1 N69         1 TEMP              0 ****  ****    0 ROOT
