@<TRIPOS>MOLECULE
N69
   44    46     1     0     0
SMALL
bcc


@<TRIPOS>ATOM
      1 N2         -0.2330   -0.0640   -0.4760 nv        1 N69     -0.924500
      2 C2          1.1580   -0.1570   -0.3370 ca        1 N69      0.910900
      3 N1          1.6500   -0.1500    0.9740 nb        1 N69     -0.838000
      4 N3          1.9050   -0.1900   -1.5010 nb        1 N69     -0.780000
      5 C4          3.2480   -0.1620   -1.2800 ca        1 N69      0.476800
      6 N9          4.3030   -0.1690   -2.1940 na        1 N69     -0.377000
      7 C8          5.5030   -0.1330   -1.4290 cc        1 N69      0.389800
      8 C17         6.8490   -0.1250   -2.0920 c3        1 N69     -0.078000
      9 C19         7.0510   -1.3890   -2.9040 c3        1 N69     -0.095100
     10 C18         7.0100    1.1100   -2.9570 c3        1 N69     -0.095100
     11 C5          3.8820   -0.1270    0.0360 ca        1 N69     -0.215200
     12 N7          5.2750   -0.1090   -0.0990 nd        1 N69     -0.503100
     13 C6          2.9870   -0.1260    1.1420 ca        1 N69      0.756600
     14 O6          3.5630   -0.1100    2.3830 os        1 N69     -0.420100
     15 C10         2.6850   -0.0970    3.5270 c3        1 N69      0.137400
     16 C11         3.6030   -0.0610    4.7440 c3        1 N69     -0.071700
     17 C12         2.7990    0.3510    5.9680 c3        1 N69     -0.073900
     18 C13         3.6690    0.3610    7.2090 c3        1 N69     -0.075400
     19 C14         4.3420   -0.9780    7.4260 c3        1 N69     -0.077400
     20 C15         5.1330   -1.3990    6.2040 c3        1 N69     -0.075400
     21 C16         4.2640   -1.4130    4.9640 c3        1 N69     -0.073900
     22 H2N1       -0.6080   -0.3300   -1.3570 hn        1 N69      0.425800
     23 H2N2       -0.7740   -0.3070    0.3220 hn        1 N69      0.425800
     24 H9          4.2320   -0.1790   -3.1760 hn        1 N69      0.314700
     25 H17         7.6310   -0.0950   -1.2780 hc        1 N69      0.088700
     26 H191        6.3370   -1.4340   -3.7620 hc        1 N69      0.041867
     27 H192        6.8980   -2.2920   -2.2660 hc        1 N69      0.041867
     28 H193        8.0900   -1.4100   -3.3120 hc        1 N69      0.041867
     29 H181        8.0490    1.1490   -3.3640 hc        1 N69      0.041867
     30 H182        6.8260    2.0330   -2.3570 hc        1 N69      0.041867
     31 H183        6.2970    1.0950   -3.8160 hc        1 N69      0.041867
     32 H101        2.0380    0.8170    3.4850 h1        1 N69      0.054200
     33 H102        2.0490   -1.0190    3.5190 h1        1 N69      0.054200
     34 H11         4.4090    0.7040    4.5600 hc        1 N69      0.070700
     35 H121        2.3640    1.3720    5.8070 hc        1 N69      0.044450
     36 H122        1.9460   -0.3630    6.1120 hc        1 N69      0.044450
     37 H131        3.0400    0.6150    8.1020 hc        1 N69      0.040700
     38 H132        4.4510    1.1600    7.1090 hc        1 N69      0.040700
     39 H141        3.5640   -1.7540    7.6520 hc        1 N69      0.038700
     40 H142        5.0240   -0.9160    8.3130 hc        1 N69      0.038700
     41 H151        5.5640   -2.4210    6.3690 hc        1 N69      0.040700
     42 H152        5.9910   -0.6920    6.0520 hc        1 N69      0.040700
     43 H161        4.8840   -1.6670    4.0640 hc        1 N69      0.044450
     44 H162        3.4750   -2.2040    5.0670 hc        1 N69      0.044450
@<TRIPOS>BOND
     1    1    2 1   
     2    1   22 1   
     3    1   23 1   
     4    2    3 ar  
     5    2    4 ar  
     6    3   13 ar  
     7    4    5 ar  
     8    5    6 1   
     9    5   11 ar  
    10    6    7 1   
    11    6   24 1   
    12    7    8 1   
    13    7   12 2   
    14    8    9 1   
    15    8   10 1   
    16    8   25 1   
    17    9   26 1   
    18    9   27 1   
    19    9   28 1   
    20   10   29 1   
    21   10   30 1   
    22   10   31 1   
    23   11   12 1   
    24   11   13 ar  
    25   13   14 1   
    26   14   15 1   
    27   15   16 1   
    28   15   32 1   
    29   15   33 1   
    30   16   17 1   
    31   16   21 1   
    32   16   34 1   
    33   17   18 1   
    34   17   35 1   
    35   17   36 1   
    36   18   19 1   
    37   18   37 1   
    38   18   38 1   
    39   19   20 1   
    40   19   39 1   
    41   19   40 1   
    42   20   21 1   
    43   20   41 1   
    44   20   42 1   
    45   21   43 1   
    46   21   44 1   
@<TRIPOS>SUBSTRUCTURE
     1 N69         1 TEMP              0 ****  ****    0 ROOT
