@<TRIPOS>MOLECULE
N69
   44    40     1     0     0
SMALL
bcc


@<TRIPOS>ATOM
      1 N2         -4.7810   -1.1070   -1.0740 n3        1 N69     -0.322000
      2 C2         -3.3670   -1.1140   -1.1880 c2        1 N69      0.192000
      3 N1         -2.5130   -0.8560   -0.1360 n2        1 N69     -0.312000
      4 N3         -2.8850   -1.2190   -2.4410 n1        1 N69     -0.254000
      5 C4         -1.5440   -1.0680   -2.6730 c1        1 N69     -0.069500
      6 N9         -0.7940   -1.1230   -3.8260 n1        1 N69     -0.150500
      7 C8          0.5010   -0.9030   -3.4960 c1        1 N69     -0.012000
      8 C17         1.8370   -0.8140   -4.2520 c2        1 N69     -0.042000
      9 C19         2.0050   -2.0500   -5.1420 c3        1 N69     -0.213000
     10 C18         1.8520    0.4620   -5.1370 c3        1 N69     -0.213000
     11 C5         -0.7170   -0.8190   -1.6580 c1        1 N69     -0.069500
     12 N7          0.5640   -0.7150   -2.1680 n1        1 N69     -0.150500
     13 C6         -1.2220   -0.7110   -0.3560 c1        1 N69      0.258000
     14 O6         -0.2940   -0.4920    0.6440 os        1 N69     -0.178000
     15 C10        -0.8570    0.0120    1.8480 c3        1 N69     -0.013000
     16 C11         0.2640    0.4270    2.7930 c3        1 N69     -0.111000
     17 C12         0.4220    1.9320    2.7290 c3        1 N69     -0.153000
     18 C13         1.3910    2.4530    3.7570 c3        1 N69     -0.154000
     19 C14         1.0680    1.9590    5.1670 c3        1 N69     -0.156000
     20 C15         0.9130    0.4570    5.2340 c3        1 N69     -0.154000
     21 C16        -0.0600   -0.0660    4.2020 c3        1 N69     -0.153000
     22 H2N1       -5.3030   -1.0890   -1.8320 hn        1 N69      0.221000
     23 H2N2       -5.1940   -1.1700   -0.2090 hn        1 N69      0.221000
     24 H9         -1.1120   -1.2300   -4.6570 DU        1 N69      0.265000
     25 H17         2.5830   -0.7740   -3.6020 ha        1 N69      0.128000
     26 H191        2.8220   -1.9770   -5.6460 hc        1 N69      0.081167
     27 H192        2.0370   -2.8180   -4.6050 hc        1 N69      0.081167
     28 H193        1.2110   -2.1160   -5.7860 hc        1 N69      0.081167
     29 H181        1.7670    1.2650   -4.5640 hc        1 N69      0.081167
     30 H182        1.1220    0.4320   -5.7490 hc        1 N69      0.081167
     31 H183        2.7020    0.5030   -5.6390 hc        1 N69      0.081167
     32 H101       -1.3750   -0.6500    2.2500 h1        1 N69      0.093500
     33 H102       -1.4360    0.8140    1.6400 h1        1 N69      0.093500
     34 H11         1.0930    0.0130    2.4990 hc        1 N69      0.109000
     35 H121       -0.4700    2.3560    2.8810 hc        1 N69      0.084000
     36 H122        0.7490    2.1850    1.8170 hc        1 N69      0.084000
     37 H131        1.3700    3.4170    3.7470 hc        1 N69      0.080000
     38 H132        2.2780    2.1570    3.5210 hc        1 N69      0.080000
     39 H141        1.7660    2.2230    5.7530 hc        1 N69      0.078000
     40 H142        0.2230    2.3800    5.4670 hc        1 N69      0.078000
     41 H151        1.8000    0.0360    5.0840 hc        1 N69      0.080000
     42 H152        0.5830    0.2030    6.1520 hc        1 N69      0.080000
     43 H161       -0.9610    0.2330    4.4390 hc        1 N69      0.084000
     44 H162       -0.0380   -1.0370    4.2120 hc        1 N69      0.084000
@<TRIPOS>BOND
     1    1    2 1   
     2    1   22 1   
     3    1   23 1   
     4    2    3 1   
     5    2    4 1   
     6    3   13 1   
     7    5   11 1   
     8    6    7 1   
     9    7   12 1   
    10    8    9 1   
    11    8   10 1   
    12    8   25 1   
    13    9   26 1   
    14    9   27 1   
    15    9   28 1   
    16   10   29 1   
    17   10   30 1   
    18   10   31 1   
    19   13   14 1   
    20   14   15 1   
    21   15   16 1   
    22   15   32 1   
    23   15   33 1   
    24   16   17 1   
    25   16   21 1   
    26   16   34 1   
    27   17   18 1   
    28   17   35 1   
    29   17   36 1   
    30   18   19 1   
    31   18   37 1   
    32   18   38 1   
    33   19   20 1   
    34   19   39 1   
    35   19   40 1   
    36   20   21 1   
    37   20   41 1   
    38   20   42 1   
    39   21   43 1   
    40   21   44 1   
@<TRIPOS>SUBSTRUCTURE
     1 N69         1 TEMP              0 ****  ****    0 ROOT
