@<TRIPOS>MOLECULE
N6A
   47    49     1     0     0
SMALL
bcc


@<TRIPOS>ATOM
      1 CAW         0.2730   -0.4410    0.4080 ca        1 N6A     -0.135000
      2 CAX         1.6200   -0.0890    0.5090 ca        1 N6A     -0.111000
      3 CBA         2.0010    1.0110    1.2780 ca        1 N6A     -0.077000
      4 CAZ         1.0320    1.7600    1.9540 ca        1 N6A     -0.111000
      5 CAY        -0.3120    1.4090    1.8630 ca        1 N6A     -0.135000
      6 CAV        -0.6980    0.3020    1.0890 ca        1 N6A     -0.218300
      7 CAU        -2.1520    0.0270    0.8780 c3        1 N6A      0.110300
      8 NAN        -2.6230   -1.2470    1.4390 n         1 N6A     -0.355400
      9 CAO        -2.3610   -1.6330    2.7460 cc        1 N6A      0.358800
     10 NAP        -1.5220   -0.7480    3.5860 n4        1 N6A     -0.800600
     11 CAM        -3.4260   -2.0860    0.6040 c         1 N6A      0.807500
     12 OAL        -3.6550   -1.8000   -0.5740 o         1 N6A     -0.482500
     13 NAD        -3.9700   -3.2760    1.1670 n         1 N6A     -0.453100
     14 CAE        -3.7230   -3.6530    2.4520 cd        1 N6A      0.489700
     15 OAA        -4.2370   -4.7320    2.9390 os        1 N6A     -0.421800
     16 CAF        -2.8470   -2.8160    3.3040 cc        1 N6A     -0.114600
     17 NAG        -2.5480   -3.1590    4.6420 nh        1 N6A     -0.723000
     18 CAB        -1.6270   -4.2660    4.8090 c3        1 N6A      0.136100
     19 SAH        -5.7630   -5.8120    2.6370 sy        1 N6A      1.732800
     20 OAQ        -6.4960   -5.1120    3.5420 o         1 N6A     -0.598300
     21 OAC        -5.7450   -5.4800    1.3100 o         1 N6A     -0.598300
     22 CAI        -5.3020   -7.2590    3.0260 ca        1 N6A     -0.575500
     23 CAJ        -5.4910   -7.7600    4.3400 ca        1 N6A      0.026500
     24 CAK        -5.1510   -9.0610    4.6720 ca        1 N6A     -0.149000
     25 CAT        -4.6080   -9.9120    3.7030 ca        1 N6A      0.029000
     26 CAS        -4.4040   -9.4440    2.3990 ca        1 N6A     -0.149000
     27 CAR        -4.7440   -8.1440    2.0670 ca        1 N6A      0.026500
     28 HAW        -0.0250   -1.2830   -0.2370 ha        1 N6A      0.146000
     29 HAX         2.3810   -0.6670   -0.0430 ha        1 N6A      0.173000
     30 HBA         3.0630    1.3040    1.3370 ha        1 N6A      0.177000
     31 HAZ         1.3320    2.6480    2.5370 ha        1 N6A      0.173000
     32 HAY        -1.0730    2.0500    2.3370 ha        1 N6A      0.146000
     33 HAU1       -2.3580    0.0070   -0.2390 h1        1 N6A      0.120200
     34 HAU2       -2.7860    0.8480    1.3270 h1        1 N6A      0.120200
     35 HAP1       -0.5570   -0.7210    3.2030 hn        1 N6A      0.498133
     36 HAP2       -1.5080   -1.1020    4.5580 hn        1 N6A      0.498133
     37 HAD        -4.5720   -3.8220    0.5560 hn        1 N6A      0.424500
     38 HAB1       -0.6510   -4.0240    4.3140 h1        1 N6A      0.067700
     39 HAB2       -1.4570   -4.3960    5.9130 h1        1 N6A      0.067700
     40 HAB3       -2.0180   -5.2290    4.3840 h1        1 N6A      0.067700
     41 HAJ        -5.9350   -7.0970    5.1080 ha        1 N6A      0.169000
     42 HAR        -4.5960   -7.7860    1.0310 ha        1 N6A      0.169000
     43 HAK        -5.3180   -9.4310    5.6990 ha        1 N6A      0.184000
     44 HAT        -4.3450  -10.9540    3.9650 ha        1 N6A      0.183000
     45 HAS        -3.9820  -10.1180    1.6320 ha        1 N6A      0.184000
     46 HAP3       -1.8940    0.2150    3.5720 hn        1 N6A      0.498133
     47 HAG1       -3.4000   -3.3120    5.1590 hn        1 N6A      0.425800
@<TRIPOS>BOND
     1    1    2 ar  
     2    1    6 ar  
     3    1   28 1   
     4    2    3 ar  
     5    2   29 1   
     6    3    4 ar  
     7    3   30 1   
     8    4    5 ar  
     9    4   31 1   
    10    5    6 ar  
    11    5   32 1   
    12    6    7 1   
    13    7    8 1   
    14    7   33 1   
    15    7   34 1   
    16    8    9 2   
    17    8   11 1   
    18    9   10 1   
    19    9   16 1   
    20   10   35 1   
    21   10   36 1   
    22   10   46 1   
    23   11   12 2   
    24   11   13 1   
    25   13   14 1   
    26   13   37 1   
    27   14   15 1   
    28   14   16 2   
    29   15   19 1   
    30   16   17 1   
    31   17   18 1   
    32   17   47 1   
    33   18   38 1   
    34   18   39 1   
    35   18   40 1   
    36   19   20 2   
    37   19   21 2   
    38   19   22 1   
    39   22   23 ar  
    40   22   27 ar  
    41   23   24 ar  
    42   23   41 1   
    43   24   25 ar  
    44   24   43 1   
    45   25   26 ar  
    46   25   44 1   
    47   26   27 ar  
    48   26   45 1   
    49   27   42 1   
@<TRIPOS>SUBSTRUCTURE
     1 N6A         1 TEMP              0 ****  ****    0 ROOT
