@<TRIPOS>MOLECULE
N6A
   47    49     1     0     0
SMALL
bcc


@<TRIPOS>ATOM
      1 CAW         0.5520   -0.3560    0.6980 ca        1 N6A     -0.135000
      2 CAX         1.8020    0.1600    1.0440 ca        1 N6A     -0.111000
      3 CBA         1.8930    1.3430    1.7770 ca        1 N6A     -0.077000
      4 CAZ         0.7300    2.0120    2.1710 ca        1 N6A     -0.111000
      5 CAY        -0.5200    1.4970    1.8360 ca        1 N6A     -0.135000
      6 CAV        -0.6140    0.3070    1.0960 ca        1 N6A     -0.218300
      7 CAU        -1.9520   -0.1540    0.6160 c3        1 N6A      0.110300
      8 NAN        -2.3950   -1.4390    1.1730 n         1 N6A     -0.353400
      9 CAO        -2.3730   -1.7130    2.5340 cc        1 N6A      0.352800
     10 NAP        -1.8270   -0.6860    3.4500 n4        1 N6A     -0.799600
     11 CAM        -2.9140   -2.4130    0.2650 c         1 N6A      0.807500
     12 OAL        -2.9140   -2.2330   -0.9550 o         1 N6A     -0.486500
     13 NAD        -3.4480   -3.6190    0.8070 n         1 N6A     -0.436100
     14 CAE        -3.4300   -3.8900    2.1410 cd        1 N6A      0.500700
     15 OAA        -3.9160   -5.0140    2.5420 os        1 N6A     -0.444800
     16 CAF        -2.8300   -2.9160    3.0790 cc        1 N6A     -0.113600
     17 NAG        -2.7590   -3.1490    4.4680 nh        1 N6A     -0.736000
     18 CAB        -1.6670   -3.9950    4.9050 c3        1 N6A      0.142100
     19 SAH        -5.4540   -5.7030    3.3950 sy        1 N6A      1.741800
     20 OAQ        -5.1030   -5.0800    4.5590 o         1 N6A     -0.599800
     21 OAC        -6.2670   -5.0950    2.4890 o         1 N6A     -0.599800
     22 CAI        -5.2870   -7.2560    3.3130 ca        1 N6A     -0.575500
     23 CAJ        -4.6370   -7.9900    4.3400 ca        1 N6A      0.028500
     24 CAK        -4.5390   -9.3700    4.2880 ca        1 N6A     -0.148000
     25 CAT        -5.0850  -10.0730    3.2060 ca        1 N6A      0.033000
     26 CAS        -5.7290   -9.3760    2.1760 ca        1 N6A     -0.148000
     27 CAR        -5.8270   -7.9960    2.2280 ca        1 N6A      0.028500
     28 HAW         0.4890   -1.2670    0.0810 ha        1 N6A      0.146500
     29 HAX         2.7190   -0.3570    0.7130 ha        1 N6A      0.173000
     30 HBA         2.8820    1.7640    2.0280 ha        1 N6A      0.177000
     31 HAZ         0.8040    2.9640    2.7240 ha        1 N6A      0.173000
     32 HAY        -1.4270    2.0720    2.0850 ha        1 N6A      0.146500
     33 HAU1       -1.9120   -0.2650   -0.5140 h1        1 N6A      0.119700
     34 HAU2       -2.7510    0.6110    0.8540 h1        1 N6A      0.119700
     35 HAP1       -0.8080   -0.5830    3.2840 hn        1 N6A      0.498133
     36 HAP2       -2.0020   -0.9690    4.4300 hn        1 N6A      0.498133
     37 HAD        -3.8480   -4.2670    0.1450 hn        1 N6A      0.404500
     38 HAB1       -0.6890   -3.5420    4.5980 h1        1 N6A      0.065367
     39 HAB2       -1.7250   -5.0380    4.4910 h1        1 N6A      0.065367
     40 HAB3       -1.7140   -4.0470    6.0270 h1        1 N6A      0.065367
     41 HAJ        -4.2140   -7.4430    5.2030 ha        1 N6A      0.167000
     42 HAR        -6.3480   -7.4530    1.4160 ha        1 N6A      0.167000
     43 HAK        -4.0370   -9.9200    5.1030 ha        1 N6A      0.184500
     44 HAT        -5.0110  -11.1750    3.1670 ha        1 N6A      0.184000
     45 HAS        -6.1640   -9.9290    1.3250 ha        1 N6A      0.184500
     46 HAP3       -2.2720    0.2270    3.2670 hn        1 N6A      0.498133
     47 HAG1       -3.6460   -3.4680    4.8330 hn        1 N6A      0.447800
@<TRIPOS>BOND
     1    1    2 ar  
     2    1    6 ar  
     3    1   28 1   
     4    2    3 ar  
     5    2   29 1   
     6    3    4 ar  
     7    3   30 1   
     8    4    5 ar  
     9    4   31 1   
    10    5    6 ar  
    11    5   32 1   
    12    6    7 1   
    13    7    8 1   
    14    7   33 1   
    15    7   34 1   
    16    8    9 2   
    17    8   11 1   
    18    9   10 1   
    19    9   16 1   
    20   10   35 1   
    21   10   36 1   
    22   10   46 1   
    23   11   12 2   
    24   11   13 1   
    25   13   14 1   
    26   13   37 1   
    27   14   15 1   
    28   14   16 2   
    29   15   19 1   
    30   16   17 1   
    31   17   18 1   
    32   17   47 1   
    33   18   38 1   
    34   18   39 1   
    35   18   40 1   
    36   19   20 2   
    37   19   21 2   
    38   19   22 1   
    39   22   23 ar  
    40   22   27 ar  
    41   23   24 ar  
    42   23   41 1   
    43   24   25 ar  
    44   24   43 1   
    45   25   26 ar  
    46   25   44 1   
    47   26   27 ar  
    48   26   45 1   
    49   27   42 1   
@<TRIPOS>SUBSTRUCTURE
     1 N6A         1 TEMP              0 ****  ****    0 ROOT
