@<TRIPOS>MOLECULE
N6A
   47    49     1     0     0
SMALL
bcc


@<TRIPOS>ATOM
      1 CAW         0.2240   -0.4160    0.3800 ca        1 N6A     -0.135000
      2 CAX         1.5730   -0.0640    0.4550 ca        1 N6A     -0.111000
      3 CBA         1.9710    1.0270    1.2280 ca        1 N6A     -0.077000
      4 CAZ         1.0180    1.7680    1.9340 ca        1 N6A     -0.111000
      5 CAY        -0.3280    1.4170    1.8690 ca        1 N6A     -0.135000
      6 CAV        -0.7310    0.3200    1.0900 ca        1 N6A     -0.218300
      7 CAU        -2.1890    0.0460    0.9090 c3        1 N6A      0.110300
      8 NAN        -2.6480   -1.2340    1.4660 n         1 N6A     -0.355400
      9 CAO        -2.3570   -1.6350    2.7620 cc        1 N6A      0.358800
     10 NAP        -1.4990   -0.7600    3.5930 nz        1 N6A     -0.800600
     11 CAM        -3.4690   -2.0640    0.6390 c         1 N6A      0.807500
     12 OAL        -3.7240   -1.7640   -0.5300 o         1 N6A     -0.482500
     13 NAD        -4.0000   -3.2600    1.2010 ns        1 N6A     -0.453100
     14 CAE        -3.7240   -3.6530    2.4750 cd        1 N6A      0.489700
     15 OAA        -4.2270   -4.7370    2.9620 os        1 N6A     -0.421800
     16 CAF        -2.8300   -2.8250    3.3170 cc        1 N6A     -0.114600
     17 NAG        -2.5010   -3.1830    4.6440 nu        1 N6A     -0.723000
     18 CAB        -1.5770   -4.2920    4.7780 c3        1 N6A      0.136100
     19 SAH        -5.7590   -5.8150    2.6820 sy        1 N6A      1.732800
     20 OAQ        -6.4720   -5.1250    3.6110 o         1 N6A     -0.598300
     21 OAC        -5.7720   -5.4670    1.3590 o         1 N6A     -0.598300
     22 CAI        -5.2900   -7.2660    3.0420 ca        1 N6A     -0.575500
     23 CAJ        -5.4490   -7.7820    4.3550 ca        1 N6A      0.026500
     24 CAK        -5.1010   -9.0870    4.6630 ca        1 N6A     -0.149000
     25 CAT        -4.5800   -9.9270    3.6720 ca        1 N6A      0.029000
     26 CAS        -4.4060   -9.4430    2.3690 ca        1 N6A     -0.149000
     27 CAR        -4.7530   -8.1390    2.0610 ca        1 N6A      0.026500
     28 HAW        -0.0870   -1.2510   -0.2670 ha        1 N6A      0.146000
     29 HAX         2.3210   -0.6360   -0.1200 ha        1 N6A      0.173000
     30 HBA         3.0340    1.3200    1.2660 ha        1 N6A      0.177000
     31 HAZ         1.3300    2.6490    2.5200 ha        1 N6A      0.173000
     32 HAY        -1.0780    2.0530    2.3660 ha        1 N6A      0.146000
     33 HAU1       -2.4200    0.0380   -0.2030 h1        1 N6A      0.120200
     34 HAU2       -2.8140    0.8620    1.3810 h1        1 N6A      0.120200
     35 HAP1       -0.5430   -0.7290    3.1900 hn        1 N6A      0.498133
     36 HAP2       -1.4640   -1.1250    4.5610 hn        1 N6A      0.498133
     37 HAD        -4.6160   -3.8000    0.5970 hn        1 N6A      0.424500
     38 HAB1       -0.6110   -4.0440    4.2650 h1        1 N6A      0.067700
     39 HAB2       -1.3820   -4.4340    5.8760 h1        1 N6A      0.067700
     40 HAB3       -1.9770   -5.2500    4.3510 h1        1 N6A      0.067700
     41 HAJ        -5.8750   -7.1280    5.1400 ha        1 N6A      0.169000
     42 HAR        -4.6290   -7.7690    1.0260 ha        1 N6A      0.169000
     43 HAK        -5.2450   -9.4690    5.6890 ha        1 N6A      0.184000
     44 HAT        -4.3110  -10.9710    3.9150 ha        1 N6A      0.183000
     45 HAS        -4.0010  -10.1070    1.5850 ha        1 N6A      0.184000
     46 HAP3       -1.8720    0.2030    3.5980 hn        1 N6A      0.498133
     47 HAG1       -3.3420   -3.3420    5.1790 hn        1 N6A      0.425800
@<TRIPOS>BOND
     1    1    2 ar  
     2    1    6 ar  
     3    1   28 1   
     4    2    3 ar  
     5    2   29 1   
     6    3    4 ar  
     7    3   30 1   
     8    4    5 ar  
     9    4   31 1   
    10    5    6 ar  
    11    5   32 1   
    12    6    7 1   
    13    7    8 1   
    14    7   33 1   
    15    7   34 1   
    16    8    9 2   
    17    8   11 1   
    18    9   10 1   
    19    9   16 1   
    20   10   35 1   
    21   10   36 1   
    22   10   46 1   
    23   11   12 2   
    24   11   13 1   
    25   13   14 1   
    26   13   37 1   
    27   14   15 1   
    28   14   16 2   
    29   15   19 1   
    30   16   17 1   
    31   17   18 1   
    32   17   47 1   
    33   18   38 1   
    34   18   39 1   
    35   18   40 1   
    36   19   20 2   
    37   19   21 2   
    38   19   22 1   
    39   22   23 ar  
    40   22   27 ar  
    41   23   24 ar  
    42   23   41 1   
    43   24   25 ar  
    44   24   43 1   
    45   25   26 ar  
    46   25   44 1   
    47   26   27 ar  
    48   26   45 1   
    49   27   42 1   
@<TRIPOS>SUBSTRUCTURE
     1 N6A         1 TEMP              0 ****  ****    0 ROOT
