@<TRIPOS>MOLECULE
N6A
   45    47     1     0     0
SMALL
bcc


@<TRIPOS>ATOM
      1 CAW        -4.9300   -0.0310   -0.6580 ca        1 N6A     -0.119000
      2 CAX        -5.8460    0.7920   -1.3110 ca        1 N6A     -0.127000
      3 CBA        -6.1940    2.0260   -0.7610 ca        1 N6A     -0.118000
      4 CAZ        -5.6270    2.4360    0.4460 ca        1 N6A     -0.127000
      5 CAY        -4.7050    1.6190    1.0990 ca        1 N6A     -0.119000
      6 CAV        -4.3510    0.3830    0.5470 ca        1 N6A     -0.130300
      7 CAU        -3.4020   -0.5230    1.2750 c3        1 N6A      0.128300
      8 NAN        -2.2100   -0.8850    0.5270 n         1 N6A     -0.390000
      9 CAO        -1.1710    0.0390    0.3010 cc        1 N6A      0.383600
     10 NAP        -1.3320    1.3470    0.7020 nh        1 N6A     -0.865600
     11 CAM        -2.1020   -2.2230    0.0540 c         1 N6A      0.821500
     12 OAL        -3.0760   -3.0020    0.1490 o         1 N6A     -0.644500
     13 NAD        -0.9030   -2.6460   -0.5130 n         1 N6A     -0.577500
     14 CAE         0.2130   -1.8060   -0.6680 c         1 N6A      0.744700
     15 OAA         1.2530   -2.3050   -1.1390 o         1 N6A     -0.643500
     16 CAF         0.0440   -0.4030   -0.2770 cd        1 N6A     -0.202200
     17 NAG         1.0980    0.4880   -0.5340 nh        1 N6A     -0.644300
     18 CAB         1.2500    0.9300   -1.8910 c3        1 N6A      0.219100
     19 SAH         2.1460    0.8610    0.6740 sy        1 N6A      1.501200
     20 OAQ         1.9590    2.2300    0.9920 o         1 N6A     -0.657800
     21 OAC         2.0080   -0.0130    1.7680 o         1 N6A     -0.657800
     22 CAI         3.6560    0.6610   -0.0400 ca        1 N6A     -0.388500
     23 CAJ         4.5550    1.7340   -0.1090 ca        1 N6A     -0.013000
     24 CAK         5.8310    1.5620   -0.6360 ca        1 N6A     -0.160500
     25 CAT         6.2260    0.3070   -1.1060 ca        1 N6A     -0.065000
     26 CAS         5.3400   -0.7680   -1.0490 ca        1 N6A     -0.160500
     27 CAR         4.0630   -0.5900   -0.5200 ca        1 N6A     -0.013000
     28 HAW        -4.6660   -1.0150   -1.0780 ha        1 N6A      0.141500
     29 HAX        -6.2990    0.4630   -2.2590 ha        1 N6A      0.138500
     30 HBA        -6.9190    2.6740   -1.2760 ha        1 N6A      0.137000
     31 HAZ        -5.9070    3.4050    0.8850 ha        1 N6A      0.138500
     32 HAY        -4.2730    1.9420    2.0580 ha        1 N6A      0.141500
     33 HAU1       -3.0800   -0.0490    2.2490 h1        1 N6A      0.088700
     34 HAU2       -3.9570   -1.4780    1.5300 h1        1 N6A      0.088700
     35 HAP1       -2.2230    1.6980    0.9580 hn        1 N6A      0.457800
     36 HAP2       -0.6080    2.0020    0.5150 hn        1 N6A      0.457800
     37 HAD        -0.8390   -3.6060   -0.7810 hn        1 N6A      0.356500
     38 HAB1        2.1320    1.6220   -1.9560 h1        1 N6A      0.042367
     39 HAB2        1.4170    0.0550   -2.5770 h1        1 N6A      0.042367
     40 HAB3        0.3310    1.4790   -2.2280 h1        1 N6A      0.042367
     41 HAJ         4.2410    2.7250    0.2670 ha        1 N6A      0.165500
     42 HAR         3.3600   -1.4450   -0.4880 ha        1 N6A      0.165500
     43 HAK         6.5280    2.4120   -0.6800 ha        1 N6A      0.142000
     44 HAT         7.2360    0.1690   -1.5210 ha        1 N6A      0.135000
     45 HAS         5.6460   -1.7580   -1.4200 ha        1 N6A      0.142000
@<TRIPOS>BOND
     1    1    2 ar  
     2    1    6 ar  
     3    1   28 1   
     4    2    3 ar  
     5    2   29 1   
     6    3    4 ar  
     7    3   30 1   
     8    4    5 ar  
     9    4   31 1   
    10    5    6 ar  
    11    5   32 1   
    12    6    7 1   
    13    7    8 1   
    14    7   33 1   
    15    7   34 1   
    16    8    9 1   
    17    8   11 1   
    18    9   10 1   
    19    9   16 2   
    20   10   35 1   
    21   10   36 1   
    22   11   12 2   
    23   11   13 1   
    24   13   14 1   
    25   13   37 1   
    26   14   15 2   
    27   14   16 1   
    28   16   17 1   
    29   17   18 1   
    30   17   19 1   
    31   18   38 1   
    32   18   39 1   
    33   18   40 1   
    34   19   20 2   
    35   19   21 2   
    36   19   22 1   
    37   22   23 ar  
    38   22   27 ar  
    39   23   24 ar  
    40   23   41 1   
    41   24   25 ar  
    42   24   43 1   
    43   25   26 ar  
    44   25   44 1   
    45   26   27 ar  
    46   26   45 1   
    47   27   42 1   
@<TRIPOS>SUBSTRUCTURE
     1 N6A         1 TEMP              0 ****  ****    0 ROOT
