@<TRIPOS>MOLECULE
N6C
   22    21     1     0     0
SMALL
bcc


@<TRIPOS>ATOM
      1 O1          0.0040   -0.1760    0.0250 o         1 N6C     -0.211500
      2 N1          1.2000   -0.0750    0.0420 no        1 N6C      0.229300
      3 O2          1.8340   -0.0900    1.0610 o         1 N6C     -0.211500
      4 C1          1.9520    0.0520   -1.2690 c3        1 N6C     -0.077700
      5 C2          1.3210    1.0500   -2.2240 c3        1 N6C     -0.094400
      6 C3          2.0620    1.0270   -3.5440 c3        1 N6C     -0.078400
      7 C4          1.4700    2.0310   -4.5100 c3        1 N6C     -0.079400
      8 C5          2.2010    2.0120   -5.8360 c3        1 N6C     -0.079400
      9 C6          1.6160    3.0100   -6.8010 c3        1 N6C     -0.093100
     10 H1          3.0060    0.3480   -1.0100 h1        1 N6C      0.094700
     11 H1A         1.9510   -0.9790   -1.7180 h1        1 N6C      0.094700
     12 H2          0.2390    0.7950   -2.3860 hc        1 N6C      0.070200
     13 H2A         1.3610    2.0810   -1.7830 hc        1 N6C      0.070200
     14 H3          2.0100   -0.0010   -3.9910 hc        1 N6C      0.044200
     15 H3A         3.1460    1.2620   -3.3760 hc        1 N6C      0.044200
     16 H4          1.5240    3.0600   -4.0660 hc        1 N6C      0.045700
     17 H4A         0.3840    1.7980   -4.6760 hc        1 N6C      0.045700
     18 H5          3.2860    2.2420   -5.6680 hc        1 N6C      0.039700
     19 H5A         2.1460    0.9820   -6.2790 hc        1 N6C      0.039700
     20 H6          1.6840    4.0450   -6.3890 hc        1 N6C      0.035033
     21 H6A         0.5410    2.7830   -7.0010 hc        1 N6C      0.035033
     22 H6B         2.1680    2.9800   -7.7710 hc        1 N6C      0.035033
@<TRIPOS>BOND
     1    1    2 1   
     2    2    3 1   
     3    2    4 1   
     4    4    5 1   
     5    4   10 1   
     6    4   11 1   
     7    5    6 1   
     8    5   12 1   
     9    5   13 1   
    10    6    7 1   
    11    6   14 1   
    12    6   15 1   
    13    7    8 1   
    14    7   16 1   
    15    7   17 1   
    16    8    9 1   
    17    8   18 1   
    18    8   19 1   
    19    9   20 1   
    20    9   21 1   
    21    9   22 1   
@<TRIPOS>SUBSTRUCTURE
     1 N6C         1 TEMP              0 ****  ****    0 ROOT
