@<TRIPOS>MOLECULE
N6C
   22    21     1     0     0
SMALL
bcc


@<TRIPOS>ATOM
      1 O1          2.9200   -1.1750   -0.4070 o         1 N6C     -0.211500
      2 N1          2.7860   -0.0330   -0.0650 no        1 N6C      0.229300
      3 O2          3.6770    0.5990    0.4340 o         1 N6C     -0.211500
      4 C1          1.4550    0.6580   -0.2900 c3        1 N6C     -0.077700
      5 C2          0.2660   -0.1910    0.1230 c3        1 N6C     -0.094400
      6 C3         -1.0190    0.5230   -0.2430 c3        1 N6C     -0.078400
      7 C4         -2.2240   -0.2900    0.1790 c3        1 N6C     -0.079400
      8 C5         -3.5140    0.4140   -0.1880 c3        1 N6C     -0.079400
      9 C6         -4.7170   -0.3910    0.2310 c3        1 N6C     -0.093100
     10 H1          1.4880    1.6210    0.2900 h1        1 N6C      0.094700
     11 H1A         1.4160    0.8840   -1.3910 h1        1 N6C      0.094700
     12 H2          0.3100   -1.1890   -0.3900 hc        1 N6C      0.070200
     13 H2A         0.2950   -0.3800    1.2280 hc        1 N6C      0.070200
     14 H3         -1.0500    1.5280    0.2550 hc        1 N6C      0.044200
     15 H3A        -1.0530    0.6980   -1.3510 hc        1 N6C      0.044200
     16 H4         -2.1910   -1.2970   -0.3160 hc        1 N6C      0.045700
     17 H4A        -2.1920   -0.4640    1.2870 hc        1 N6C      0.045700
     18 H5         -3.5430    1.4210    0.3050 hc        1 N6C      0.039700
     19 H5A        -3.5430    0.5870   -1.2960 hc        1 N6C      0.039700
     20 H6         -4.7180   -1.3890   -0.2690 hc        1 N6C      0.035033
     21 H6A        -4.7190   -0.5530    1.3360 hc        1 N6C      0.035033
     22 H6B        -5.6570    0.1450   -0.0490 hc        1 N6C      0.035033
@<TRIPOS>BOND
     1    1    2 1   
     2    2    3 1   
     3    2    4 1   
     4    4    5 1   
     5    4   10 1   
     6    4   11 1   
     7    5    6 1   
     8    5   12 1   
     9    5   13 1   
    10    6    7 1   
    11    6   14 1   
    12    6   15 1   
    13    7    8 1   
    14    7   16 1   
    15    7   17 1   
    16    8    9 1   
    17    8   18 1   
    18    8   19 1   
    19    9   20 1   
    20    9   21 1   
    21    9   22 1   
@<TRIPOS>SUBSTRUCTURE
     1 N6C         1 TEMP              0 ****  ****    0 ROOT
