@<TRIPOS>MOLECULE
N6G
   37    33     1     0     0
SMALL
bcc


@<TRIPOS>ATOM
      1 P           2.4160    4.9780   -1.3810 p3        1 N6G      2.526000
      2 OP1         1.2690    5.2270   -2.3310 o         1 N6G     -1.260500
      3 OP2         3.6490    5.6900   -1.8840 os        1 N6G     -1.226000
      4 O5'         2.7020    3.4260   -1.2950 os        1 N6G     -0.715000
      5 C5'         1.8480    2.6290   -0.5080 c3        1 N6G      0.077000
      6 C4'         1.6440    1.3050   -1.1760 c3        1 N6G     -0.061000
      7 O4'         1.9390    0.3390   -0.3550 os        1 N6G     -0.290000
      8 C1'         0.9600   -0.8050   -0.7150 c3        1 N6G      0.128000
      9 N9          0.4000   -1.2670    0.3520 n3        1 N6G     -0.179000
     10 C4         -0.7360   -1.7790    0.8980 c1        1 N6G      0.075000
     11 N3         -2.0100   -1.8840    0.4250 n1        1 N6G     -0.224000
     12 C2         -2.9780   -2.4600    1.1930 c1        1 N6G      0.131000
     13 N2         -4.2990   -2.5870    0.6920 n2        1 N6G     -0.313000
     14 N1         -2.6720   -2.9330    2.4370 n2        1 N6G     -0.309000
     15 C6         -1.4180   -2.8310    2.9060 c1        1 N6G      0.203000
     16 N6         -1.1130   -3.2760    4.2180 n2        1 N6G     -0.313000
     17 C5         -0.4330   -2.2460    2.1260 c1        1 N6G     -0.241000
     18 N7          0.8910   -2.0240    2.3450 n1        1 N6G     -0.158000
     19 C8          1.4010   -1.4200    1.2470 c1        1 N6G     -0.002000
     20 C2'        -0.1140   -0.1680   -1.6590 c3        1 N6G     -0.009000
     21 O2'         0.0970   -0.6180   -3.0520 oh        1 N6G     -0.343000
     22 C3'         0.0760    1.1120   -1.5660 c3        1 N6G      0.018000
     23 O3'        -0.2040    1.7520   -2.8400 oh        1 N6G     -0.411000
     24 OP3         2.0570    5.5010   -0.0100 o         1 N6G     -1.260500
     25 H5'         0.9840    3.0790   -0.4050 h1        1 N6G      0.037000
     26 H5''        2.2510    2.4910    0.3740 h1        1 N6G      0.037000
     27 H4'         2.1990    1.2450   -1.9790 h1        1 N6G      0.120000
     28 H1'         1.4360   -1.5210   -1.1810 h2        1 N6G      0.129000
     29 HN21       -4.9960   -2.7180    1.2680 hn        1 N6G      0.194000
     30 HN22       -4.4500   -2.5590   -0.2090 hn        1 N6G      0.194000
     31 HN61       -0.2420   -3.3870    4.4720 hn        1 N6G      0.194000
     32 HN62       -1.7870   -3.4320    4.8160 hn        1 N6G      0.194000
     33 H8          2.3300   -1.1480    1.1220 DU        1 N6G      0.254000
     34 H2'        -1.0150   -0.4020   -1.3570 h1        1 N6G      0.106000
     35 HO2'       -0.6370   -1.0230   -3.3470 ho        1 N6G      0.229000
     36 H3'        -0.4940    1.4880   -0.8660 h1        1 N6G      0.156000
     37 HO3'       -0.9540    2.2250   -2.7760 ho        1 N6G      0.314000
@<TRIPOS>BOND
     1    1    2 1   
     2    1    4 1   
     3    1   24 1   
     4    4    5 1   
     5    5    6 1   
     6    5   25 1   
     7    5   26 1   
     8    6    7 1   
     9    6   22 1   
    10    6   27 1   
    11    7    8 1   
    12    8    9 1   
    13    8   20 1   
    14    8   28 1   
    15    9   10 1   
    16    9   19 1   
    17   10   17 1   
    18   11   12 1   
    19   12   14 1   
    20   13   29 1   
    21   13   30 1   
    22   14   15 1   
    23   15   17 1   
    24   16   31 1   
    25   16   32 1   
    26   18   19 1   
    27   20   21 1   
    28   20   22 1   
    29   20   34 1   
    30   21   35 1   
    31   22   23 1   
    32   22   36 1   
    33   23   37 1   
@<TRIPOS>SUBSTRUCTURE
     1 N6G         1 TEMP              0 ****  ****    0 ROOT
