@<TRIPOS>MOLECULE
N6G
   37    39     1     0     0
SMALL
bcc


@<TRIPOS>ATOM
      1 P           5.7670    2.3840   -0.1570 p5        1 N6G      1.355900
      2 OP1         6.9980    3.2140    0.0050 o         1 N6G     -0.932167
      3 OP2         5.6700    1.5650   -1.4280 o         1 N6G     -0.932167
      4 O5'         4.5140    3.5600   -0.3440 os        1 N6G     -0.567200
      5 C5'         3.3750    3.1460   -0.9850 c3        1 N6G      0.209400
      6 C4'         2.2400    2.8390    0.0200 c3        1 N6G      0.071100
      7 O4'         0.9760    2.7600   -0.6850 os        1 N6G     -0.444600
      8 C1'         0.3730    1.4810   -0.5380 c3        1 N6G      0.218800
      9 N9          0.1990    0.8110   -1.8210 na        1 N6G     -0.285000
     10 C4          1.2710    0.3830   -2.6480 ca        1 N6G      0.506800
     11 N3          2.5120    0.0090   -2.3010 nb        1 N6G     -0.735000
     12 C2          3.3670   -0.2080   -3.3850 ca        1 N6G      0.927900
     13 N2          4.6950   -0.4860   -3.0760 nh        1 N6G     -0.890500
     14 N1          2.9790   -0.2240   -4.7330 nb        1 N6G     -0.850000
     15 C6          1.6850    0.0490   -5.0390 ca        1 N6G      0.717200
     16 N6          1.2340   -0.0700   -6.3690 nh        1 N6G     -0.920500
     17 C5          0.7620    0.4170   -4.0200 ca        1 N6G     -0.292200
     18 N7         -0.5600    0.9010   -4.0250 nc        1 N6G     -0.566100
     19 C8         -0.8340    1.1650   -2.7440 cd        1 N6G      0.381700
     20 C2'         1.2040    0.6610    0.5020 c3        1 N6G      0.109100
     21 O2'         0.4180    0.5170    1.6720 oh        1 N6G     -0.568800
     22 C3'         2.4630    1.5120    0.7680 c3        1 N6G      0.136100
     23 O3'         2.6430    1.7240    2.1470 oh        1 N6G     -0.638800
     24 OP3         5.2350    1.6500    1.0520 o         1 N6G     -0.932167
     25 H5'         3.0000    3.9780   -1.6510 h1        1 N6G      0.006700
     26 H5''        3.5820    2.2400   -1.6180 h1        1 N6G      0.006700
     27 H4'         2.1220    3.6880    0.7430 h1        1 N6G      0.060700
     28 H1'        -0.6730    1.6690   -0.1480 h2        1 N6G      0.048700
     29 HN21        5.0240   -0.0560   -2.1970 hn        1 N6G      0.459300
     30 HN22        5.3290   -0.3250   -3.8290 hn        1 N6G      0.459300
     31 HN61        0.4680    0.5380   -6.5630 hn        1 N6G      0.386300
     32 HN62        1.9550   -0.0160   -7.0570 hn        1 N6G      0.386300
     33 H8         -1.7750    1.5850   -2.3770 h5        1 N6G      0.044800
     34 H2'         1.5040   -0.3470    0.1150 h1        1 N6G      0.065700
     35 HO2'       -0.1250   -0.2670    1.5280 ho        1 N6G      0.363000
     36 H3'         3.3920    1.0070    0.3400 h1        1 N6G      0.153700
     37 HO3'        3.6160    1.7870    2.2620 ho        1 N6G      0.478000
@<TRIPOS>BOND
     1    1    2 1   
     2    1    3 1   
     3    1    4 1   
     4    1   24 1   
     5    4    5 1   
     6    5    6 1   
     7    5   25 1   
     8    5   26 1   
     9    6    7 1   
    10    6   22 1   
    11    6   27 1   
    12    7    8 1   
    13    8    9 1   
    14    8   20 1   
    15    8   28 1   
    16    9   10 1   
    17    9   19 1   
    18   10   11 ar  
    19   10   17 ar  
    20   11   12 ar  
    21   12   13 1   
    22   12   14 ar  
    23   13   29 1   
    24   13   30 1   
    25   14   15 ar  
    26   15   16 1   
    27   15   17 ar  
    28   16   31 1   
    29   16   32 1   
    30   17   18 1   
    31   18   19 2   
    32   19   33 1   
    33   20   21 1   
    34   20   22 1   
    35   20   34 1   
    36   21   35 1   
    37   22   23 1   
    38   22   36 1   
    39   23   37 1   
@<TRIPOS>SUBSTRUCTURE
     1 N6G         1 TEMP              0 ****  ****    0 ROOT
