@<TRIPOS>MOLECULE
N6M
   18    19     1     0     0
SMALL
bcc


@<TRIPOS>ATOM
      1 C6          1.0420   -0.1000    0.0400 ca        1 N6M      0.754200
      2 C5         -0.3460   -0.4720    0.0110 ca        1 N6M     -0.230200
      3 C4         -1.3260    0.6100    0.0120 ca        1 N6M      0.452800
      4 C2          0.3430    2.1340    0.0450 ca        1 N6M      0.685900
      5 C8         -2.3120   -1.4100   -0.0310 cc        1 N6M      0.399700
      6 C11         3.4020   -0.7960   -0.0190 c3        1 N6M      0.204100
      7 N6          2.0070   -1.0810    0.1060 nh        1 N6M     -0.854900
      8 N1          1.3650    1.2350    0.0440 nb        1 N6M     -0.789000
      9 N3         -0.9950    1.9370    0.0310 nb        1 N6M     -0.733000
     10 N9         -2.5740   -0.0220   -0.0140 na        1 N6M     -0.379000
     11 N7         -1.0040   -1.7100   -0.0180 nd        1 N6M     -0.542100
     12 H9         -3.4530    0.4220   -0.0160 hn        1 N6M      0.318700
     13 H8         -3.1290   -2.1420   -0.0530 h5        1 N6M      0.072800
     14 H6          1.7030   -2.0140   -0.0620 hn        1 N6M      0.450800
     15 H111        3.6560   -0.4090   -1.0440 h1        1 N6M      0.046033
     16 H112        3.7090   -0.0220    0.7350 h1        1 N6M      0.046033
     17 H113        3.9780   -1.7400    0.1690 h1        1 N6M      0.046033
     18 H2          0.6660    3.1980    0.0550 h5        1 N6M      0.052100
@<TRIPOS>BOND
     1    1    2 ar  
     2    1    7 1   
     3    1    8 ar  
     4    2    3 ar  
     5    2   11 1   
     6    3    9 ar  
     7    3   10 1   
     8    4    8 ar  
     9    4    9 ar  
    10    4   18 1   
    11    5   10 1   
    12    5   11 2   
    13    5   13 1   
    14    6    7 1   
    15    6   15 1   
    16    6   16 1   
    17    6   17 1   
    18    7   14 1   
    19   10   12 1   
@<TRIPOS>SUBSTRUCTURE
     1 N6M         1 TEMP              0 ****  ****    0 ROOT
