@<TRIPOS>MOLECULE
N6M
   18    19     1     0     0
SMALL
bcc


@<TRIPOS>ATOM
      1 C6         -0.0470   -0.0420    0.0150 ca        1 N6M      0.754200
      2 C5          1.3900   -0.0110   -0.0060 ca        1 N6M     -0.230200
      3 C4          2.0750   -0.0210    1.2820 ca        1 N6M      0.452800
      4 C2          0.0840   -0.0620    2.3510 ca        1 N6M      0.685900
      5 C8          3.5250    0.0360   -0.4350 cc        1 N6M      0.399700
      6 C11        -2.1660    0.0240   -1.2370 c3        1 N6M      0.204100
      7 N6         -0.7430   -0.1010   -1.1730 nu        1 N6M     -0.854900
      8 N1         -0.6880   -0.0550    1.2300 nb        1 N6M     -0.789000
      9 N3          1.4290   -0.0480    2.4870 nb        1 N6M     -0.733000
     10 N9          3.4400    0.0090    0.9740 na        1 N6M     -0.379000
     11 N7          2.3300    0.0260   -1.0460 nd        1 N6M     -0.542100
     12 H9          4.1830    0.0070    1.6200 hn        1 N6M      0.318700
     13 H8          4.4960    0.0620   -0.9450 h5        1 N6M      0.072800
     14 H6         -0.2210    0.0740   -2.0020 hn        1 N6M      0.450800
     15 H111       -2.4940   -0.1570   -2.2940 h1        1 N6M      0.046033
     16 H112       -2.6520   -0.7360   -0.5670 h1        1 N6M      0.046033
     17 H113       -2.5080    1.0460   -0.9160 h1        1 N6M      0.046033
     18 H2         -0.4890   -0.0800    3.3040 h5        1 N6M      0.052100
@<TRIPOS>BOND
     1    1    2 ar  
     2    1    7 1   
     3    1    8 ar  
     4    2    3 ar  
     5    2   11 1   
     6    3    9 ar  
     7    3   10 1   
     8    4    8 ar  
     9    4    9 ar  
    10    4   18 1   
    11    5   10 1   
    12    5   11 2   
    13    5   13 1   
    14    6    7 1   
    15    6   15 1   
    16    6   16 1   
    17    6   17 1   
    18    7   14 1   
    19   10   12 1   
@<TRIPOS>SUBSTRUCTURE
     1 N6M         1 TEMP              0 ****  ****    0 ROOT
