@<TRIPOS>MOLECULE
N6M
   19    20     1     0     0
SMALL
bcc


@<TRIPOS>ATOM
      1 C6         -0.0670    0.4370    0.0960 ca        1 N6M      0.533200
      2 C5          1.2960    0.1000   -0.0010 ca        1 N6M     -0.138200
      3 C4          2.0120   -0.0430    1.2900 ca        1 N6M      0.454800
      4 C2          0.0970    0.4510    2.4110 ca        1 N6M      0.674900
      5 C8          3.3600   -0.4120   -0.4740 cc        1 N6M      0.505700
      6 C11        -1.8440   -0.4870   -1.3290 c3        1 N6M      0.086100
      7 N6         -0.8590    0.6080   -1.1430 n4        1 N6M     -0.738700
      8 N1         -0.6750    0.6130    1.2960 nb        1 N6M     -0.682000
      9 N3          1.4130    0.1310    2.4940 nb        1 N6M     -0.615000
     10 N9          3.3250   -0.3700    0.9330 na        1 N6M     -0.359000
     11 N7          2.1780   -0.1390   -1.0600 nd        1 N6M     -0.582100
     12 H9          4.0750   -0.5350    1.5610 hn        1 N6M      0.353700
     13 H8          4.2900   -0.6500   -1.0190 h5        1 N6M      0.111800
     14 H6         -0.2050    0.6290   -1.9400 hn        1 N6M      0.475300
     15 H111       -2.5750   -0.4860   -0.4750 hx        1 N6M      0.113700
     16 H112       -2.3880   -0.3170   -2.2970 hx        1 N6M      0.113700
     17 H113       -1.3060   -1.4720   -1.3600 hx        1 N6M      0.113700
     18 H2         -0.4330    0.6040    3.3810 h5        1 N6M      0.102100
     19 H62        -1.3550    1.5100   -1.0990 hn        1 N6M      0.475300
@<TRIPOS>BOND
     1    1    2 ar  
     2    1    7 1   
     3    1    8 ar  
     4    2    3 ar  
     5    2   11 1   
     6    3    9 ar  
     7    3   10 1   
     8    4    8 ar  
     9    4    9 ar  
    10    4   18 1   
    11    5   10 1   
    12    5   11 2   
    13    5   13 1   
    14    6    7 1   
    15    6   15 1   
    16    6   16 1   
    17    6   17 1   
    18    7   14 1   
    19    7   19 1   
    20   10   12 1   
@<TRIPOS>SUBSTRUCTURE
     1 N6M         1 TEMP              0 ****  ****    0 ROOT
