@<TRIPOS>MOLECULE
N6M
   18    12     1     0     0
SMALL
bcc


@<TRIPOS>ATOM
      1 C6         -0.6890    0.1450   -0.0020 c1        1 N6M      0.233000
      2 C5          0.6950    0.0950   -0.0390 c1        1 N6M     -0.089000
      3 C4          1.3960   -0.0160    1.1080 c1        1 N6M     -0.089000
      4 C2         -0.6210   -0.0300    2.3370 c1        1 N6M      0.023000
      5 C8          2.8280    0.0520   -0.5520 c1        1 N6M     -0.056000
      6 C11        -2.3830   -0.3930   -1.7060 c3        1 N6M     -0.072000
      7 N6         -1.5770    0.5650   -1.0260 n3        1 N6M     -0.299000
      8 N1         -1.3310    0.0830    1.1760 n1        1 N6M     -0.263000
      9 N3          0.7410   -0.0790    2.3020 n1        1 N6M     -0.207000
     10 N9          2.7180   -0.0430    0.7910 n1        1 N6M     -0.171000
     11 N7          1.5820    0.1380   -1.0690 n1        1 N6M     -0.171000
     12 H9          3.4100   -0.1120    1.3820 DU        1 N6M      0.235500
     13 H8          3.6620    0.0620   -1.0600 DU        1 N6M      0.235500
     14 H6         -1.6350    1.4480   -1.2460 hn        1 N6M      0.246000
     15 H111       -2.2470   -1.2790   -1.3070 h1        1 N6M      0.085333
     16 H112       -3.3290   -0.1400   -1.6270 h1        1 N6M      0.085333
     17 H113       -2.1300   -0.4190   -2.6540 h1        1 N6M      0.085333
     18 H2         -1.0890   -0.0750    3.1920 ha        1 N6M      0.189000
@<TRIPOS>BOND
     1    1    7 1   
     2    1    8 1   
     3    2    3 1   
     4    4    9 1   
     5    4   18 1   
     6    5   10 1   
     7    5   11 1   
     8    6    7 1   
     9    6   15 1   
    10    6   16 1   
    11    6   17 1   
    12    7   14 1   
@<TRIPOS>SUBSTRUCTURE
     1 N6M         1 TEMP              0 ****  ****    0 ROOT
