@<TRIPOS>MOLECULE
N6M
   18    19     1     0     0
SMALL
bcc


@<TRIPOS>ATOM
      1 C6         -0.0480   -0.0410    0.0160 ca        1 N6M      0.754200
      2 C5          1.3890   -0.0110   -0.0080 ca        1 N6M     -0.230200
      3 C4          2.0770   -0.0220    1.2790 ca        1 N6M      0.452800
      4 C2          0.0880   -0.0620    2.3520 ca        1 N6M      0.685900
      5 C8          3.5240    0.0340   -0.4410 cc        1 N6M      0.399700
      6 C11        -2.1690    0.0260   -1.2320 c3        1 N6M      0.204100
      7 N6         -0.7460   -0.1000   -1.1710 nh        1 N6M     -0.854900
      8 N1         -0.6860   -0.0540    1.2320 nb        1 N6M     -0.789000
      9 N3          1.4340   -0.0490    2.4860 nb        1 N6M     -0.733000
     10 N9          3.4410    0.0070    0.9690 na        1 N6M     -0.379000
     11 N7          2.3280    0.0250   -1.0490 nd        1 N6M     -0.542100
     12 H9          4.1860    0.0050    1.6140 hn        1 N6M      0.318700
     13 H8          4.4940    0.0600   -0.9520 h5        1 N6M      0.072800
     14 H6         -0.2250    0.0750   -2.0000 hn        1 N6M      0.450800
     15 H111       -2.4980   -0.1550   -2.2890 h1        1 N6M      0.046033
     16 H112       -2.5090    1.0480   -0.9100 h1        1 N6M      0.046033
     17 H113       -2.6540   -0.7340   -0.5610 h1        1 N6M      0.046033
     18 H2         -0.4840   -0.0800    3.3060 h5        1 N6M      0.052100
@<TRIPOS>BOND
     1    1    2 ar  
     2    1    7 1   
     3    1    8 ar  
     4    2    3 ar  
     5    2   11 1   
     6    3    9 ar  
     7    3   10 1   
     8    4    8 ar  
     9    4    9 ar  
    10    4   18 1   
    11    5   10 1   
    12    5   11 2   
    13    5   13 1   
    14    6    7 1   
    15    6   15 1   
    16    6   16 1   
    17    6   17 1   
    18    7   14 1   
    19   10   12 1   
@<TRIPOS>SUBSTRUCTURE
     1 N6M         1 TEMP              0 ****  ****    0 ROOT
