@<TRIPOS>MOLECULE
N6P
   49    53     1     0     0
SMALL
bcc


@<TRIPOS>ATOM
      1 C1         -0.0330    0.1660   -0.0890 ca        1 N6P     -0.093000
      2 C2          1.3810    0.2630   -0.1770 ca        1 N6P     -0.047000
      3 C3          2.1920    0.4080    0.9830 ca        1 N6P     -0.109000
      4 C4          3.5570    0.5000    0.8740 ca        1 N6P     -0.148000
      5 C5          4.1780    0.4540   -0.3980 ca        1 N6P     -0.141000
      6 C6          3.4200    0.3140   -1.5340 ca        1 N6P     -0.116000
      7 C7          2.0040    0.2140   -1.4510 ca        1 N6P     -0.030000
      8 C8          1.1920    0.0680   -2.6070 ca        1 N6P     -0.139000
      9 C9         -0.1740   -0.0240   -2.5020 ca        1 N6P     -0.074000
     10 C10        -0.8020    0.0290   -1.2270 cp        1 N6P     -0.116500
     11 C11        -2.2700   -0.0660   -1.1340 cp        1 N6P      0.510800
     12 N1         -2.8210   -0.8160   -0.1470 nb        1 N6P     -0.731000
     13 C12        -4.1810   -0.8810   -0.0830 ca        1 N6P      0.607900
     14 N2         -5.1090   -0.2900   -0.8720 nb        1 N6P     -0.675000
     15 C13        -4.5640    0.4680   -1.8630 ca        1 N6P      0.416800
     16 C14        -3.1020    0.6160   -2.0510 ca        1 N6P     -0.132200
     17 N3         -2.8640    1.4520   -3.1490 nc        1 N6P     -0.592100
     18 C15        -4.0830    1.7940   -3.6090 cd        1 N6P      0.478700
     19 N4         -5.1500    1.2490   -2.8660 na        1 N6P     -0.259000
     20 C16        -6.5790    1.3640   -3.1530 c3        1 N6P      0.215800
     21 O1         -6.8110    1.1090   -4.5250 os        1 N6P     -0.431600
     22 C17        -7.1660    2.7770   -2.8140 c3        1 N6P      0.102100
     23 O2         -8.3480    2.5890   -2.0670 oh        1 N6P     -0.615800
     24 C18        -7.3580    3.4460   -4.1940 c3        1 N6P      0.127100
     25 O3         -8.6480    4.0070   -4.2530 oh        1 N6P     -0.681800
     26 C19        -7.2000    2.3170   -5.2300 c3        1 N6P      0.049100
     27 C20        -6.1730    2.6360   -6.3450 c3        1 N6P      0.228400
     28 O4         -6.7970    3.1840   -7.4290 os        1 N6P     -0.552200
     29 P1         -6.6060    4.9190   -7.5410 p5        1 N6P      1.333900
     30 O5         -7.3410    5.2800   -6.2640 o         1 N6P     -0.928500
     31 O6         -5.1150    5.0510   -7.4330 o         1 N6P     -0.928500
     32 O7         -7.2710    5.2690   -8.8330 o         1 N6P     -0.928500
     33 H1         -0.5020    0.2050    0.9070 ha        1 N6P      0.143000
     34 H2          1.6990    0.4470    1.9660 ha        1 N6P      0.127000
     35 H3          4.1850    0.6150    1.7690 ha        1 N6P      0.118000
     36 H4          5.2720    0.5340   -0.4610 ha        1 N6P      0.118000
     37 H5          3.8910    0.2810   -2.5280 ha        1 N6P      0.127000
     38 H6          1.6770    0.0370   -3.5940 ha        1 N6P      0.132000
     39 H7         -0.7970   -0.1310   -3.4050 ha        1 N6P      0.166000
     40 H8         -4.5860   -1.5100    0.7350 h5        1 N6P      0.034100
     41 H9         -4.2840    2.4350   -4.4930 h5        1 N6P      0.130800
     42 H10        -7.1070    0.5530   -2.5700 h2        1 N6P      0.093700
     43 H11        -6.4840    3.3740   -2.1560 h1        1 N6P      0.066700
     44 H12        -9.0990    2.7080   -2.6650 ho        1 N6P      0.432000
     45 H13        -6.5870    4.2510   -4.3550 h1        1 N6P      0.120700
     46 H14        -8.6180    4.6410   -5.0120 ho        1 N6P      0.516000
     47 H15        -8.1910    2.0730   -5.7000 h1        1 N6P      0.081700
     48 H16        -5.6920    1.6550   -6.6330 h1        1 N6P     -0.002800
     49 H17        -5.3780    3.3300   -5.9440 h1        1 N6P     -0.002800
@<TRIPOS>BOND
     1    1    2 ar  
     2    1   10 ar  
     3    1   33 1   
     4    2    3 ar  
     5    2    7 ar  
     6    3    4 ar  
     7    3   34 1   
     8    4    5 ar  
     9    4   35 1   
    10    5    6 ar  
    11    5   36 1   
    12    6    7 ar  
    13    6   37 1   
    14    7    8 ar  
    15    8    9 ar  
    16    8   38 1   
    17    9   10 ar  
    18    9   39 1   
    19   10   11 1   
    20   11   12 ar  
    21   11   16 ar  
    22   12   13 ar  
    23   13   14 ar  
    24   13   40 1   
    25   14   15 ar  
    26   15   16 ar  
    27   15   19 1   
    28   16   17 1   
    29   17   18 2   
    30   18   19 1   
    31   18   41 1   
    32   19   20 1   
    33   20   21 1   
    34   20   22 1   
    35   20   42 1   
    36   21   26 1   
    37   22   23 1   
    38   22   24 1   
    39   22   43 1   
    40   23   44 1   
    41   24   25 1   
    42   24   26 1   
    43   24   45 1   
    44   25   46 1   
    45   26   27 1   
    46   26   47 1   
    47   27   28 1   
    48   27   48 1   
    49   27   49 1   
    50   28   29 1   
    51   29   30 1   
    52   29   31 1   
    53   29   32 1   
@<TRIPOS>SUBSTRUCTURE
     1 N6P         1 TEMP              0 ****  ****    0 ROOT
