@<TRIPOS>MOLECULE
N6P
   49    53     1     0     0
SMALL
bcc


@<TRIPOS>ATOM
      1 C1         -0.0340    0.1650   -0.0890 ca        1 N6P     -0.093000
      2 C2          1.3800    0.2550   -0.1800 ca        1 N6P     -0.047000
      3 C3          2.1930    0.4000    0.9780 ca        1 N6P     -0.109000
      4 C4          3.5590    0.4860    0.8670 ca        1 N6P     -0.148000
      5 C5          4.1770    0.4340   -0.4060 ca        1 N6P     -0.141000
      6 C6          3.4160    0.2940   -1.5400 ca        1 N6P     -0.116000
      7 C7          2.0000    0.2000   -1.4550 ca        1 N6P     -0.030000
      8 C8          1.1860    0.0550   -2.6100 ca        1 N6P     -0.139000
      9 C9         -0.1800   -0.0310   -2.5020 ca        1 N6P     -0.074000
     10 C10        -0.8060    0.0280   -1.2260 cp        1 N6P     -0.116500
     11 C11        -2.2740   -0.0610   -1.1310 cp        1 N6P      0.510800
     12 N1         -2.8270   -0.8060   -0.1410 nb        1 N6P     -0.731000
     13 C12        -4.1860   -0.8650   -0.0740 ca        1 N6P      0.607900
     14 N2         -5.1140   -0.2730   -0.8640 nb        1 N6P     -0.675000
     15 C13        -4.5670    0.4810   -1.8570 ca        1 N6P      0.416800
     16 C14        -3.1040    0.6230   -2.0480 ca        1 N6P     -0.132200
     17 N3         -2.8650    1.4540   -3.1480 nc        1 N6P     -0.592100
     18 C15        -4.0830    1.8000   -3.6070 cd        1 N6P      0.478700
     19 N4         -5.1520    1.2620   -2.8610 na        1 N6P     -0.259000
     20 C16        -6.5810    1.3820   -3.1460 c3        1 N6P      0.215800
     21 O1         -6.8160    1.1230   -4.5170 os        1 N6P     -0.431600
     22 C17        -7.1610    2.7980   -2.8120 c3        1 N6P      0.102100
     23 O2         -8.3420    2.6170   -2.0620 oh        1 N6P     -0.615800
     24 C18        -7.3520    3.4630   -4.1930 c3        1 N6P      0.127100
     25 O3         -8.6390    4.0300   -4.2520 oh        1 N6P     -0.681800
     26 C19        -7.2000    2.3310   -5.2260 c3        1 N6P      0.049100
     27 C20        -6.1740    2.6420   -6.3430 c3        1 N6P      0.228400
     28 O4         -6.7970    3.1890   -7.4280 os        1 N6P     -0.552200
     29 P1         -6.5990    4.9230   -7.5460 p5        1 N6P      1.333900
     30 O5         -7.3310    5.2910   -6.2690 o         1 N6P     -0.928500
     31 O6         -5.1070    5.0490   -7.4410 o         1 N6P     -0.928500
     32 O7         -7.2640    5.2720   -8.8380 o         1 N6P     -0.928500
     33 H1         -0.5010    0.2080    0.9070 ha        1 N6P      0.143000
     34 H2          1.7020    0.4430    1.9620 ha        1 N6P      0.127000
     35 H3          4.1880    0.6000    1.7610 ha        1 N6P      0.118000
     36 H4          5.2710    0.5090   -0.4700 ha        1 N6P      0.118000
     37 H5          3.8860    0.2570   -2.5350 ha        1 N6P      0.127000
     38 H6          1.6700    0.0200   -3.5970 ha        1 N6P      0.132000
     39 H7         -0.8050   -0.1380   -3.4040 ha        1 N6P      0.166000
     40 H8         -4.5930   -1.4900    0.7460 h5        1 N6P      0.034100
     41 H9         -4.2820    2.4400   -4.4930 h5        1 N6P      0.130800
     42 H10        -7.1110    0.5750   -2.5600 h2        1 N6P      0.093700
     43 H11        -6.4750    3.3950   -2.1560 h1        1 N6P      0.066700
     44 H12        -9.0930    2.7380   -2.6590 ho        1 N6P      0.432000
     45 H13        -6.5780    4.2650   -4.3580 h1        1 N6P      0.120700
     46 H14        -8.6080    4.6610   -5.0130 ho        1 N6P      0.516000
     47 H15        -8.1930    2.0900   -5.6930 h1        1 N6P      0.081700
     48 H16        -5.3750    3.3340   -5.9470 h1        1 N6P     -0.002800
     49 H17        -5.6970    1.6580   -6.6300 h1        1 N6P     -0.002800
@<TRIPOS>BOND
     1    1    2 ar  
     2    1   10 ar  
     3    1   33 1   
     4    2    3 ar  
     5    2    7 ar  
     6    3    4 ar  
     7    3   34 1   
     8    4    5 ar  
     9    4   35 1   
    10    5    6 ar  
    11    5   36 1   
    12    6    7 ar  
    13    6   37 1   
    14    7    8 ar  
    15    8    9 ar  
    16    8   38 1   
    17    9   10 ar  
    18    9   39 1   
    19   10   11 1   
    20   11   12 ar  
    21   11   16 ar  
    22   12   13 ar  
    23   13   14 ar  
    24   13   40 1   
    25   14   15 ar  
    26   15   16 ar  
    27   15   19 1   
    28   16   17 1   
    29   17   18 2   
    30   18   19 1   
    31   18   41 1   
    32   19   20 1   
    33   20   21 1   
    34   20   22 1   
    35   20   42 1   
    36   21   26 1   
    37   22   23 1   
    38   22   24 1   
    39   22   43 1   
    40   23   44 1   
    41   24   25 1   
    42   24   26 1   
    43   24   45 1   
    44   25   46 1   
    45   26   27 1   
    46   26   47 1   
    47   27   28 1   
    48   27   48 1   
    49   27   49 1   
    50   28   29 1   
    51   29   30 1   
    52   29   31 1   
    53   29   32 1   
@<TRIPOS>SUBSTRUCTURE
     1 N6P         1 TEMP              0 ****  ****    0 ROOT
