@<TRIPOS>MOLECULE
N6R
   53    57     1     0     0
SMALL
bcc


@<TRIPOS>ATOM
      1 C5H         0.0120    0.4450   -0.2480 ca        1 N6R     -0.126500
      2 C5F         1.4030    0.4980   -0.2960 ca        1 N6R     -0.124500
      3 C5E         2.1570    0.1550    0.8260 ca        1 N6R     -0.128000
      4 C5G         1.5140   -0.2420    1.9990 ca        1 N6R     -0.124500
      5 C5I         0.1220   -0.2950    2.0500 ca        1 N6R     -0.126500
      6 C5U        -0.6390    0.0490    0.9270 ca        1 N6R     -0.091300
      7 C5M        -2.1240   -0.0130    0.9750 c3        1 N6R     -0.055100
      8 C5Y        -2.7670    1.3700    1.2040 c3        1 N6R      0.235500
      9 C5A        -4.2880    1.2010    1.1740 c3        1 N6R     -0.109100
     10 N6         -2.2920    1.9770    2.4320 nh        1 N6R     -0.848900
     11 C6         -2.3250    3.3250    2.6770 ca        1 N6R      0.771200
     12 N1         -2.9370    4.2120    1.8190 nb        1 N6R     -0.793000
     13 C2         -2.9480    5.5240    2.1670 ca        1 N6R      0.693900
     14 N3         -2.4400    6.1450    3.2580 nb        1 N6R     -0.770000
     15 C4         -1.8270    5.2740    4.1150 ca        1 N6R      0.456800
     16 C5         -1.7280    3.8390    3.8820 ca        1 N6R     -0.227200
     17 N7         -1.0310    3.2280    4.9360 nc        1 N6R     -0.542100
     18 C8         -0.7140    4.2250    5.7730 cd        1 N6R      0.419700
     19 N9         -1.1760    5.4940    5.3390 na        1 N6R     -0.296000
     20 C1S        -0.9260    6.7760    5.9470 c3        1 N6R      0.221800
     21 O4S        -0.4750    6.5910    7.3140 os        1 N6R     -0.393600
     22 C4S        -1.5580    6.9690    8.1650 c3        1 N6R      0.036100
     23 C5S        -1.1460    7.4250    9.5600 c3        1 N6R      0.185400
     24 O5S        -2.3260    7.8330   10.2230 os        1 N6R     -0.558200
     25 P5         -3.2950    8.9320    9.5630 p5        1 N6R      1.618500
     26 O5D        -4.5170    9.2490   10.2710 o         1 N6R     -0.766300
     27 O5B        -2.3070   10.1760    9.4380 oh        1 N6R     -0.784400
     28 O3S        -3.4440    8.4500    8.0220 os        1 N6R     -0.519200
     29 C3S        -2.1930    8.1850    7.4460 c3        1 N6R      0.113100
     30 C2S        -2.1950    7.7260    5.9810 c3        1 N6R      0.138100
     31 O2S        -1.9530    8.8370    5.1560 oh        1 N6R     -0.583800
     32 H5H        -0.5810    0.7180   -1.1340 ha        1 N6R      0.131500
     33 H5F         1.9070    0.8110   -1.2230 ha        1 N6R      0.133500
     34 H5E         3.2550    0.1970    0.7870 ha        1 N6R      0.133000
     35 H5G         2.1050   -0.5120    2.8860 ha        1 N6R      0.133500
     36 H5I        -0.3790   -0.6130    2.9770 ha        1 N6R      0.131500
     37 H5M        -2.5190   -0.4050   -0.0000 hc        1 N6R      0.060700
     38 H5MA       -2.4570   -0.7220    1.7800 hc        1 N6R      0.060700
     39 H5Y        -2.4710    2.0350    0.3360 h1        1 N6R      0.070700
     40 H5A        -4.7980    2.1860    1.2950 hc        1 N6R      0.047033
     41 H5AA       -4.6320    0.5160    1.9840 hc        1 N6R      0.047033
     42 H5AB       -4.5820    0.7670    0.1880 hc        1 N6R      0.047033
     43 HN6        -1.7380    1.4140    3.0400 hn        1 N6R      0.458800
     44 H2         -3.4570    6.1910    1.4360 h5        1 N6R      0.051100
     45 H8         -0.1580    4.1280    6.7140 h5        1 N6R      0.084800
     46 H1S        -0.0660    7.2870    5.4200 h2        1 N6R      0.109700
     47 H4S        -2.2720    6.0990    8.2290 h1        1 N6R      0.085700
     48 H5S        -0.7170    6.5850   10.1660 h1        1 N6R      0.079200
     49 H5SA       -0.4250    8.2840    9.5200 h1        1 N6R      0.079200
     50 HO5B       -2.6050   11.0070    9.8020 ho        1 N6R      0.493000
     51 H3S        -1.5480    9.1090    7.5400 h1        1 N6R      0.102700
     52 H2S        -3.1480    7.2000    5.7180 h1        1 N6R      0.098700
     53 HO2S       -2.2570    8.6040    4.2670 ho        1 N6R      0.438000
@<TRIPOS>BOND
     1    1    2 ar  
     2    1    6 ar  
     3    1   32 1   
     4    2    3 ar  
     5    2   33 1   
     6    3    4 ar  
     7    3   34 1   
     8    4    5 ar  
     9    4   35 1   
    10    5    6 ar  
    11    5   36 1   
    12    6    7 1   
    13    7    8 1   
    14    7   37 1   
    15    7   38 1   
    16    8    9 1   
    17    8   10 1   
    18    8   39 1   
    19    9   40 1   
    20    9   41 1   
    21    9   42 1   
    22   10   11 1   
    23   10   43 1   
    24   11   12 ar  
    25   11   16 ar  
    26   12   13 ar  
    27   13   14 ar  
    28   13   44 1   
    29   14   15 ar  
    30   15   16 ar  
    31   15   19 1   
    32   16   17 1   
    33   17   18 2   
    34   18   19 1   
    35   18   45 1   
    36   19   20 1   
    37   20   21 1   
    38   20   30 1   
    39   20   46 1   
    40   21   22 1   
    41   22   23 1   
    42   22   29 1   
    43   22   47 1   
    44   23   24 1   
    45   23   48 1   
    46   23   49 1   
    47   24   25 1   
    48   25   26 2   
    49   25   27 1   
    50   25   28 1   
    51   27   50 1   
    52   28   29 1   
    53   29   30 1   
    54   29   51 1   
    55   30   31 1   
    56   30   52 1   
    57   31   53 1   
@<TRIPOS>SUBSTRUCTURE
     1 N6R         1 TEMP              0 ****  ****    0 ROOT
