@<TRIPOS>MOLECULE
N6R
   53    57     1     0     0
SMALL
bcc


@<TRIPOS>ATOM
      1 C5H         6.9980   -0.1640    0.6460 ca        1 N6R     -0.126500
      2 C5F         7.2250   -0.9870    1.7480 ca        1 N6R     -0.124500
      3 C5E         6.7690   -2.3050    1.7430 ca        1 N6R     -0.128000
      4 C5G         6.0850   -2.7990    0.6320 ca        1 N6R     -0.124500
      5 C5I         5.8560   -1.9770   -0.4710 ca        1 N6R     -0.126500
      6 C5U         6.3110   -0.6530   -0.4710 ca        1 N6R     -0.091300
      7 C5M         6.0750    0.2230   -1.6490 c3        1 N6R     -0.055100
      8 C5Y         4.8740    1.1710   -1.4490 c3        1 N6R      0.235500
      9 C5A         4.7620    2.0670   -2.6860 c3        1 N6R     -0.109100
     10 N6          3.6570    0.4310   -1.1770 nh        1 N6R     -0.848900
     11 C6          2.5680    0.9670   -0.5400 ca        1 N6R      0.771200
     12 N1          2.4910    2.3040   -0.2160 nb        1 N6R     -0.793000
     13 C2          1.3550    2.7460    0.3820 ca        1 N6R      0.693900
     14 N3          0.2330    2.0750    0.7340 nb        1 N6R     -0.770000
     15 C4          0.3000    0.7450    0.4200 ca        1 N6R      0.456800
     16 C5          1.4500    0.1190   -0.2200 ca        1 N6R     -0.227200
     17 N7          1.2130   -1.2530   -0.3940 nc        1 N6R     -0.542100
     18 C8         -0.0100   -1.4670    0.1090 cd        1 N6R      0.419700
     19 N9         -0.6260   -0.2920    0.6120 na        1 N6R     -0.296000
     20 C1S        -1.8860   -0.1860    1.3010 c3        1 N6R      0.221800
     21 O4S        -2.6750   -1.3810    1.0680 os        1 N6R     -0.393600
     22 C4S        -3.7200   -1.0210    0.1630 c3        1 N6R      0.036100
     23 C5S        -4.9670   -1.8940    0.2460 c3        1 N6R      0.185400
     24 O5S        -5.9120   -1.3450   -0.6500 os        1 N6R     -0.558200
     25 P5         -6.3320    0.2030   -0.5470 p5        1 N6R      1.618500
     26 O5D        -7.2560    0.7070   -1.5410 o         1 N6R     -0.766300
     27 O5B        -6.9180    0.2630    0.9340 oh        1 N6R     -0.784400
     28 O3S        -4.9200    0.9840   -0.3940 os        1 N6R     -0.519200
     29 C3S        -4.1220    0.4080    0.6050 c3        1 N6R      0.113100
     30 C2S        -2.7560    1.0620    0.8550 c3        1 N6R      0.138100
     31 O2S        -2.8680    1.9490    1.9390 oh        1 N6R     -0.583800
     32 H5H         7.3570    0.8760    0.6530 ha        1 N6R      0.131500
     33 H5F         7.7650   -0.5940    2.6220 ha        1 N6R      0.133500
     34 H5E         6.9480   -2.9530    2.6130 ha        1 N6R      0.133000
     35 H5G         5.7230   -3.8370    0.6250 ha        1 N6R      0.133500
     36 H5I         5.3190   -2.3740   -1.3460 ha        1 N6R      0.131500
     37 H5M         6.9780    0.8660   -1.8290 hc        1 N6R      0.060700
     38 H5MA        5.9160   -0.3980   -2.5700 hc        1 N6R      0.060700
     39 H5Y         5.1010    1.8320   -0.5570 h1        1 N6R      0.070700
     40 H5A         4.5820    1.4610   -3.6050 hc        1 N6R      0.047033
     41 H5AA        3.9280    2.7990   -2.5700 hc        1 N6R      0.047033
     42 H5AB        5.7170    2.6310   -2.8080 hc        1 N6R      0.047033
     43 HN6         3.6880   -0.5590   -1.2790 hn        1 N6R      0.458800
     44 H2          1.3520    3.8330    0.6190 h5        1 N6R      0.051100
     45 H8         -0.5330   -2.4310    0.1510 h5        1 N6R      0.084800
     46 H1S        -1.7090   -0.1630    2.4180 h2        1 N6R      0.109700
     47 H4S        -3.2980   -1.0350   -0.8810 h1        1 N6R      0.085700
     48 H5S        -4.7700   -2.9410   -0.1040 h1        1 N6R      0.079200
     49 H5SA       -5.3980   -1.9050    1.2820 h1        1 N6R      0.079200
     50 HO5B       -7.7880    0.6400    1.0430 ho        1 N6R      0.493000
     51 H3S        -4.7070    0.3970    1.5730 h1        1 N6R      0.102700
     52 H2S        -2.3670    1.5650   -0.0670 h1        1 N6R      0.098700
     53 HO2S       -2.1190    2.5600    1.8870 ho        1 N6R      0.438000
@<TRIPOS>BOND
     1    1    2 ar  
     2    1    6 ar  
     3    1   32 1   
     4    2    3 ar  
     5    2   33 1   
     6    3    4 ar  
     7    3   34 1   
     8    4    5 ar  
     9    4   35 1   
    10    5    6 ar  
    11    5   36 1   
    12    6    7 1   
    13    7    8 1   
    14    7   37 1   
    15    7   38 1   
    16    8    9 1   
    17    8   10 1   
    18    8   39 1   
    19    9   40 1   
    20    9   41 1   
    21    9   42 1   
    22   10   11 1   
    23   10   43 1   
    24   11   12 ar  
    25   11   16 ar  
    26   12   13 ar  
    27   13   14 ar  
    28   13   44 1   
    29   14   15 ar  
    30   15   16 ar  
    31   15   19 1   
    32   16   17 1   
    33   17   18 2   
    34   18   19 1   
    35   18   45 1   
    36   19   20 1   
    37   20   21 1   
    38   20   30 1   
    39   20   46 1   
    40   21   22 1   
    41   22   23 1   
    42   22   29 1   
    43   22   47 1   
    44   23   24 1   
    45   23   48 1   
    46   23   49 1   
    47   24   25 1   
    48   25   26 2   
    49   25   27 1   
    50   25   28 1   
    51   27   50 1   
    52   28   29 1   
    53   29   30 1   
    54   29   51 1   
    55   30   31 1   
    56   30   52 1   
    57   31   53 1   
@<TRIPOS>SUBSTRUCTURE
     1 N6R         1 TEMP              0 ****  ****    0 ROOT
