@<TRIPOS>MOLECULE
N6R
   54    58     1     0     0
SMALL
bcc


@<TRIPOS>ATOM
      1 C5H        -0.1400   -0.1900   -0.4560 ca        1 N6R     -0.133000
      2 C5F         1.1930   -0.5340   -0.6750 ca        1 N6R     -0.114000
      3 C5E         1.9850   -0.9800    0.3840 ca        1 N6R     -0.102000
      4 C5G         1.4390   -1.0850    1.6650 ca        1 N6R     -0.114000
      5 C5I         0.1070   -0.7400    1.8870 ca        1 N6R     -0.133000
      6 C5U        -0.6900   -0.2880    0.8270 ca        1 N6R     -0.153300
      7 C5M        -2.1180    0.0540    1.0600 c3        1 N6R     -0.060100
      8 C5Y        -2.3260    1.5630    1.2680 c3        1 N6R      0.136500
      9 C5A        -3.7840    1.8530    1.5800 c3        1 N6R     -0.128100
     10 N6         -1.4060    2.0550    2.3680 n4        1 N6R     -0.750700
     11 C6         -1.3800    3.5230    2.5050 ca        1 N6R      0.549200
     12 N1         -0.9900    4.2860    1.4520 nb        1 N6R     -0.685000
     13 C2         -0.9600    5.6370    1.6410 ca        1 N6R      0.671900
     14 N3         -1.2730    6.3480    2.7550 nb        1 N6R     -0.623000
     15 C4         -1.6590    5.5810    3.8030 ca        1 N6R      0.468800
     16 C5         -1.7360    4.1040    3.7380 ca        1 N6R     -0.143200
     17 N7         -2.1590    3.5960    4.9730 nc        1 N6R     -0.578100
     18 C8         -2.3350    4.6770    5.7520 cd        1 N6R      0.495700
     19 N9         -2.0750    5.9070    5.1060 na        1 N6R     -0.266000
     20 C1S        -2.0580    7.2360    5.6840 c3        1 N6R      0.234800
     21 O4S        -0.9200    7.3820    6.5650 os        1 N6R     -0.377600
     22 C4S        -1.4140    7.3600    7.9060 c3        1 N6R      0.035100
     23 C5S        -0.5540    8.0850    8.9390 c3        1 N6R      0.192400
     24 O5S        -1.2560    8.0090   10.1620 os        1 N6R     -0.556200
     25 P5         -2.7630    8.5510   10.2950 p5        1 N6R      1.624500
     26 O5D        -3.4440    8.3700   11.5550 o         1 N6R     -0.747300
     27 O5B        -2.5980   10.0620    9.8270 oh        1 N6R     -0.789400
     28 O3S        -3.4940    7.9040    8.9860 os        1 N6R     -0.525200
     29 C3S        -2.7590    8.1230    7.8190 c3        1 N6R      0.080100
     30 C2S        -3.3580    7.5620    6.5200 c3        1 N6R      0.128100
     31 O2S        -4.0540    8.5260    5.7690 oh        1 N6R     -0.579800
     32 H5H        -0.7650    0.1470   -1.2980 ha        1 N6R      0.135000
     33 H5F         1.6180   -0.4610   -1.6890 ha        1 N6R      0.153500
     34 H5E         3.0360   -1.2590    0.2080 ha        1 N6R      0.156000
     35 H5G         2.0580   -1.4530    2.4980 ha        1 N6R      0.153500
     36 H5I        -0.3270   -0.8650    2.8900 ha        1 N6R      0.135000
     37 H5M        -2.7360   -0.2370    0.1660 hc        1 N6R      0.088700
     38 H5MA       -2.5210   -0.5150    1.9410 hc        1 N6R      0.088700
     39 H5Y        -2.0170    2.1070    0.3240 hx        1 N6R      0.124700
     40 H5A        -4.4020    1.5080    0.7130 hc        1 N6R      0.075700
     41 H5AA       -3.9590    2.9480    1.7200 hc        1 N6R      0.075700
     42 H5AB       -4.1260    1.3090    2.4940 hc        1 N6R      0.075700
     43 HN6        -0.4520    1.7170    2.1560 hn        1 N6R      0.473800
     44 H2         -0.6320    6.2340    0.7570 h5        1 N6R      0.097100
     45 H8         -2.6630    4.6410    6.8040 h5        1 N6R      0.102800
     46 H1S        -1.9060    7.9920    4.8560 h2        1 N6R      0.156700
     47 H4S        -1.5560    6.2840    8.2070 h1        1 N6R      0.071700
     48 H5S        -0.3910    9.1600    8.6610 h1        1 N6R      0.088200
     49 H5SA        0.4290    7.5700    9.1040 h1        1 N6R      0.088200
     50 HO5B       -2.8930   10.7510   10.4200 ho        1 N6R      0.504000
     51 H3S        -2.5890    9.2350    7.6950 h1        1 N6R      0.107700
     52 H2S        -4.0030    6.6670    6.7210 h1        1 N6R      0.076700
     53 HO2S       -4.8120    8.8080    6.3010 ho        1 N6R      0.439000
     54 H62        -1.7100    1.6490    3.2620 hn        1 N6R      0.473800
@<TRIPOS>BOND
     1    1    2 ar  
     2    1    6 ar  
     3    1   32 1   
     4    2    3 ar  
     5    2   33 1   
     6    3    4 ar  
     7    3   34 1   
     8    4    5 ar  
     9    4   35 1   
    10    5    6 ar  
    11    5   36 1   
    12    6    7 1   
    13    7    8 1   
    14    7   37 1   
    15    7   38 1   
    16    8    9 1   
    17    8   10 1   
    18    8   39 1   
    19    9   40 1   
    20    9   41 1   
    21    9   42 1   
    22   10   11 1   
    23   10   43 1   
    24   10   54 1   
    25   11   12 ar  
    26   11   16 ar  
    27   12   13 ar  
    28   13   14 ar  
    29   13   44 1   
    30   14   15 ar  
    31   15   16 ar  
    32   15   19 1   
    33   16   17 1   
    34   17   18 2   
    35   18   19 1   
    36   18   45 1   
    37   19   20 1   
    38   20   21 1   
    39   20   30 1   
    40   20   46 1   
    41   21   22 1   
    42   22   23 1   
    43   22   29 1   
    44   22   47 1   
    45   23   24 1   
    46   23   48 1   
    47   23   49 1   
    48   24   25 1   
    49   25   26 2   
    50   25   27 1   
    51   25   28 1   
    52   27   50 1   
    53   28   29 1   
    54   29   30 1   
    55   29   51 1   
    56   30   31 1   
    57   30   52 1   
    58   31   53 1   
@<TRIPOS>SUBSTRUCTURE
     1 N6R         1 TEMP              0 ****  ****    0 ROOT
