@<TRIPOS>MOLECULE
N6R
   53    57     1     0     0
SMALL
bcc


@<TRIPOS>ATOM
      1 C5H         0.0060    0.4640   -0.2660 ca        1 N6R     -0.126500
      2 C5F         1.3970    0.5280   -0.3260 ca        1 N6R     -0.124500
      3 C5E         2.1620    0.1890    0.7900 ca        1 N6R     -0.128000
      4 C5G         1.5320   -0.2150    1.9670 ca        1 N6R     -0.124500
      5 C5I         0.1410   -0.2790    2.0300 ca        1 N6R     -0.126500
      6 C5U        -0.6320    0.0610    0.9130 ca        1 N6R     -0.091300
      7 C5M        -2.1150   -0.0130    0.9740 c3        1 N6R     -0.055100
      8 C5Y        -2.7670    1.3660    1.2100 c3        1 N6R      0.235500
      9 C5A        -4.2870    1.1850    1.1910 c3        1 N6R     -0.109100
     10 N6         -2.2870    1.9740    2.4360 nu        1 N6R     -0.848900
     11 C6         -2.3280    3.3220    2.6820 ca        1 N6R      0.771200
     12 N1         -2.9520    4.2050    1.8300 nb        1 N6R     -0.793000
     13 C2         -2.9700    5.5170    2.1800 ca        1 N6R      0.693900
     14 N3         -2.4590    6.1400    3.2680 nb        1 N6R     -0.770000
     15 C4         -1.8340    5.2710    4.1200 ca        1 N6R      0.456800
     16 C5         -1.7270    3.8380    3.8840 ca        1 N6R     -0.228200
     17 N7         -1.0190    3.2310    4.9330 nc        1 N6R     -0.542100
     18 C8         -0.7040    4.2280    5.7690 cd        1 N6R      0.419700
     19 N9         -1.1770    5.4950    5.3400 na        1 N6R     -0.296000
     20 C1S        -0.9320    6.7770    5.9490 c3        1 N6R      0.221800
     21 O4S        -0.4710    6.5930    7.3120 os        1 N6R     -0.393600
     22 C4S        -1.5520    6.9640    8.1700 c3        1 N6R      0.036100
     23 C5S        -1.1350    7.4210    9.5640 c3        1 N6R      0.185400
     24 O5S        -2.3120    7.8200   10.2340 os        1 N6R     -0.558200
     25 P5         -3.2930    8.9140    9.5820 p5        1 N6R      1.618500
     26 O5D        -4.5130    9.2220   10.2970 o         1 N6R     -0.766300
     27 O5B        -2.3140   10.1640    9.4520 oh        1 N6R     -0.784400
     28 O3S        -3.4480    8.4320    8.0410 os        1 N6R     -0.519200
     29 C3S        -2.1990    8.1770    7.4570 c3        1 N6R      0.113100
     30 C2S        -2.2070    7.7190    5.9920 c3        1 N6R      0.138100
     31 O2S        -1.9770    8.8320    5.1660 oh        1 N6R     -0.583800
     32 H5H        -0.5960    0.7340   -1.1470 ha        1 N6R      0.131500
     33 H5F         1.8910    0.8460   -1.2560 ha        1 N6R      0.133500
     34 H5E         3.2600    0.2390    0.7410 ha        1 N6R      0.133000
     35 H5G         2.1330   -0.4820    2.8490 ha        1 N6R      0.133500
     36 H5I        -0.3490   -0.6020    2.9600 ha        1 N6R      0.131500
     37 H5M        -2.5160   -0.4060    0.0020 hc        1 N6R      0.060700
     38 H5MA       -2.4360   -0.7240    1.7810 hc        1 N6R      0.060700
     39 H5Y        -2.4820    2.0340    0.3410 h1        1 N6R      0.070700
     40 H5A        -4.5850    0.7510    0.2070 hc        1 N6R      0.047033
     41 H5AA       -4.8040    2.1660    1.3190 hc        1 N6R      0.047033
     42 H5AB       -4.6200    0.4960    2.0030 hc        1 N6R      0.047033
     43 HN6        -1.7260    1.4140    3.0390 hn        1 N6R      0.458800
     44 H2         -3.4880    6.1810    1.4530 h5        1 N6R      0.051100
     45 H8         -0.1400    4.1330    6.7070 h5        1 N6R      0.084800
     46 H1S        -0.0790    7.2950    5.4170 h2        1 N6R      0.109700
     47 H4S        -2.2590    6.0890    8.2380 h1        1 N6R      0.085700
     48 H5S        -0.4190    8.2840    9.5200 h1        1 N6R      0.079200
     49 H5SA       -0.6960    6.5830   10.1660 h1        1 N6R      0.079200
     50 HO5B       -2.6150   10.9930    9.8190 ho        1 N6R      0.493000
     51 H3S        -1.5600    9.1040    7.5480 h1        1 N6R      0.102700
     52 H2S        -3.1580    7.1870    5.7340 h1        1 N6R      0.098700
     53 HO2S       -2.2850    8.5990    4.2790 ho        1 N6R      0.438000
@<TRIPOS>BOND
     1    1    2 ar  
     2    1    6 ar  
     3    1   32 1   
     4    2    3 ar  
     5    2   33 1   
     6    3    4 ar  
     7    3   34 1   
     8    4    5 ar  
     9    4   35 1   
    10    5    6 ar  
    11    5   36 1   
    12    6    7 1   
    13    7    8 1   
    14    7   37 1   
    15    7   38 1   
    16    8    9 1   
    17    8   10 1   
    18    8   39 1   
    19    9   40 1   
    20    9   41 1   
    21    9   42 1   
    22   10   11 1   
    23   10   43 1   
    24   11   12 ar  
    25   11   16 ar  
    26   12   13 ar  
    27   13   14 ar  
    28   13   44 1   
    29   14   15 ar  
    30   15   16 ar  
    31   15   19 1   
    32   16   17 1   
    33   17   18 2   
    34   18   19 1   
    35   18   45 1   
    36   19   20 1   
    37   20   21 1   
    38   20   30 1   
    39   20   46 1   
    40   21   22 1   
    41   22   23 1   
    42   22   29 1   
    43   22   47 1   
    44   23   24 1   
    45   23   48 1   
    46   23   49 1   
    47   24   25 1   
    48   25   26 2   
    49   25   27 1   
    50   25   28 1   
    51   27   50 1   
    52   28   29 1   
    53   29   30 1   
    54   29   51 1   
    55   30   31 1   
    56   30   52 1   
    57   31   53 1   
@<TRIPOS>SUBSTRUCTURE
     1 N6R         1 TEMP              0 ****  ****    0 ROOT
