@<TRIPOS>MOLECULE
N6S
   53    48     1     0     0
SMALL
bcc


@<TRIPOS>ATOM
      1 C5H        -1.9230    4.9070   -3.4240 c1        1 N6S     -0.126000
      2 C5F        -2.4990    5.6630   -4.4430 c1        1 N6S     -0.127250
      3 C5E        -1.6890    6.2430   -5.4290 c1        1 N6S     -0.127250
      4 C5G        -0.3210    6.0660   -5.3900 c1        1 N6S     -0.127250
      5 C5I         0.2560    5.3100   -4.3700 c1        1 N6S     -0.127250
      6 C5U        -0.5500    4.7300   -3.3850 c1        1 N6S     -0.075000
      7 C5M         0.1050    4.0120   -2.1730 c3        1 N6S     -0.133000
      8 C5Y        -0.2610    2.5580   -2.1920 c3        1 N6S      0.022000
      9 C5A        -1.5700    2.3750   -1.5130 c3        1 N6S     -0.241000
     10 N6          0.7640    1.7870   -1.4930 n3        1 N6S     -0.284000
     11 C6          0.8090    0.3010   -1.6390 c2        1 N6S      0.235000
     12 N1          0.5640   -0.3510   -2.7940 n2        1 N6S     -0.257000
     13 C2          0.6180   -1.7130   -2.8330 c1        1 N6S      0.026000
     14 N3          0.9200   -2.4190   -1.7030 n1        1 N6S     -0.204000
     15 C4          1.1680   -1.7640   -0.5350 c1        1 N6S      0.085000
     16 C5          1.1150   -0.4130   -0.4930 c1        1 N6S     -0.241000
     17 N7          1.4510   -0.0230    0.7450 n1        1 N6S     -0.154000
     18 C8          1.7180   -1.1470    1.4880 c1        1 N6S     -0.054000
     19 N9          1.5430   -2.2100    0.7020 n1        1 N6S     -0.154000
     20 C1S         1.1630   -3.2010    1.3420 c2        1 N6S      0.158000
     21 O4S        -0.5270   -3.0320    1.8000 os        1 N6S     -0.245000
     22 C4S        -0.5270   -3.3180    3.3190 c3        1 N6S     -0.068000
     23 C5S        -1.7120   -3.9970    3.9620 c3        1 N6S      0.033000
     24 O5S        -1.5070   -4.1510    5.4920 os        1 N6S     -0.756000
     25 P5         -0.1510   -4.8360    5.8530 p5        1 N6S      2.589000
     26 O5D         0.0930   -4.8610    7.4120 oh        1 N6S     -0.758000
     27 O5B        -0.1710   -6.2820    5.5380 o         1 N6S     -1.033000
     28 O3S         1.0920   -4.0390    5.0050 os        1 N6S     -0.702000
     29 C3S         0.7910   -3.9380    3.6180 c3        1 N6S     -0.047000
     30 C2S         1.8670   -3.2890    2.6150 c3        1 N6S      0.016000
     31 O2S         2.9480   -4.0800    2.5030 oh        1 N6S     -0.304000
     32 H5H        -2.5130    4.4840   -2.7050 ha        1 N6S      0.131000
     33 H5F        -3.4660    5.7880   -4.4710 ha        1 N6S      0.133250
     34 H5E        -2.1060    6.7910   -6.1690 ha        1 N6S      0.133250
     35 H5G         0.2780    6.4950   -6.1190 ha        1 N6S      0.133250
     36 H5I         1.2020    5.1870   -4.3440 ha        1 N6S      0.133250
     37 H5M         1.0810    4.1060   -2.2250 hc        1 N6S      0.096000
     38 H5MA       -0.2320    4.4340   -1.3050 hc        1 N6S      0.096000
     39 H5Y        -0.3240    2.2560   -3.0940 h1        1 N6S      0.129000
     40 H5A        -2.2420    2.9810   -1.9190 hc        1 N6S      0.086333
     41 H5AA       -1.4730    2.5930   -0.5330 hc        1 N6S      0.086333
     42 H5AB       -1.8600    1.4610   -1.6120 hc        1 N6S      0.086333
     43 HN6         1.3890    2.2060   -1.0190 hn        1 N6S      0.237000
     44 H2          0.4390   -2.1900   -3.6820 ha        1 N6S      0.192000
     45 H8          1.9180   -1.1660    2.3840 DU        1 N6S      0.199000
     46 H1S         1.2940   -4.0140    0.8250 h4        1 N6S      0.190000
     47 H4S        -0.4930   -2.4100    3.7510 h1        1 N6S      0.110000
     48 H5S        -2.5310   -3.4520    3.7940 h1        1 N6S      0.121500
     49 H5SA       -1.8320   -4.9080    3.5520 h1        1 N6S      0.121500
     50 HO5D       -0.3720   -4.2220    7.7900 ho        1 N6S      0.291000
     51 H3S         0.7060   -4.8570    3.3240 h1        1 N6S      0.135000
     52 H2S         2.1230   -2.4100    2.9200 h1        1 N6S      0.118000
     53 HO2S        3.4380   -4.0380    3.2730 ho        1 N6S      0.225000
@<TRIPOS>BOND
     1    1    6 1   
     2    1   32 1   
     3    2    3 1   
     4    2   33 1   
     5    3   34 1   
     6    4    5 1   
     7    4   35 1   
     8    5   36 1   
     9    6    7 1   
    10    7    8 1   
    11    7   37 1   
    12    7   38 1   
    13    8    9 1   
    14    8   10 1   
    15    8   39 1   
    16    9   40 1   
    17    9   41 1   
    18    9   42 1   
    19   10   11 1   
    20   10   43 1   
    21   11   12 1   
    22   11   16 1   
    23   12   13 1   
    24   13   44 1   
    25   14   15 1   
    26   17   18 1   
    27   18   19 1   
    28   20   21 1   
    29   20   30 1   
    30   20   46 1   
    31   21   22 1   
    32   22   23 1   
    33   22   29 1   
    34   22   47 1   
    35   23   24 1   
    36   23   48 1   
    37   23   49 1   
    38   24   25 1   
    39   25   26 1   
    40   25   27 1   
    41   25   28 1   
    42   26   50 1   
    43   28   29 1   
    44   29   30 1   
    45   29   51 1   
    46   30   31 1   
    47   30   52 1   
    48   31   53 1   
@<TRIPOS>SUBSTRUCTURE
     1 N6S         1 TEMP              0 ****  ****    0 ROOT
