@<TRIPOS>MOLECULE
N6S
   53    57     1     0     0
SMALL
bcc


@<TRIPOS>ATOM
      1 C5H        -0.5160    0.0580   -0.3070 ca        1 N6S     -0.126000
      2 C5F         0.8500    0.1490   -0.5650 ca        1 N6S     -0.124500
      3 C5E         1.7430    0.4090    0.4750 ca        1 N6S     -0.128000
      4 C5G         1.2650    0.5790    1.7740 ca        1 N6S     -0.124500
      5 C5I        -0.1010    0.4890    2.0340 ca        1 N6S     -0.126000
      6 C5U        -1.0020    0.2280    0.9950 ca        1 N6S     -0.090300
      7 C5M        -2.4610    0.1380    1.2670 c3        1 N6S     -0.055100
      8 C5Y        -2.9550   -1.3200    1.3710 c3        1 N6S      0.235500
      9 C5A        -4.4700   -1.2960    1.5870 c3        1 N6S     -0.108100
     10 N6         -2.2490   -2.0450    2.4100 nh        1 N6S     -0.850900
     11 C6         -2.1390   -3.4120    2.4390 ca        1 N6S      0.768200
     12 N1         -2.8180   -4.2220    1.5570 nb        1 N6S     -0.792000
     13 C2         -2.6710   -5.5650    1.6900 ca        1 N6S      0.690900
     14 N3         -1.9380   -6.2830    2.5770 nb        1 N6S     -0.736000
     15 C4         -1.2580   -5.4890    3.4540 ca        1 N6S      0.478800
     16 C5         -1.3130   -4.0330    3.4410 ca        1 N6S     -0.236200
     17 N7         -0.5060   -3.5110    4.4660 nc        1 N6S     -0.530100
     18 C8          0.0180   -4.5780    5.0770 cd        1 N6S      0.398700
     19 N9         -0.3700   -5.8190    4.4970 na        1 N6S     -0.287000
     20 C1S        -0.1220   -7.1400    4.9940 c3        1 N6S      0.250800
     21 O4S        -0.8930   -7.3970    6.2050 os        1 N6S     -0.388600
     22 C4S         0.0050   -7.2880    7.3050 c3        1 N6S      0.041100
     23 C5S        -0.4280   -8.0270    8.5660 c3        1 N6S      0.176400
     24 O5S         0.6170   -7.8670    9.5070 os        1 N6S     -0.554200
     25 P5          2.0900   -8.3580    9.0870 p5        1 N6S      1.604500
     26 O5D         3.0390   -7.5670   10.0790 oh        1 N6S     -0.731400
     27 O5B         2.3040   -9.7940    9.0760 o         1 N6S     -0.802300
     28 O3S         2.3590   -7.6280    7.6550 os        1 N6S     -0.521200
     29 C3S         1.3060   -7.9460    6.7840 c3        1 N6S      0.060100
     30 C2S         1.3980   -7.3900    5.3550 c3        1 N6S      0.127100
     31 O2S         1.8540   -8.3560    4.4380 oh        1 N6S     -0.576800
     32 H5H        -1.2190   -0.1490   -1.1290 ha        1 N6S      0.131500
     33 H5F         1.2240    0.0140   -1.5910 ha        1 N6S      0.133000
     34 H5E         2.8210    0.4800    0.2700 ha        1 N6S      0.132000
     35 H5G         1.9660    0.7840    2.5960 ha        1 N6S      0.133000
     36 H5I        -0.4730    0.6280    3.0610 ha        1 N6S      0.131500
     37 H5M        -2.7140    0.6900    2.2110 hc        1 N6S      0.059700
     38 H5MA       -3.0320    0.6230    0.4310 hc        1 N6S      0.059700
     39 H5Y        -2.7510   -1.8240    0.3770 h1        1 N6S      0.070700
     40 H5A        -4.7320   -0.7680    2.5350 hc        1 N6S      0.046700
     41 H5AA       -4.8800   -2.3330    1.6290 hc        1 N6S      0.046700
     42 H5AB       -4.9470   -0.7580    0.7330 hc        1 N6S      0.046700
     43 HN6        -1.6410   -1.5230    3.0010 hn        1 N6S      0.456800
     44 H2         -3.2440   -6.1690    0.9530 h5        1 N6S      0.053100
     45 H8          0.7010   -4.5440    5.9340 h5        1 N6S      0.070800
     46 H1S        -0.4920   -7.9020    4.2450 h2        1 N6S      0.150700
     47 H4S         0.1560   -6.1940    7.5320 h1        1 N6S      0.078700
     48 H5S        -1.3450   -7.5730    9.0240 h1        1 N6S      0.083700
     49 H5SA       -0.5890   -9.1210    8.3740 h1        1 N6S      0.083700
     50 HO5D        3.6300   -8.1080   10.6030 ho        1 N6S      0.490000
     51 H3S         1.2080   -9.0720    6.7310 h1        1 N6S      0.093700
     52 H2S         2.0250   -6.4630    5.3170 h1        1 N6S      0.080700
     53 HO2S        2.7960   -8.4830    4.6110 ho        1 N6S      0.424000
@<TRIPOS>BOND
     1    1    2 ar  
     2    1    6 ar  
     3    1   32 1   
     4    2    3 ar  
     5    2   33 1   
     6    3    4 ar  
     7    3   34 1   
     8    4    5 ar  
     9    4   35 1   
    10    5    6 ar  
    11    5   36 1   
    12    6    7 1   
    13    7    8 1   
    14    7   37 1   
    15    7   38 1   
    16    8    9 1   
    17    8   10 1   
    18    8   39 1   
    19    9   40 1   
    20    9   41 1   
    21    9   42 1   
    22   10   11 1   
    23   10   43 1   
    24   11   12 ar  
    25   11   16 ar  
    26   12   13 ar  
    27   13   14 ar  
    28   13   44 1   
    29   14   15 ar  
    30   15   16 ar  
    31   15   19 1   
    32   16   17 1   
    33   17   18 2   
    34   18   19 1   
    35   18   45 1   
    36   19   20 1   
    37   20   21 1   
    38   20   30 1   
    39   20   46 1   
    40   21   22 1   
    41   22   23 1   
    42   22   29 1   
    43   22   47 1   
    44   23   24 1   
    45   23   48 1   
    46   23   49 1   
    47   24   25 1   
    48   25   26 1   
    49   25   27 2   
    50   25   28 1   
    51   26   50 1   
    52   28   29 1   
    53   29   30 1   
    54   29   51 1   
    55   30   31 1   
    56   30   52 1   
    57   31   53 1   
@<TRIPOS>SUBSTRUCTURE
     1 N6S         1 TEMP              0 ****  ****    0 ROOT
