@<TRIPOS>MOLECULE
N6S
   54    58     1     0     0
SMALL
bcc


@<TRIPOS>ATOM
      1 C5H        -1.7280    0.5350   -0.6620 ca        1 N6S     -0.133000
      2 C5F        -0.7860    0.9140   -1.6170 ca        1 N6S     -0.114000
      3 C5E         0.4850    1.3290   -1.2210 ca        1 N6S     -0.102000
      4 C5G         0.8140    1.3680    0.1360 ca        1 N6S     -0.114000
      5 C5I        -0.1250    0.9870    1.0920 ca        1 N6S     -0.133000
      6 C5U        -1.4020    0.5660    0.6980 ca        1 N6S     -0.153300
      7 C5M        -2.4110    0.1860    1.7220 c3        1 N6S     -0.060100
      8 C5Y        -2.4700   -1.3350    1.9400 c3        1 N6S      0.136500
      9 C5A        -3.4570   -1.6680    3.0450 c3        1 N6S     -0.128100
     10 N6         -1.0810   -1.8590    2.2480 n4        1 N6S     -0.750700
     11 C6         -0.9960   -3.3300    2.2690 ca        1 N6S      0.548200
     12 N1         -1.3120   -4.0340    1.1520 nb        1 N6S     -0.686000
     13 C2         -1.1900   -5.3920    1.2180 ca        1 N6S      0.671900
     14 N3         -0.7860   -6.1600    2.2610 nb        1 N6S     -0.622000
     15 C4         -0.4720   -5.4520    3.3740 ca        1 N6S      0.468800
     16 C5         -0.5610   -3.9770    3.4440 ca        1 N6S     -0.143200
     17 N7         -0.1720   -3.5360    4.7150 nc        1 N6S     -0.580100
     18 C8          0.1380   -4.6570    5.3910 cd        1 N6S      0.496700
     19 N9          0.0020   -5.8460    4.6370 na        1 N6S     -0.265000
     20 C1S         0.1500   -7.2140    5.0900 c3        1 N6S      0.233800
     21 O4S        -0.9350   -7.5650    5.9790 os        1 N6S     -0.378600
     22 C4S        -0.4010   -7.6180    7.3030 c3        1 N6S      0.036100
     23 C5S        -1.1510   -8.5180    8.2820 c3        1 N6S      0.178400
     24 O5S        -0.4220   -8.4650    9.4930 os        1 N6S     -0.547200
     25 P5          1.1080   -8.9720    9.4590 p5        1 N6S      1.606500
     26 O5D         1.7350   -8.3890   10.7840 oh        1 N6S     -0.728400
     27 O5B         1.2980  -10.3850    9.2030 o         1 N6S     -0.792300
     28 O3S         1.7500   -8.0220    8.2860 os        1 N6S     -0.517200
     29 C3S         1.0170   -8.2120    7.1100 c3        1 N6S      0.067100
     30 C2S         1.5070   -7.4660    5.8610 c3        1 N6S      0.132100
     31 O2S         2.2810   -8.2650    5.0010 oh        1 N6S     -0.578800
     32 H5H        -2.7360    0.2230   -0.9790 ha        1 N6S      0.135500
     33 H5F        -1.0510    0.8950   -2.6860 ha        1 N6S      0.153000
     34 H5E         1.2260    1.6370   -1.9760 ha        1 N6S      0.155000
     35 H5G         1.8120    1.7110    0.4510 ha        1 N6S      0.153000
     36 H5I         0.1280    1.0600    2.1610 ha        1 N6S      0.135500
     37 H5M        -2.2020    0.7060    2.6950 hc        1 N6S      0.088700
     38 H5MA       -3.4380    0.5040    1.3890 hc        1 N6S      0.088700
     39 H5Y        -2.7920   -1.8300    0.9730 hx        1 N6S      0.124700
     40 H5A        -3.5250   -2.7710    3.2110 hc        1 N6S      0.075700
     41 H5AA       -3.1810   -1.1720    4.0070 hc        1 N6S      0.075700
     42 H5AB       -4.4670   -1.2980    2.7360 hc        1 N6S      0.075700
     43 HN6        -0.4380   -1.4900    1.5260 hn        1 N6S      0.473800
     44 H2         -1.4590   -5.9390    0.2840 h5        1 N6S      0.097100
     45 H8          0.4820   -4.6790    6.4380 h5        1 N6S      0.102800
     46 H1S         0.0560   -7.9050    4.1990 h2        1 N6S      0.157700
     47 H4S        -0.3600   -6.5660    7.7060 h1        1 N6S      0.074700
     48 H5S        -1.1950   -9.5800    7.9210 h1        1 N6S      0.090700
     49 H5SA       -2.1800   -8.1340    8.5060 h1        1 N6S      0.090700
     50 HO5D        2.1560   -9.0210   11.3710 ho        1 N6S      0.501000
     51 H3S         0.9720   -9.3200    6.8800 h1        1 N6S      0.106700
     52 H2S         2.0530   -6.5260    6.1340 h1        1 N6S      0.076700
     53 HO2S        3.0600   -8.5510    5.5010 ho        1 N6S      0.441000
     54 H62        -0.7880   -1.5010    3.1660 hn        1 N6S      0.473800
@<TRIPOS>BOND
     1    1    2 ar  
     2    1    6 ar  
     3    1   32 1   
     4    2    3 ar  
     5    2   33 1   
     6    3    4 ar  
     7    3   34 1   
     8    4    5 ar  
     9    4   35 1   
    10    5    6 ar  
    11    5   36 1   
    12    6    7 1   
    13    7    8 1   
    14    7   37 1   
    15    7   38 1   
    16    8    9 1   
    17    8   10 1   
    18    8   39 1   
    19    9   40 1   
    20    9   41 1   
    21    9   42 1   
    22   10   11 1   
    23   10   43 1   
    24   10   54 1   
    25   11   12 ar  
    26   11   16 ar  
    27   12   13 ar  
    28   13   14 ar  
    29   13   44 1   
    30   14   15 ar  
    31   15   16 ar  
    32   15   19 1   
    33   16   17 1   
    34   17   18 2   
    35   18   19 1   
    36   18   45 1   
    37   19   20 1   
    38   20   21 1   
    39   20   30 1   
    40   20   46 1   
    41   21   22 1   
    42   22   23 1   
    43   22   29 1   
    44   22   47 1   
    45   23   24 1   
    46   23   48 1   
    47   23   49 1   
    48   24   25 1   
    49   25   26 1   
    50   25   27 2   
    51   25   28 1   
    52   26   50 1   
    53   28   29 1   
    54   29   30 1   
    55   29   51 1   
    56   30   31 1   
    57   30   52 1   
    58   31   53 1   
@<TRIPOS>SUBSTRUCTURE
     1 N6S         1 TEMP              0 ****  ****    0 ROOT
