@<TRIPOS>MOLECULE
N6S
   53    57     1     0     0
SMALL
bcc


@<TRIPOS>ATOM
      1 C5H        -0.4940    0.0470   -0.3140 ca        1 N6S     -0.126000
      2 C5F         0.8740    0.1300   -0.5710 ca        1 N6S     -0.124500
      3 C5E         1.7660    0.3890    0.4690 ca        1 N6S     -0.128000
      4 C5G         1.2880    0.5660    1.7670 ca        1 N6S     -0.124500
      5 C5I        -0.0800    0.4840    2.0260 ca        1 N6S     -0.126000
      6 C5U        -0.9800    0.2240    0.9870 ca        1 N6S     -0.090300
      7 C5M        -2.4400    0.1420    1.2570 c3        1 N6S     -0.055100
      8 C5Y        -2.9420   -1.3130    1.3650 c3        1 N6S      0.235500
      9 C5A        -4.4570   -1.2800    1.5790 c3        1 N6S     -0.108100
     10 N6         -2.2410   -2.0380    2.4060 nu        1 N6S     -0.850900
     11 C6         -2.1370   -3.4060    2.4380 ca        1 N6S      0.768200
     12 N1         -2.8200   -4.2150    1.5570 nb        1 N6S     -0.792000
     13 C2         -2.6780   -5.5580    1.6930 ca        1 N6S      0.690900
     14 N3         -1.9500   -6.2780    2.5810 nb        1 N6S     -0.736000
     15 C4         -1.2670   -5.4850    3.4580 ca        1 N6S      0.478800
     16 C5         -1.3160   -4.0290    3.4410 ca        1 N6S     -0.236200
     17 N7         -0.5070   -3.5090    4.4660 nc        1 N6S     -0.530100
     18 C8          0.0130   -4.5770    5.0790 cd        1 N6S      0.398700
     19 N9         -0.3810   -5.8170    4.5020 na        1 N6S     -0.287000
     20 C1S        -0.1390   -7.1380    5.0020 c3        1 N6S      0.250800
     21 O4S        -0.9100   -7.3900    6.2130 os        1 N6S     -0.388600
     22 C4S        -0.0100   -7.2830    7.3130 c3        1 N6S      0.041100
     23 C5S        -0.4450   -8.0180    8.5750 c3        1 N6S      0.176400
     24 O5S         0.6010   -7.8620    9.5140 os        1 N6S     -0.554200
     25 P5          2.0720   -8.3600    9.0940 p5        1 N6S      1.604500
     26 O5D         3.0250   -7.5720   10.0840 oh        1 N6S     -0.731400
     27 O5B         2.2790   -9.7970    9.0850 o         1 N6S     -0.802300
     28 O3S         2.3420   -7.6330    7.6600 os        1 N6S     -0.521200
     29 C3S         1.2870   -7.9480    6.7910 c3        1 N6S      0.060100
     30 C2S         1.3800   -7.3950    5.3610 c3        1 N6S      0.127100
     31 O2S         1.8310   -8.3640    4.4450 oh        1 N6S     -0.576800
     32 H5H        -1.1960   -0.1590   -1.1360 ha        1 N6S      0.131500
     33 H5F         1.2480   -0.0110   -1.5950 ha        1 N6S      0.133000
     34 H5E         2.8450    0.4540    0.2660 ha        1 N6S      0.132000
     35 H5G         1.9890    0.7700    2.5900 ha        1 N6S      0.133000
     36 H5I        -0.4520    0.6290    3.0520 ha        1 N6S      0.131500
     37 H5M        -3.0080    0.6280    0.4200 hc        1 N6S      0.059700
     38 H5MA       -2.6910    0.6980    2.2000 hc        1 N6S      0.059700
     39 H5Y        -2.7400   -1.8200    0.3710 h1        1 N6S      0.070700
     40 H5A        -4.7180   -0.7490    2.5250 hc        1 N6S      0.046700
     41 H5AA       -4.8730   -2.3150    1.6230 hc        1 N6S      0.046700
     42 H5AB       -4.9300   -0.7420    0.7230 hc        1 N6S      0.046700
     43 HN6        -1.6310   -1.5190    2.9960 hn        1 N6S      0.456800
     44 H2         -3.2540   -6.1610    0.9570 h5        1 N6S      0.053100
     45 H8          0.6950   -4.5450    5.9370 h5        1 N6S      0.070800
     46 H1S        -0.5130   -7.9000    4.2540 h2        1 N6S      0.150700
     47 H4S         0.1460   -6.1890    7.5370 h1        1 N6S      0.078700
     48 H5S        -0.6120   -9.1110    8.3850 h1        1 N6S      0.083700
     49 H5SA       -1.3590   -7.5580    9.0330 h1        1 N6S      0.083700
     50 HO5D        3.6140   -8.1150   10.6080 ho        1 N6S      0.490000
     51 H3S         1.1840   -9.0730    6.7400 h1        1 N6S      0.093700
     52 H2S         2.0120   -6.4710    5.3210 h1        1 N6S      0.080700
     53 HO2S        2.7730   -8.4960    4.6170 ho        1 N6S      0.424000
@<TRIPOS>BOND
     1    1    2 ar  
     2    1    6 ar  
     3    1   32 1   
     4    2    3 ar  
     5    2   33 1   
     6    3    4 ar  
     7    3   34 1   
     8    4    5 ar  
     9    4   35 1   
    10    5    6 ar  
    11    5   36 1   
    12    6    7 1   
    13    7    8 1   
    14    7   37 1   
    15    7   38 1   
    16    8    9 1   
    17    8   10 1   
    18    8   39 1   
    19    9   40 1   
    20    9   41 1   
    21    9   42 1   
    22   10   11 1   
    23   10   43 1   
    24   11   12 ar  
    25   11   16 ar  
    26   12   13 ar  
    27   13   14 ar  
    28   13   44 1   
    29   14   15 ar  
    30   15   16 ar  
    31   15   19 1   
    32   16   17 1   
    33   17   18 2   
    34   18   19 1   
    35   18   45 1   
    36   19   20 1   
    37   20   21 1   
    38   20   30 1   
    39   20   46 1   
    40   21   22 1   
    41   22   23 1   
    42   22   29 1   
    43   22   47 1   
    44   23   24 1   
    45   23   48 1   
    46   23   49 1   
    47   24   25 1   
    48   25   26 1   
    49   25   27 2   
    50   25   28 1   
    51   26   50 1   
    52   28   29 1   
    53   29   30 1   
    54   29   51 1   
    55   30   31 1   
    56   30   52 1   
    57   31   53 1   
@<TRIPOS>SUBSTRUCTURE
     1 N6S         1 TEMP              0 ****  ****    0 ROOT
