@<TRIPOS>MOLECULE
N6S
   53    57     1     0     0
SMALL
bcc


@<TRIPOS>ATOM
      1 C5H         5.9410    2.1170    0.7610 ca        1 N6S     -0.126500
      2 C5F         5.4950    3.4340    0.8520 ca        1 N6S     -0.124000
      3 C5E         4.8980    4.0490   -0.2490 ca        1 N6S     -0.128000
      4 C5G         4.7480    3.3420   -1.4420 ca        1 N6S     -0.124000
      5 C5I         5.1940    2.0250   -1.5360 ca        1 N6S     -0.126500
      6 C5U         5.7930    1.4020   -0.4340 ca        1 N6S     -0.091300
      7 C5M         6.2750   -0.0000   -0.5320 c3        1 N6S     -0.055100
      8 C5Y         5.2840   -1.0110    0.0800 c3        1 N6S      0.235500
      9 C5A         5.9040   -2.4070   -0.0160 c3        1 N6S     -0.109100
     10 N6          3.9830   -0.9260   -0.5540 nh        1 N6S     -0.849900
     11 C6          2.8200   -1.3520    0.0340 ca        1 N6S      0.771200
     12 N1          2.8080   -2.0170    1.2400 nb        1 N6S     -0.793000
     13 C2          1.6080   -2.4250    1.7250 ca        1 N6S      0.693900
     14 N3          0.3620   -2.2870    1.2110 nb        1 N6S     -0.769000
     15 C4          0.3630   -1.6250    0.0150 ca        1 N6S      0.456800
     16 C5          1.5670   -1.1260   -0.6370 ca        1 N6S     -0.228200
     17 N7          1.2330   -0.5030   -1.8490 nc        1 N6S     -0.542100
     18 C8         -0.0990   -0.6110   -1.9470 cd        1 N6S      0.420700
     19 N9         -0.6930   -1.2740   -0.8420 na        1 N6S     -0.296000
     20 C1S        -2.0760   -1.6400   -0.6770 c3        1 N6S      0.220800
     21 O4S        -2.8980   -0.8780   -1.5990 os        1 N6S     -0.393600
     22 C4S        -3.5920    0.1010   -0.8240 c3        1 N6S      0.035100
     23 C5S        -4.8950    0.5990   -1.4410 c3        1 N6S      0.175400
     24 O5S        -5.4610    1.5010   -0.5110 os        1 N6S     -0.552200
     25 P5         -5.7690    0.9480    0.9720 p5        1 N6S      1.602500
     26 O5D        -5.8870    2.2670    1.8410 oh        1 N6S     -0.730400
     27 O5B        -6.9160    0.0650    1.0760 o         1 N6S     -0.801300
     28 O3S        -4.3460    0.3130    1.4420 os        1 N6S     -0.512200
     29 C3S        -3.9370   -0.6370    0.4930 c3        1 N6S      0.104100
     30 C2S        -2.6330   -1.3910    0.7870 c3        1 N6S      0.141100
     31 O2S        -2.9440   -2.6300    1.3700 oh        1 N6S     -0.581800
     32 H5H         6.4100    1.6330    1.6310 ha        1 N6S      0.131500
     33 H5F         5.6140    3.9890    1.7940 ha        1 N6S      0.133500
     34 H5E         4.5460    5.0880   -0.1760 ha        1 N6S      0.133000
     35 H5G         4.2770    3.8240   -2.3110 ha        1 N6S      0.133500
     36 H5I         5.0760    1.4740   -2.4810 ha        1 N6S      0.131500
     37 H5M         6.4730   -0.2690   -1.6040 hc        1 N6S      0.060200
     38 H5MA        7.2440   -0.1080    0.0250 hc        1 N6S      0.060200
     39 H5Y         5.1660   -0.7560    1.1780 h1        1 N6S      0.071700
     40 H5A         6.0850   -2.6930   -1.0800 hc        1 N6S      0.046700
     41 H5AA        6.8800   -2.4060    0.5260 hc        1 N6S      0.046700
     42 H5AB        5.2370   -3.1700    0.4520 hc        1 N6S      0.046700
     43 HN6         3.9060   -0.3640   -1.3730 hn        1 N6S      0.458800
     44 H2          1.6620   -2.9570    2.7000 h5        1 N6S      0.051100
     45 H8         -0.7200   -0.2410   -2.7730 h5        1 N6S      0.084800
     46 H1S        -2.2230   -2.7210   -0.9750 h2        1 N6S      0.110700
     47 H4S        -2.8920    0.9660   -0.6430 h1        1 N6S      0.088700
     48 H5S        -4.7190    1.1780   -2.3850 h1        1 N6S      0.080700
     49 H5SA       -5.6150   -0.2410   -1.6260 h1        1 N6S      0.080700
     50 HO5D       -6.6990    2.3590    2.3380 ho        1 N6S      0.489000
     51 H3S        -4.7710   -1.3890    0.3520 h1        1 N6S      0.097700
     52 H2S        -1.9440   -0.7800    1.4240 h1        1 N6S      0.098700
     53 HO2S       -2.1490   -2.9390    1.8280 ho        1 N6S      0.438000
@<TRIPOS>BOND
     1    1    2 ar  
     2    1    6 ar  
     3    1   32 1   
     4    2    3 ar  
     5    2   33 1   
     6    3    4 ar  
     7    3   34 1   
     8    4    5 ar  
     9    4   35 1   
    10    5    6 ar  
    11    5   36 1   
    12    6    7 1   
    13    7    8 1   
    14    7   37 1   
    15    7   38 1   
    16    8    9 1   
    17    8   10 1   
    18    8   39 1   
    19    9   40 1   
    20    9   41 1   
    21    9   42 1   
    22   10   11 1   
    23   10   43 1   
    24   11   12 ar  
    25   11   16 ar  
    26   12   13 ar  
    27   13   14 ar  
    28   13   44 1   
    29   14   15 ar  
    30   15   16 ar  
    31   15   19 1   
    32   16   17 1   
    33   17   18 2   
    34   18   19 1   
    35   18   45 1   
    36   19   20 1   
    37   20   21 1   
    38   20   30 1   
    39   20   46 1   
    40   21   22 1   
    41   22   23 1   
    42   22   29 1   
    43   22   47 1   
    44   23   24 1   
    45   23   48 1   
    46   23   49 1   
    47   24   25 1   
    48   25   26 1   
    49   25   27 2   
    50   25   28 1   
    51   26   50 1   
    52   28   29 1   
    53   29   30 1   
    54   29   51 1   
    55   30   31 1   
    56   30   52 1   
    57   31   53 1   
@<TRIPOS>SUBSTRUCTURE
     1 N6S         1 TEMP              0 ****  ****    0 ROOT
