@<TRIPOS>MOLECULE
N6T
   46    46     1     0     0
SMALL
bcc


@<TRIPOS>ATOM
      1 O4          0.4230   -0.7840    0.9110 o         1 N6T     -0.396000
      2 C4          1.6350   -0.7750    0.6150 c2        1 N6T      0.360000
      3 C5          2.3560    0.3070   -0.0580 c2        1 N6T     -0.276000
      4 C7          1.6010    1.5180   -0.4320 c3        1 N6T     -0.146000
      5 C6          3.6940    0.1740   -0.3140 c2        1 N6T      0.079000
      6 N3          2.3960   -1.9100    0.9540 ns        1 N6T     -0.376000
      7 C2          3.7720   -2.0230    0.6820 c2        1 N6T      0.392000
      8 O2          4.3690   -3.0740    1.0250 o         1 N6T     -0.413000
      9 N1          4.4120   -0.9620    0.0100 n         1 N6T     -0.263000
     10 C1'         5.8740   -1.0280   -0.2250 c3        1 N6T      0.154000
     11 C2'         6.2430   -1.1250   -1.7170 c3        1 N6T     -0.211000
     12 C3'         6.7810    0.2660   -2.0880 c3        1 N6T      0.042000
     13 O3'         7.9710    0.0960   -2.8220 oh        1 N6T     -0.380000
     14 O4'         6.4980    0.1280    0.3110 os        1 N6T     -0.290000
     15 C4'         7.0460    0.9680   -0.7400 c3        1 N6T     -0.058000
     16 C5'         6.4380    2.3820   -0.6250 c3        1 N6T      0.070000
     17 O5'         7.3400    3.3380   -1.0240 os        1 N6T     -0.734000
     18 PA          7.0270    3.9930   -2.5880 p5        1 N6T      2.085000
     19 O1A         5.6170    4.4360   -2.4280 o         1 N6T     -0.912000
     20 O2A         7.2340    2.7330   -3.3630 o         1 N6T     -0.912000
     21 C3A         8.1620    5.2030   -2.6130 c3        1 N6T     -1.476000
     22 PB          9.2600    6.0790   -3.8940 p5        1 N6T      2.042000
     23 O1B        10.5040    5.2630   -3.9540 o         1 N6T     -0.870000
     24 O2B         8.4500    6.3070   -5.1220 o         1 N6T     -0.870000
     25 N3B         9.5340    7.4760   -3.1190 n8        1 N6T     -0.990000
     26 PG         10.7690    9.8100   -2.9430 p3        1 N6T      2.435000
     27 O2G        11.6780   10.1150   -4.0660 o         1 N6T     -1.146333
     28 O1G        11.3290    9.2910   -1.6770 o         1 N6T     -1.146333
     29 O3G         9.4130   10.3980   -2.9310 o         1 N6T     -1.146333
     30 H1          1.0860    1.9420    0.4670 hc        1 N6T      0.087667
     31 H2          0.8170    1.2640   -1.1890 hc        1 N6T      0.087667
     32 H3          2.2780    2.2980   -0.8630 hc        1 N6T      0.087667
     33 H4          4.2900    0.9820   -0.8020 h4        1 N6T      0.222000
     34 H5          1.9650   -2.6700    1.4280 hn        1 N6T      0.241000
     35 H6          6.2520   -1.9070    0.3750 h2        1 N6T      0.129000
     36 H7          7.0440   -1.8940   -1.8420 hc        1 N6T      0.097000
     37 H8          5.3810   -1.4070   -2.3650 hc        1 N6T      0.097000
     38 H9          6.0350    0.8430   -2.7010 h1        1 N6T      0.138000
     39 H10         8.1470    0.9620   -3.2520 ho        1 N6T      0.298000
     40 H11         8.1500    1.0200   -0.5360 h1        1 N6T      0.129000
     41 H12         6.1770    2.5450    0.4610 h1        1 N6T      0.046500
     42 H13         5.4960    2.4520   -1.2430 h1        1 N6T      0.046500
     43 H15         7.6530    6.0790   -2.1510 hc        1 N6T      0.118500
     44 H16         8.9920    4.8810   -1.9420 hc        1 N6T      0.118500
     45 H18         8.8450    8.1890   -3.1170 hn        1 N6T      0.204000
     46 H3B2       10.0850    7.4870   -2.2960 hn        1 N6T      0.204000
@<TRIPOS>BOND
     1    1    2 1   
     2    2    3 1   
     3    2    6 1   
     4    3    4 1   
     5    3    5 1   
     6    4   30 1   
     7    4   31 1   
     8    4   32 1   
     9    5    9 1   
    10    5   33 1   
    11    6    7 1   
    12    6   34 1   
    13    7    8 1   
    14    7    9 1   
    15    9   10 1   
    16   10   11 1   
    17   10   14 1   
    18   10   35 1   
    19   11   12 1   
    20   11   36 1   
    21   11   37 1   
    22   12   13 1   
    23   12   15 1   
    24   12   38 1   
    25   13   39 1   
    26   14   15 1   
    27   15   16 1   
    28   15   40 1   
    29   16   17 1   
    30   16   41 1   
    31   16   42 1   
    32   17   18 1   
    33   18   19 1   
    34   18   20 1   
    35   18   21 1   
    36   21   22 1   
    37   21   43 1   
    38   21   44 1   
    39   22   23 1   
    40   22   24 1   
    41   22   25 1   
    42   25   45 1   
    43   25   46 1   
    44   26   27 1   
    45   26   28 1   
    46   26   29 1   
@<TRIPOS>SUBSTRUCTURE
     1 N6T         1 TEMP              0 ****  ****    0 ROOT
