@<TRIPOS>MOLECULE
N73
   55    55     1     0     0
SMALL
bcc


@<TRIPOS>ATOM
      1 OSB         1.2860   -0.4550   -2.1000 oh        1 N73     -0.523800
      2 S2          1.8550   -1.1780   -0.7030 s4        1 N73      0.745100
      3 OSA         3.2570   -0.2630   -0.6810 oh        1 N73     -0.523800
      4 N1          2.1470    2.8470   -1.2270 n7        1 N73     -0.553700
      5 ON2         1.2160    2.6590   -2.1600 os        1 N73     -0.268100
      6 C13         0.9430    3.7210   -3.1350 c3        1 N73      0.111100
      7 C44        -0.0650    3.0990   -4.0790 c3        1 N73     -0.117600
      8 C15         0.4070    4.9680   -2.4720 c3        1 N73     -0.117600
      9 C16         1.5360    3.2040    0.0810 c3        1 N73      0.033500
     10 C18         2.6080    3.5730    1.1310 c3        1 N73     -0.060700
     11 C19         3.3320    4.8380    0.7170 c3        1 N73     -0.109600
     12 C20         1.9700    3.7550    2.4920 c3        1 N73     -0.109600
     13 C17         0.7340    2.0020    0.5950 c         1 N73      0.639500
     14 O8          1.0850    0.8240    0.3870 o         1 N73     -0.654100
     15 N8         -0.6090    2.2760    1.1730 ne        1 N73      0.004900
     16 OA8        -0.7840    2.2600    2.3050 o         1 N73     -0.029300
     17 C1          2.4360   -2.5870   -1.3200 ca        1 N73     -0.241500
     18 C2          2.0980   -3.7760   -0.6390 ca        1 N73      0.003500
     19 C3          2.5430   -5.0040   -1.0930 ca        1 N73     -0.152000
     20 C4          3.3450   -5.0930   -2.2500 cp        1 N73      0.103000
     21 C11         3.6840   -3.9130   -2.9320 ca        1 N73     -0.152000
     22 C12         3.2370   -2.6810   -2.4720 ca        1 N73      0.003500
     23 C5          3.8110   -6.3890   -2.7280 cp        1 N73     -0.100000
     24 C6          3.8980   -6.6470   -4.1050 ca        1 N73     -0.096000
     25 C7          4.3390   -7.8880   -4.5580 ca        1 N73     -0.128000
     26 C8          4.7070   -8.8780   -3.6470 ca        1 N73     -0.092000
     27 C9          4.6270   -8.6270   -2.2760 ca        1 N73     -0.128000
     28 C10         4.1780   -7.3910   -1.8160 ca        1 N73     -0.096000
     29 H1          1.1180    0.4920   -1.9850 ho        1 N73      0.498000
     30 H2          3.1090    0.6150   -0.3030 ho        1 N73      0.498000
     31 H3          1.9040    3.9440   -3.6780 h1        1 N73      0.061700
     32 H4         -0.2290    3.7880   -4.9430 hc        1 N73      0.056867
     33 H5         -1.0380    2.9280   -3.5600 hc        1 N73      0.056867
     34 H6          0.3140    2.1200   -4.4590 hc        1 N73      0.056867
     35 H7          0.1060    5.7030   -3.2590 hc        1 N73      0.056867
     36 H8          1.1820    5.4480   -1.8260 hc        1 N73      0.056867
     37 H9         -0.4890    4.7330   -1.8480 hc        1 N73      0.056867
     38 H10         0.8270    4.0820   -0.0310 h1        1 N73      0.088700
     39 H11         3.3540    2.7310    1.1950 hc        1 N73      0.066700
     40 H12         2.6080    5.6280    0.4010 hc        1 N73      0.053033
     41 H13         4.0430    4.6440   -0.1210 hc        1 N73      0.053033
     42 H14         3.9260    5.2340    1.5780 hc        1 N73      0.053033
     43 H15         2.7320    4.1250    3.2220 hc        1 N73      0.053033
     44 H16         1.1390    4.5000    2.4500 hc        1 N73      0.053033
     45 H17         1.5680    2.7870    2.8810 hc        1 N73      0.053033
     46 H18         1.4670   -3.7280    0.2650 ha        1 N73      0.152000
     47 H19         2.2610   -5.9250   -0.5550 ha        1 N73      0.165500
     48 H20         4.3180   -3.9640   -3.8320 ha        1 N73      0.165500
     49 H21         3.5100   -1.7570   -3.0110 ha        1 N73      0.152000
     50 H22         3.6020   -5.8740   -4.8300 ha        1 N73      0.137000
     51 H23         4.3980   -8.0860   -5.6400 ha        1 N73      0.148000
     52 H24         5.0590   -9.8570   -4.0080 ha        1 N73      0.149000
     53 H25         4.9200   -9.4060   -1.5560 ha        1 N73      0.148000
     54 H26         4.1260   -7.1980   -0.7340 ha        1 N73      0.137000
     55 H111        2.7940    3.5930   -1.4760 hn        1 N73      0.381800
@<TRIPOS>BOND
     1    1    2 1   
     2    1   29 1   
     3    2    3 1   
     4    2   17 1   
     5    3   30 1   
     6    4    5 1   
     7    4    9 1   
     8    4   55 1   
     9    5    6 1   
    10    6    7 1   
    11    6    8 1   
    12    6   31 1   
    13    7   32 1   
    14    7   33 1   
    15    7   34 1   
    16    8   35 1   
    17    8   36 1   
    18    8   37 1   
    19    9   10 1   
    20    9   13 1   
    21    9   38 1   
    22   10   11 1   
    23   10   12 1   
    24   10   39 1   
    25   11   40 1   
    26   11   41 1   
    27   11   42 1   
    28   12   43 1   
    29   12   44 1   
    30   12   45 1   
    31   13   14 2   
    32   13   15 1   
    33   15   16 2   
    34   17   18 ar  
    35   17   22 ar  
    36   18   19 ar  
    37   18   46 1   
    38   19   20 ar  
    39   19   47 1   
    40   20   21 ar  
    41   20   23 1   
    42   21   22 ar  
    43   21   48 1   
    44   22   49 1   
    45   23   24 ar  
    46   23   28 ar  
    47   24   25 ar  
    48   24   50 1   
    49   25   26 ar  
    50   25   51 1   
    51   26   27 ar  
    52   26   52 1   
    53   27   28 ar  
    54   27   53 1   
    55   28   54 1   
@<TRIPOS>SUBSTRUCTURE
     1 N73         1 TEMP              0 ****  ****    0 ROOT
