@<TRIPOS>MOLECULE
N75
   56    60     1     0     0
SMALL
bcc


@<TRIPOS>ATOM
      1 C1          0.0000    0.0000    0.0000 ca        1 N75     -0.242000
      2 C2          1.3810    0.0000    0.0000 ca        1 N75      0.225100
      3 C3          2.0920    0.0000    1.2150 ca        1 N75     -0.147600
      4 C4          1.3960   -0.0000    2.4240 ca        1 N75      0.000000
      5 C5          0.0090    0.0010    2.4160 ca        1 N75     -0.169800
      6 C6         -0.7000    0.0010    1.2010 ca        1 N75      0.079100
      7 C7         -1.0180    0.0010    3.4770 cc        1 N75      0.042100
      8 C8         -2.2320    0.0020    2.8160 cd        1 N75      0.046900
      9 O1         -2.0180    0.0010    1.4870 os        1 N75     -0.126200
     10 C9         -3.5560    0.0020    3.4650 ca        1 N75     -0.007800
     11 C10        -4.7180    0.0020    2.6880 ca        1 N75     -0.086500
     12 C11        -5.9530    0.0010    3.3000 ca        1 N75     -0.166000
     13 C12        -6.0440    0.0020    4.6850 ca        1 N75      0.115100
     14 C13        -4.8910    0.0020    5.4620 ca        1 N75     -0.166000
     15 C14        -3.6530   -0.0050    4.8590 ca        1 N75     -0.086500
     16 O2         -7.2630    0.0030    5.2840 os        1 N75     -0.270900
     17 C15        -7.2850    0.0020    6.7120 c3        1 N75      0.152400
     18 C16        -8.7140    0.0030    7.1930 c         1 N75      0.328100
     19 N1         -8.9800    0.0030    8.5150 ny        1 N75      0.178200
     20 O3         -9.6230    0.0050    6.3910 o         1 N75     -0.382100
     21 C17       -10.3680    0.0040    8.9820 cx        1 N75     -0.215500
     22 C18       -10.7250   -0.9310   10.1380 cx        1 N75      0.007100
     23 C19       -10.6450    0.5780   10.3720 cx        1 N75      0.007100
     24 C20        -0.8010    0.0010    4.8930 cg        1 N75     -0.024300
     25 C21        -0.6400    0.0120    6.0550 ch        1 N75     -0.128000
     26 C22        -0.3980   -0.1640    7.2040 ca        1 N75      0.032000
     27 C23         1.1980   -0.1260    7.7870 ca        1 N75     -0.036000
     28 C24         1.4680   -0.3380    9.1590 ca        1 N75     -0.076000
     29 C25         0.5840   -1.1550    9.8490 ca        1 N75     -0.092000
     30 C26        -0.8720   -1.3940    9.5350 ca        1 N75     -0.043600
     31 Cl         -2.0800   -2.0800   10.6290 cl        1 N75     -0.054400
     32 C27        -1.3390   -0.4710    8.5120 ca        1 N75     -0.116000
     33 C28         3.5640   -0.0020    1.2090 c         1 N75      0.968200
     34 O4          4.2430   -0.0020    2.3740 o         1 N75     -0.862800
     35 O5          4.1680   -0.0020    0.1540 o         1 N75     -0.862800
     36 O6          2.0560   -0.0010   -1.1770 oh        1 N75     -0.409100
     37 H1         -0.5690    0.6620   -0.6410 ha        1 N75      0.107000
     38 H2          1.9930   -0.4170    3.2260 ha        1 N75      0.151000
     39 H3         -4.8060    0.3770    1.6750 ha        1 N75      0.148000
     40 H4         -6.7340   -0.1150    2.5580 ha        1 N75      0.119500
     41 H5         -4.7460    0.2990    6.4930 ha        1 N75      0.119500
     42 H6         -2.6610    0.3010    5.1700 ha        1 N75      0.148000
     43 H7         -6.6120   -0.7980    6.9930 h1        1 N75      0.034700
     44 H8         -6.9020    0.8640    7.2460 h1        1 N75      0.034700
     45 H9         -8.8180   -0.9410    8.8040 hn        1 N75      0.275800
     46 H10       -11.1550    0.3380    8.3170 hx        1 N75      0.147700
     47 H11       -11.6290   -1.5270   10.1720 hc        1 N75      0.063450
     48 H12        -9.7900   -1.4020   10.4190 hc        1 N75      0.063450
     49 H13        -9.8050    1.0910   10.8270 hc        1 N75      0.063450
     50 H14       -11.3510    1.2620   10.8270 hc        1 N75      0.063450
     51 H15         1.8950    0.3920    7.1380 ha        1 N75      0.117000
     52 H16         2.4400   -0.3340    9.6370 ha        1 N75      0.117000
     53 H17         0.6250   -1.5650   10.8510 ha        1 N75      0.095000
     54 H18        -2.3130   -0.5530    8.0460 ha        1 N75      0.072000
     55 H20         1.6360    0.6550   -1.7080 ho        1 N75      0.373000
     56 H121       -8.6400    0.7450    9.0950 hn        1 N75      0.275800
@<TRIPOS>BOND
     1    1    2 ar  
     2    1    6 ar  
     3    1   37 1   
     4    2    3 ar  
     5    2   36 1   
     6    3    4 ar  
     7    3   33 1   
     8    4    5 ar  
     9    4   38 1   
    10    5    6 ar  
    11    5    7 1   
    12    6    9 1   
    13    7    8 2   
    14    7   24 1   
    15    8    9 1   
    16    8   10 1   
    17   10   11 ar  
    18   10   15 ar  
    19   11   12 ar  
    20   11   39 1   
    21   12   13 ar  
    22   12   40 1   
    23   13   14 ar  
    24   13   16 1   
    25   14   15 ar  
    26   14   41 1   
    27   15   42 1   
    28   16   17 1   
    29   17   18 1   
    30   17   43 1   
    31   17   44 1   
    32   18   19 1   
    33   18   20 2   
    34   19   21 1   
    35   19   45 1   
    36   19   56 1   
    37   21   22 1   
    38   21   23 1   
    39   21   46 1   
    40   22   23 1   
    41   22   47 1   
    42   22   48 1   
    43   23   49 1   
    44   23   50 1   
    45   24   25 3   
    46   25   26 1   
    47   26   27 ar  
    48   26   32 ar  
    49   27   28 ar  
    50   27   51 1   
    51   28   29 ar  
    52   28   52 1   
    53   29   30 ar  
    54   29   53 1   
    55   30   31 1   
    56   30   32 ar  
    57   32   54 1   
    58   33   34 1   
    59   33   35 1   
    60   36   55 1   
@<TRIPOS>SUBSTRUCTURE
     1 N75         1 TEMP              0 ****  ****    0 ROOT
