@<TRIPOS>MOLECULE
N75
   55    59     1     0     0
SMALL
bcc


@<TRIPOS>ATOM
      1 C1         -4.2310   -2.7220   -0.5820 ca        1 N75     -0.224000
      2 C2         -5.3410   -1.9140   -0.9150 ca        1 N75      0.222100
      3 C3         -5.2560   -0.4960   -0.9400 ca        1 N75     -0.233600
      4 C4         -4.0560    0.1370   -0.6290 ca        1 N75     -0.011000
      5 C5         -2.9390   -0.6300   -0.2950 ca        1 N75     -0.168800
      6 C6         -3.0590   -2.0510   -0.2810 ca        1 N75      0.099100
      7 C7         -1.5610   -0.3490    0.0750 cc        1 N75      0.055100
      8 C8         -0.9360   -1.5740    0.2870 cd        1 N75      0.069900
      9 O1         -1.8410   -2.6410    0.0740 os        1 N75     -0.213200
     10 C9          0.3980   -1.9670    0.6630 ca        1 N75     -0.032800
     11 C10         0.7360   -3.3320    0.7470 ca        1 N75     -0.085500
     12 C11         2.0170   -3.7270    1.1050 ca        1 N75     -0.176500
     13 C12         2.9870   -2.7470    1.3790 ca        1 N75      0.087100
     14 C13         2.6710   -1.3870    1.3020 ca        1 N75     -0.176500
     15 C14         1.3790   -1.0060    0.9470 ca        1 N75     -0.085500
     16 O2          4.2450   -3.2490    1.6850 os        1 N75     -0.330900
     17 C15         5.1670   -2.3590    2.2940 c3        1 N75      0.056400
     18 C16         6.0200   -1.5580    1.3120 c         1 N75      0.635100
     19 N1          5.6520   -1.5160   -0.0120 n         1 N75     -0.529900
     20 O3          7.0270   -0.9580    1.7440 o         1 N75     -0.619100
     21 C17         6.3900   -0.8040   -0.9920 cx        1 N75      0.052700
     22 C18         6.5510   -1.3350   -2.4040 cx        1 N75     -0.152900
     23 C19         5.7020   -0.1220   -2.1590 cx        1 N75     -0.152900
     24 C20        -1.0230    0.9270    0.1780 cg        1 N75     -0.063300
     25 C21        -0.5960    2.0470    0.2550 ch        1 N75     -0.150000
     26 C22        -0.1210    3.3660    0.3380 ca        1 N75      0.057000
     27 C23        -0.9850    4.4430    0.0690 ca        1 N75     -0.103000
     28 C24        -0.5140    5.7510    0.1510 ca        1 N75     -0.124000
     29 C25         0.8120    6.0080    0.4980 ca        1 N75     -0.130000
     30 C26         1.6680    4.9360    0.7650 ca        1 N75      0.013400
     31 CL          3.2900    5.2420    1.1900 cl        1 N75     -0.111400
     32 C27         1.2150    3.6180    0.6880 ca        1 N75     -0.116000
     33 C28        -6.4440    0.3820   -1.2980 c         1 N75      0.920200
     34 O4         -7.5470   -0.1790   -1.5840 o         1 N75     -0.825800
     35 O5         -6.2810    1.6310   -1.2960 o         1 N75     -0.825800
     36 O6         -6.4750   -2.6090   -1.2050 oh        1 N75     -0.542100
     37 H1         -4.3110   -3.8140   -0.5670 ha        1 N75      0.148000
     38 H2         -4.0160    1.2380   -0.6550 ha        1 N75      0.168000
     39 H3         -0.0330   -4.0910    0.5280 ha        1 N75      0.155000
     40 H4          2.2850   -4.7900    1.1730 ha        1 N75      0.143500
     41 H5          3.4240   -0.6150    1.5160 ha        1 N75      0.143500
     42 H6          1.1290    0.0670    0.8880 ha        1 N75      0.155000
     43 H7          4.6650   -1.6470    2.9990 h1        1 N75      0.089700
     44 H8          5.8570   -3.0430    2.8650 h1        1 N75      0.089700
     45 H9          4.8440   -2.0180   -0.3050 hn        1 N75      0.326500
     46 H10         7.2640   -0.2860   -0.5320 h1        1 N75      0.117700
     47 H11         7.5350   -1.2200   -2.8900 hc        1 N75      0.075200
     48 H12         6.0560   -2.2780   -2.6970 hc        1 N75      0.075200
     49 H13         4.6070   -0.2080   -2.2790 hc        1 N75      0.075200
     50 H14         6.0710    0.8720   -2.4670 hc        1 N75      0.075200
     51 H15        -2.0330    4.2440   -0.2060 ha        1 N75      0.161000
     52 H16        -1.1940    6.5890   -0.0600 ha        1 N75      0.138000
     53 H17         1.1780    7.0430    0.5620 ha        1 N75      0.141000
     54 H18         1.8940    2.7790    0.8990 ha        1 N75      0.148000
     55 H20        -7.2000   -1.9800   -1.4260 ho        1 N75      0.492000
@<TRIPOS>BOND
     1    1    2 ar  
     2    1    6 ar  
     3    1   37 1   
     4    2    3 ar  
     5    2   36 1   
     6    3    4 ar  
     7    3   33 1   
     8    4    5 ar  
     9    4   38 1   
    10    5    6 ar  
    11    5    7 1   
    12    6    9 1   
    13    7    8 2   
    14    7   24 1   
    15    8    9 1   
    16    8   10 1   
    17   10   11 ar  
    18   10   15 ar  
    19   11   12 ar  
    20   11   39 1   
    21   12   13 ar  
    22   12   40 1   
    23   13   14 ar  
    24   13   16 1   
    25   14   15 ar  
    26   14   41 1   
    27   15   42 1   
    28   16   17 1   
    29   17   18 1   
    30   17   43 1   
    31   17   44 1   
    32   18   19 1   
    33   18   20 2   
    34   19   21 1   
    35   19   45 1   
    36   21   22 1   
    37   21   23 1   
    38   21   46 1   
    39   22   23 1   
    40   22   47 1   
    41   22   48 1   
    42   23   49 1   
    43   23   50 1   
    44   24   25 3   
    45   25   26 1   
    46   26   27 ar  
    47   26   32 ar  
    48   27   28 ar  
    49   27   51 1   
    50   28   29 ar  
    51   28   52 1   
    52   29   30 ar  
    53   29   53 1   
    54   30   31 1   
    55   30   32 ar  
    56   32   54 1   
    57   33   34 1   
    58   33   35 1   
    59   36   55 1   
@<TRIPOS>SUBSTRUCTURE
     1 N75         1 TEMP              0 ****  ****    0 ROOT
