@<TRIPOS>MOLECULE
N76
   50    44     1     0     0
SMALL
bcc


@<TRIPOS>ATOM
      1 C2         -1.3050   -0.7940   -1.0150 c1        1 N76      0.060500
      2 C8         -0.6270   -0.8700    3.4330 c1        1 N76      0.060500
      3 C10         2.9310   -0.0500    0.0540 c3        1 N76     -0.014000
      4 C11         4.2000   -0.3330    0.4040 c3        1 N76     -0.110000
      5 C12         4.3880   -0.3550    1.9820 c3        1 N76     -0.151500
      6 C13         5.8190   -0.6440    2.4070 c3        1 N76     -0.153000
      7 C14         6.6930   -0.4120    1.4010 c3        1 N76     -0.155000
      8 C15         6.6180    0.6210    0.5200 c3        1 N76     -0.153000
      9 C16         5.1930    0.9010    0.1140 c3        1 N76     -0.151500
     10 C19        -5.4830    1.9900   -2.0980 c1        1 N76     -0.087000
     11 C20        -5.7870    0.6720   -1.7970 c1        1 N76     -0.816000
     12 N2         -2.4940   -0.9240   -1.7830 n2        1 N76     -0.221000
     13 C21        -4.7690   -0.2590   -1.6490 c1        1 N76      0.005000
     14 C22        -3.4470    0.1300   -1.8030 c1        1 N76      0.021000
     15 N26        -8.1590   -0.0380   -3.1140 n3        1 N76     -0.953000
     16 N1          0.0600   -0.8500   -1.0180 n2        1 N76     -0.265500
     17 C6          0.7340   -0.9110    0.1420 c1        1 N76      0.167000
     18 O6          2.1050   -1.1550    0.3440 o         1 N76     -0.176000
     19 C5          0.0430   -0.9180    1.3440 c1        1 N76     -0.215000
     20 N7          0.4650   -0.9220    2.6370 n1        1 N76     -0.150500
     21 N9         -1.7210   -0.8330    2.6410 n2        1 N76     -0.265500
     22 C4         -1.3050   -0.8630    1.3470 c1        1 N76      0.167000
     23 N3         -1.9860   -0.8010    0.1670 n1        1 N76     -0.150500
     24 C17        -3.1430    1.4490   -2.1040 c1        1 N76     -0.107000
     25 C18        -4.1610    2.3790   -2.2520 c1        1 N76     -0.087000
     26 S23        -7.4810    0.1670   -1.6320 s6        1 N76      2.865000
     27 O24        -7.5950   -1.0240   -0.8370 o         1 N76     -0.937500
     28 O25        -8.2290    1.1040   -0.8410 o         1 N76     -0.937500
     29 H8         -0.6230   -0.8280    4.4090 DU        1 N76      0.240500
     30 H101        2.6190    0.7320    0.5580 h1        1 N76      0.094500
     31 H102        2.8920    0.1430   -0.9070 h1        1 N76      0.094500
     32 H11         4.5200   -1.1590   -0.0100 hc        1 N76      0.111000
     33 H121        3.8040   -1.0430    2.3580 hc        1 N76      0.082500
     34 H122        4.1230    0.5150    2.3420 hc        1 N76      0.082500
     35 H131        5.8880   -1.5830    2.6800 hc        1 N76      0.079250
     36 H132        6.0480   -0.0710    3.1680 hc        1 N76      0.079250
     37 H141        6.7010   -1.2290    0.8580 hc        1 N76      0.079500
     38 H142        7.5770   -0.3430    1.8230 hc        1 N76      0.079500
     39 H151        6.9960    1.4240    0.9360 hc        1 N76      0.079250
     40 H152        7.1400    0.3980   -0.2780 hc        1 N76      0.079250
     41 H161        4.8740    1.6830    0.6070 hc        1 N76      0.082500
     42 H162        5.1730    1.1020   -0.8430 hc        1 N76      0.082500
     43 H19        -6.2000    2.6450   -2.2020 ha        1 N76      0.151500
     44 HN21       -2.6480   -1.6880   -2.2580 hn        1 N76      0.229000
     45 H21        -4.9840   -1.1870   -1.4360 ha        1 N76      0.169000
     46 H261       -7.9080   -0.7440   -3.6370 hn        1 N76      0.243000
     47 H262       -8.8010    0.5430   -3.4070 hn        1 N76      0.243000
     48 HN9        -2.5880   -0.7950    2.9240 DU        1 N76      0.240500
     49 H17        -2.2120    1.7220   -2.2130 ha        1 N76      0.137000
     50 H18        -3.9470    3.3070   -2.4640 ha        1 N76      0.151500
@<TRIPOS>BOND
     1    1   16 1   
     2    1   23 1   
     3    2   20 1   
     4    2   21 1   
     5    3    4 1   
     6    3   18 1   
     7    3   30 1   
     8    3   31 1   
     9    4    5 1   
    10    4    9 1   
    11    4   32 1   
    12    5    6 1   
    13    5   33 1   
    14    5   34 1   
    15    6    7 1   
    16    6   35 1   
    17    6   36 1   
    18    7    8 1   
    19    7   37 1   
    20    7   38 1   
    21    8    9 1   
    22    8   39 1   
    23    8   40 1   
    24    9   41 1   
    25    9   42 1   
    26   10   25 1   
    27   10   43 1   
    28   11   13 1   
    29   11   26 1   
    30   12   14 1   
    31   12   44 1   
    32   13   45 1   
    33   14   24 1   
    34   15   26 1   
    35   15   46 1   
    36   15   47 1   
    37   16   17 1   
    38   17   19 1   
    39   19   22 1   
    40   21   22 1   
    41   24   49 1   
    42   25   50 1   
    43   26   27 1   
    44   26   28 1   
@<TRIPOS>SUBSTRUCTURE
     1 N76         1 TEMP              0 ****  ****    0 ROOT
