@<TRIPOS>MOLECULE
N76
   50    53     1     0     0
SMALL
bcc


@<TRIPOS>ATOM
      1 C2          2.2390   -0.5100   -0.4800 ca        1 N76      0.910900
      2 C8          3.2710    0.6450   -4.6720 cc        1 N76      0.392700
      3 C10        -1.6320   -0.4120   -1.9760 c3        1 N76      0.136400
      4 C11        -2.8570   -0.2840   -2.8770 c3        1 N76     -0.071700
      5 C12        -3.1460    1.1750   -3.1930 c3        1 N76     -0.074400
      6 C13        -4.3940    1.3100   -4.0400 c3        1 N76     -0.075400
      7 C14        -5.5860    0.6540   -3.3730 c3        1 N76     -0.078400
      8 C15        -5.3000   -0.7960   -3.0420 c3        1 N76     -0.075400
      9 C16        -4.0510   -0.9360   -2.1950 c3        1 N76     -0.074400
     10 C19        -0.5620   -0.8670    3.8140 ca        1 N76     -0.029000
     11 C20         0.5910   -0.0950    3.9830 ca        1 N76     -0.366500
     12 N2          2.4490   -0.9350    0.8570 nh        1 N76     -0.702300
     13 C21         1.5620   -0.0940    2.9790 ca        1 N76     -0.057000
     14 C22         1.4080   -0.8770    1.8170 ca        1 N76      0.104600
     15 N26         1.4490   -0.1520    6.4170 n3        1 N76     -1.026700
     16 N1          0.9320   -0.4940   -0.9640 nb        1 N76     -0.824000
     17 C6          0.7440   -0.1830   -2.2640 ca        1 N76      0.756600
     18 O6         -0.5000   -0.1420   -2.8290 os        1 N76     -0.417100
     19 C5          1.8340    0.1240   -3.1250 ca        1 N76     -0.208200
     20 N7          1.9560    0.4730   -4.4770 nd        1 N76     -0.500100
     21 N9          4.0530    0.4280   -3.5120 na        1 N76     -0.383000
     22 C4          3.1540    0.0900   -2.4950 ca        1 N76      0.471800
     23 N3          3.3860   -0.2070   -1.1880 nb        1 N76     -0.769000
     24 C17         0.2450   -1.6650    1.6780 ca        1 N76     -0.044000
     25 C18        -0.7300   -1.6450    2.6720 ca        1 N76     -0.150000
     26 O24         1.7150    1.8850    5.0680 o         1 N76     -0.657300
     27 O25        -0.4860    1.2420    5.8320 o         1 N76     -0.657300
     28 H8          3.7390    0.9260   -5.6230 h5        1 N76      0.074800
     29 H101       -1.5420   -1.4500   -1.5640 h1        1 N76      0.054700
     30 H102       -1.6560    0.3340   -1.1410 h1        1 N76      0.054700
     31 H11        -2.6470   -0.8240   -3.8430 hc        1 N76      0.070700
     32 H121       -3.2770    1.7470   -2.2370 hc        1 N76      0.044700
     33 H122       -2.2670    1.6120   -3.7340 hc        1 N76      0.044700
     34 H131       -4.2190    0.8380   -5.0420 hc        1 N76      0.041450
     35 H132       -4.6120    2.3970   -4.2130 hc        1 N76      0.041450
     36 H141       -6.4770    0.7150   -4.0500 hc        1 N76      0.039700
     37 H142       -5.8400    1.2090   -2.4320 hc        1 N76      0.039700
     38 H151       -5.1720   -1.3780   -3.9920 hc        1 N76      0.041450
     39 H152       -6.1730   -1.2360   -2.4920 hc        1 N76      0.041450
     40 H161       -3.8380   -2.0220   -2.0170 hc        1 N76      0.044700
     41 H162       -4.2180   -0.4540   -1.1950 hc        1 N76      0.044700
     42 H19        -1.3500   -0.8420    4.5870 ha        1 N76      0.152000
     43 HN21        3.3460   -0.6790    1.2240 hn        1 N76      0.437800
     44 H21         2.4540    0.5470    3.1080 ha        1 N76      0.156000
     45 H261        0.9250   -0.7040    7.0480 hn        1 N76      0.447800
     46 H262        2.4240   -0.2760    6.5210 hn        1 N76      0.447800
     47 HN9         5.0320    0.5010   -3.4250 hn        1 N76      0.318700
     48 H17         0.1000   -2.2960    0.7860 ha        1 N76      0.158000
     49 H18        -1.6400   -2.2520    2.5500 ha        1 N76      0.143000
     50 S23         0.7900    0.8620    5.3670 sy        1 N76      1.526200
@<TRIPOS>BOND
     1    1   12 1   
     2    1   16 ar  
     3    1   23 ar  
     4    2   20 2   
     5    2   21 1   
     6    2   28 1   
     7    3    4 1   
     8    3   18 1   
     9    3   29 1   
    10    3   30 1   
    11    4    5 1   
    12    4    9 1   
    13    4   31 1   
    14    5    6 1   
    15    5   32 1   
    16    5   33 1   
    17    6    7 1   
    18    6   34 1   
    19    6   35 1   
    20    7    8 1   
    21    7   36 1   
    22    7   37 1   
    23    8    9 1   
    24    8   38 1   
    25    8   39 1   
    26    9   40 1   
    27    9   41 1   
    28   10   11 ar  
    29   10   25 ar  
    30   10   42 1   
    31   11   13 ar  
    32   11   50 1   
    33   12   14 1   
    34   12   43 1   
    35   13   14 ar  
    36   13   44 1   
    37   14   24 ar  
    38   15   45 1   
    39   15   46 1   
    40   15   50 1   
    41   16   17 ar  
    42   17   18 1   
    43   17   19 ar  
    44   19   20 1   
    45   19   22 ar  
    46   21   22 1   
    47   21   47 1   
    48   22   23 ar  
    49   24   25 ar  
    50   24   48 1   
    51   25   49 1   
    52   26   50 2   
    53   27   50 2   
@<TRIPOS>SUBSTRUCTURE
     1 N76         1 TEMP              0 ****  ****    0 ROOT
