@<TRIPOS>MOLECULE
N76
   52    52     1     0     0
SMALL
bcc


@<TRIPOS>ATOM
      1 C2         39.3640  158.4660  529.0390 c2        1 N76     -0.011000
      2 C8         43.8650  160.1130  530.6100 c1        1 N76     -0.155000
      3 C10        37.7820  163.1890  532.3180 cx        1 N76     -0.151000
      4 C11        37.1930  163.1400  530.9340 cx        1 N76     -0.222500
      5 C12        37.4410  163.6740  529.5620 c3        1 N76     -0.111000
      6 C13        36.0990  164.3370  529.1910 c3        1 N76     -0.155500
      7 C14        35.4230  165.2050  530.2560 c3        1 N76     -0.155500
      8 C15        35.5310  164.7460  531.7240 c3        1 N76     -0.111000
      9 C16        36.9630  164.3460  531.8480 cx        1 N76     -0.222500
     10 C19       -64.6170 -305.1390-1004.1660 c1        1 N76     -0.138000
     11 C20       -65.1350 -305.4510-1005.4490 c2        1 N76     -1.064000
     12 N2         38.3710  157.7330  528.5300 n2        1 N76      0.112000
     13 C21       -65.9790 -304.5670-1006.0980 c2        1 N76      0.241000
     14 C22       -66.3280 -303.3400-1005.4760 c2        1 N76     -0.241000
     15 N26       -65.2610 -307.3820-1007.6810 n3        1 N76     -0.498000
     16 N1         39.1640  159.7680  529.5880 n2        1 N76     -0.293000
     17 C6         40.1940  160.4270  530.0730 c2        1 N76      0.262000
     18 O6         40.0550  161.6560  530.6000 oh        1 N76     -0.172000
     19 C5         41.6070  159.8920  530.0910 c2        1 N76     -0.047000
     20 N7         42.5790  160.5860  530.5860 n2        1 N76      0.088000
     21 N9         44.9980  159.8330  530.6920 n1        1 N76      0.107000
     22 C4         41.7210  158.5040  529.4820 c3        1 N76     -0.227000
     23 N3         40.6180  157.8450  528.9850 n2        1 N76      0.214000
     24 C17       -65.8450 -303.0090-1004.2390 c2        1 N76      0.041000
     25 C18       -64.9420 -303.9090-1003.4960 c3        1 N76     -0.205000
     26 O24       -63.1510 -306.9010-1006.0670 o         1 N76     -0.439400
     27 O25       -65.0330 -307.9510-1005.0520 o         1 N76     -0.439400
     28 H8         42.2160  157.7600  530.2250 h1        1 N76      0.281000
     29 H101       39.1150  161.9720  530.5740 ho        1 N76      0.311000
     30 H102       37.3810  162.4530  533.0390 hc        1 N76      0.114000
     31 H11        38.8580  163.3870  532.4850 hc        1 N76      0.114000
     32 H121       36.3750  162.3800  530.8810 hc        1 N76      0.118500
     33 H122       38.2730  164.4210  529.5400 hc        1 N76      0.083500
     34 H131       37.6770  162.8700  528.8190 hc        1 N76      0.083500
     35 H132       36.2640  164.9720  528.2810 hc        1 N76      0.085250
     36 H141       35.3880  163.5180  528.9040 hc        1 N76      0.085250
     37 H142       35.8600  166.2370  530.1930 hc        1 N76      0.085250
     38 H151       34.3360  165.2860  529.9940 hc        1 N76      0.085250
     39 H152       34.8330  163.8970  531.9310 hc        1 N76      0.083500
     40 H161       35.2580  165.5910  532.4040 hc        1 N76      0.083500
     41 H162       37.6040  165.2480  531.6830 hc        1 N76      0.118500
     42 H19       -63.9700 -303.3710-1003.2380 hc        1 N76      0.226000
     43 HN21      -67.0030 -302.6520-1006.0170 ha        1 N76      0.184000
     44 H21       -66.3980 -304.7810-1007.0980 ha        1 N76      0.152000
     45 H261      -64.4710 -307.5280-1008.2890 hn        1 N76      0.205333
     46 H262      -65.7650 -308.2500-1007.5910 hn        1 N76      0.205333
     47 HN9        42.5040  158.4860  528.6250 h1        1 N76      0.281000
     48 H17       -66.1210 -302.0510-1003.7600 ha        1 N76      0.178000
     49 H18       -65.3850 -304.1610-1002.4760 hc        1 N76      0.226000
     50 H22        37.4530  158.1530  528.5540 hn        1 N76      0.238000
     51 H263      -65.8670 -306.6990-1008.0960 hn        1 N76      0.205333
     52 S23       -64.4270 -306.8790-1005.6140 s4        1 N76      2.160800
@<TRIPOS>BOND
     1    1   12 1   
     2    1   16 1   
     3    1   23 1   
     4    2   20 1   
     5    2   21 1   
     6    3    4 1   
     7    3    9 1   
     8    3   30 1   
     9    3   31 1   
    10    4    5 1   
    11    4    9 1   
    12    4   32 1   
    13    5    6 1   
    14    5   33 1   
    15    5   34 1   
    16    6    7 1   
    17    6   35 1   
    18    6   36 1   
    19    7    8 1   
    20    7   37 1   
    21    7   38 1   
    22    8    9 1   
    23    8   39 1   
    24    8   40 1   
    25    9   41 1   
    26   10   11 1   
    27   10   25 1   
    28   11   13 1   
    29   11   52 1   
    30   12   50 1   
    31   13   14 1   
    32   13   44 1   
    33   14   24 1   
    34   14   43 1   
    35   15   45 1   
    36   15   46 1   
    37   15   51 1   
    38   16   17 1   
    39   17   18 1   
    40   17   19 1   
    41   18   29 1   
    42   19   20 1   
    43   19   22 1   
    44   22   23 1   
    45   22   28 1   
    46   22   47 1   
    47   24   25 1   
    48   24   48 1   
    49   25   42 1   
    50   25   49 1   
    51   26   52 1   
    52   27   52 1   
@<TRIPOS>SUBSTRUCTURE
     1 N76         1 TEMP              0 ****  ****    0 ROOT
