@<TRIPOS>MOLECULE
N77
   38    40     1     0     0
SMALL
bcc


@<TRIPOS>ATOM
      1 N3         -0.5050   -0.8220   -0.1580 nu        1 N77     -0.440100
      2 O4          0.8060   -1.0830   -0.1350 oh        1 N77     -0.401300
      3 C16        -1.0260   -0.5220    1.1530 ca        1 N77      0.070600
      4 C1         -0.2580   -0.5800    2.3280 ca        1 N77     -0.032000
      5 C2         -0.7950   -0.1980    3.5630 ca        1 N77     -0.155300
      6 C3          0.0840   -0.2980    4.8150 c3        1 N77      0.693200
      7 F1         -0.2900    0.5490    5.8260 f         1 N77     -0.216300
      8 F2          0.0830   -1.5470    5.3810 f         1 N77     -0.216300
      9 F3          1.4060   -0.0140    4.5840 f         1 N77     -0.216300
     10 C4         -2.1070    0.2490    3.6860 ca        1 N77      0.008000
     11 C5         -2.8740    0.3110    2.5140 ca        1 N77     -0.178200
     12 N20        -4.2500    0.7560    2.4510 na        1 N77      0.282500
     13 O58        -4.8820    1.1130    3.3940 o         1 N77     -0.076000
     14 C6         -4.6890    0.7060    1.1250 cc        1 N77     -0.231800
     15 S1         -3.5000    0.1380    0.0250 ss        1 N77      0.080900
     16 C15        -2.3540   -0.0620    1.2440 ca        1 N77     -0.002100
     17 C7         -6.0210    1.1220    0.7840 c         1 N77      0.509800
     18 O1         -6.9360    1.4830    1.5140 o         1 N77     -0.417100
     19 N1         -6.3430    1.1330   -0.6990 ny        1 N77     -0.674800
     20 C8         -7.0620   -0.1240   -1.1060 c3        1 N77      0.185100
     21 C40        -7.4630   -0.0760   -2.5330 ca        1 N77     -0.318600
     22 C41        -8.7460    0.3490   -2.9120 ca        1 N77     -0.055000
     23 C42        -9.0880    0.3320   -4.2620 ca        1 N77     -0.233300
     24 C43        -8.1290   -0.1140   -5.1960 ca        1 N77      0.449200
     25 C45        -6.5760   -0.5120   -3.5420 ca        1 N77      0.430200
     26 N44        -6.8940   -0.5280   -4.8470 nb        1 N77     -0.642000
     27 H1         -0.9670   -1.6740   -0.4900 hn        1 N77      0.397800
     28 H2          1.2330   -0.2910   -0.5220 ho        1 N77      0.447000
     29 H3          0.7930   -0.9300    2.2760 ha        1 N77      0.198000
     30 H5         -2.5290    0.5490    4.6630 ha        1 N77      0.202000
     31 H8         -6.9580    1.9360   -0.8890 hn        1 N77      0.457800
     32 H9         -6.3650   -0.9910   -0.9110 hx        1 N77      0.114200
     33 H10        -7.9640   -0.2230   -0.4330 hx        1 N77      0.114200
     34 H11        -9.4760    0.6780   -2.1560 ha        1 N77      0.153000
     35 H12       -10.0850    0.6500   -4.6000 ha        1 N77      0.174000
     36 H13        -8.3590   -0.1460   -6.2790 h4        1 N77      0.055100
     37 H14        -5.5640   -0.8810   -3.2930 h4        1 N77      0.025100
     38 H121       -5.4910    1.2420   -1.2580 hn        1 N77      0.457800
@<TRIPOS>BOND
     1    1    2 1   
     2    1    3 1   
     3    1   27 1   
     4    2   28 1   
     5    3    4 ar  
     6    3   16 ar  
     7    4    5 ar  
     8    4   29 1   
     9    5    6 1   
    10    5   10 ar  
    11    6    7 1   
    12    6    8 1   
    13    6    9 1   
    14   10   11 ar  
    15   10   30 1   
    16   11   12 1   
    17   11   16 ar  
    18   12   13 1   
    19   12   14 2   
    20   14   15 1   
    21   14   17 1   
    22   15   16 1   
    23   17   18 2   
    24   17   19 1   
    25   19   20 1   
    26   19   31 1   
    27   19   38 1   
    28   20   21 1   
    29   20   32 1   
    30   20   33 1   
    31   21   22 ar  
    32   21   25 ar  
    33   22   23 ar  
    34   22   34 1   
    35   23   24 ar  
    36   23   35 1   
    37   24   26 ar  
    38   24   36 1   
    39   25   26 ar  
    40   25   37 1   
@<TRIPOS>SUBSTRUCTURE
     1 N77         1 TEMP              0 ****  ****    0 ROOT
