@<TRIPOS>MOLECULE
N77
   38    40     1     0     0
SMALL
bcc


@<TRIPOS>ATOM
      1 N3         -0.5200   -0.5860   -0.2120 nh        1 N77     -0.440100
      2 O4          0.7190   -1.0900   -0.1800 oh        1 N77     -0.401300
      3 C16        -1.0210   -0.2840    1.1050 ca        1 N77      0.071600
      4 C1         -0.2650   -0.4370    2.2800 ca        1 N77     -0.032000
      5 C2         -0.8320   -0.2090    3.5400 ca        1 N77     -0.155300
      6 C3          0.0450   -0.3750    4.7860 c3        1 N77      0.693200
      7 F1          0.7760    0.7450    5.0900 f         1 N77     -0.216300
      8 F2         -0.6600   -0.6580    5.9280 f         1 N77     -0.216300
      9 F3          0.9690   -1.3830    4.6800 f         1 N77     -0.216300
     10 C4         -2.1590    0.1840    3.6880 ca        1 N77      0.008000
     11 C5         -2.9150    0.3350    2.5180 ca        1 N77     -0.177200
     12 N20        -4.3070    0.7300    2.4800 na        1 N77      0.282500
     13 O58        -4.9580    0.9830    3.4450 o         1 N77     -0.075000
     14 C6         -4.7380    0.7690    1.1510 cc        1 N77     -0.231800
     15 S1         -3.5260    0.3260    0.0180 ss        1 N77      0.078900
     16 C15        -2.3710    0.1010    1.2250 ca        1 N77     -0.003100
     17 C7         -6.0850    1.1520    0.8340 c         1 N77      0.508800
     18 O1         -7.0020    1.4740    1.5800 o         1 N77     -0.415100
     19 N1         -6.4270    1.1760   -0.6440 n4        1 N77     -0.675800
     20 C8         -6.9420   -0.1610   -1.1040 c3        1 N77      0.184100
     21 C40        -7.3540   -0.1180   -2.5280 ca        1 N77     -0.317600
     22 C41        -8.6830    0.1480   -2.8910 ca        1 N77     -0.056000
     23 C42        -9.0270    0.1320   -4.2400 ca        1 N77     -0.233300
     24 C43        -8.0230   -0.1520   -5.1890 ca        1 N77      0.449200
     25 C45        -6.4230   -0.4000   -3.5510 ca        1 N77      0.431200
     26 N44        -6.7430   -0.4130   -4.8570 nb        1 N77     -0.642000
     27 H1         -0.4640    0.2940   -0.7340 hn        1 N77      0.398800
     28 H2          0.6130   -2.0430   -0.3770 ho        1 N77      0.447000
     29 H3          0.7970   -0.7460    2.2090 ha        1 N77      0.198000
     30 H5         -2.6030    0.3640    4.6850 ha        1 N77      0.202000
     31 H8         -7.1630    1.8800   -0.7950 hn        1 N77      0.459300
     32 H9         -7.8140   -0.4280   -0.4370 hx        1 N77      0.114200
     33 H10        -6.1150   -0.9130   -0.9430 hx        1 N77      0.114200
     34 H11        -9.4460    0.3520   -2.1230 ha        1 N77      0.152000
     35 H12       -10.0600    0.3280   -4.5660 ha        1 N77      0.174000
     36 H13        -8.2530   -0.1770   -6.2730 h4        1 N77      0.055100
     37 H14        -5.3700   -0.6420   -3.3170 h4        1 N77      0.026100
     38 H121       -5.6090    1.4420   -1.2010 hn        1 N77      0.459300
@<TRIPOS>BOND
     1    1    2 1   
     2    1    3 1   
     3    1   27 1   
     4    2   28 1   
     5    3    4 ar  
     6    3   16 ar  
     7    4    5 ar  
     8    4   29 1   
     9    5    6 1   
    10    5   10 ar  
    11    6    7 1   
    12    6    8 1   
    13    6    9 1   
    14   10   11 ar  
    15   10   30 1   
    16   11   12 1   
    17   11   16 ar  
    18   12   13 1   
    19   12   14 2   
    20   14   15 1   
    21   14   17 1   
    22   15   16 1   
    23   17   18 2   
    24   17   19 1   
    25   19   20 1   
    26   19   31 1   
    27   19   38 1   
    28   20   21 1   
    29   20   32 1   
    30   20   33 1   
    31   21   22 ar  
    32   21   25 ar  
    33   22   23 ar  
    34   22   34 1   
    35   23   24 ar  
    36   23   35 1   
    37   24   26 ar  
    38   24   36 1   
    39   25   26 ar  
    40   25   37 1   
@<TRIPOS>SUBSTRUCTURE
     1 N77         1 TEMP              0 ****  ****    0 ROOT
