@<TRIPOS>MOLECULE
N7F
   65    70     1     0     0
SMALL
bcc


@<TRIPOS>ATOM
      1 N1         -0.0830   -0.2300   -0.0410 n         1 N7F     -0.381300
      2 C2          1.3180   -0.2420   -0.0250 cc        1 N7F      0.490800
      3 N3          2.1030   -0.2040    1.0330 nd        1 N7F     -0.572100
      4 C4         -0.8160   -0.1920    1.1690 c         1 N7F      0.732100
      5 C5          0.0270   -0.1390    2.3650 cc        1 N7F     -0.220900
      6 C6          1.4580   -0.1520    2.2540 cd        1 N7F      0.178400
      7 C7          1.9670   -0.0990    3.5920 cd        1 N7F     -0.093000
      8 C8          0.8350   -0.0520    4.4640 cc        1 N7F      0.097300
      9 N9         -0.3410   -0.0680    3.7060 na        1 N7F      0.026900
     10 C10         3.3090   -0.1020    3.9930 ch        1 N7F      0.264800
     11 N11         4.4260   -0.1120    4.3240 n1        1 N7F     -0.368800
     12 N12         0.8230    0.0100    5.8910 nh        1 N7F     -0.598000
     13 C13         1.4430   -1.1750    6.4710 c3        1 N7F      0.156800
     14 C14         1.3440   -1.1340    8.0180 c3        1 N7F      0.111500
     15 C15         2.0040    0.1370    8.5550 c3        1 N7F     -0.105400
     16 C16         1.3290    1.3390    7.9250 c3        1 N7F     -0.080400
     17 C17         1.3700    1.2680    6.4010 c3        1 N7F      0.154800
     18 N18         1.9760   -2.3700    8.6010 n4        1 N7F     -0.840600
     19 C19        -1.6960   -0.0330    4.2110 c3        1 N7F      0.070600
     20 C20        -2.2250   -1.3630    4.6640 ca        1 N7F     -0.121300
     21 C21        -2.2560   -1.6870    6.0230 ca        1 N7F     -0.111500
     22 C22        -2.8060   -2.8980    6.4390 ca        1 N7F     -0.138000
     23 C23        -3.3180   -3.7930    5.4980 ca        1 N7F     -0.109000
     24 C24        -3.2840   -3.4730    4.1410 ca        1 N7F     -0.138000
     25 C25        -2.7420   -2.2580    3.7220 ca        1 N7F     -0.111500
     26 O26        -2.0610   -0.1980    1.1800 o         1 N7F     -0.627500
     27 C27        -0.7810   -0.2930   -1.3100 c3        1 N7F      0.115300
     28 C28        -2.1450   -0.5830   -3.8510 ca        1 N7F     -0.128000
     29 C29        -2.7950   -0.7040   -5.0550 ca        1 N7F     -0.110000
     30 C30        -2.7210   -1.9100   -5.7890 ca        1 N7F     -0.118000
     31 C31        -2.0010   -2.9760   -5.3130 ca        1 N7F     -0.157300
     32 C32        -0.6890   -1.5850   -2.0720 ca        1 N7F     -0.062300
     33 C33        -1.3880   -1.6600   -3.3220 ca        1 N7F     -0.139300
     34 C34        -1.3110   -2.8830   -4.0610 ca        1 N7F      0.396600
     35 N35        -0.5930   -3.9740   -3.6050 nb        1 N7F     -0.640000
     36 C36         0.0330   -3.8590   -2.4510 ca        1 N7F      0.411200
     37 C37         0.0190   -2.6800   -1.6400 ca        1 N7F     -0.247300
     38 H2          1.8080   -0.2840   -1.0250 h5        1 N7F      0.077800
     39 H271       -1.8760   -0.0790   -1.1110 h1        1 N7F      0.095200
     40 H272       -0.3710    0.5330   -1.9660 h1        1 N7F      0.095200
     41 H191       -2.3540    0.3560    3.3750 h1        1 N7F      0.097200
     42 H192       -1.7270    0.7010    5.0680 h1        1 N7F      0.097200
     43 H131        2.5300   -1.2720    6.1770 h1        1 N7F      0.069200
     44 H132        0.8810   -2.0720    6.0790 h1        1 N7F      0.069200
     45 H171        2.4320    1.4280    6.0510 h1        1 N7F      0.075200
     46 H172        0.7360    2.0970    5.9770 h1        1 N7F      0.075200
     47 H14         0.2530   -1.1560    8.3250 hx        1 N7F      0.123700
     48 H151        1.9030    0.1930    9.6710 hc        1 N7F      0.072200
     49 H152        3.0980    0.1460    8.3010 hc        1 N7F      0.072200
     50 H181        1.5040   -3.2040    8.2390 hn        1 N7F      0.461467
     51 H182        1.8980   -2.3470    9.6210 hn        1 N7F      0.461467
     52 H161        1.8630    2.2720    8.2480 hc        1 N7F      0.081200
     53 H162        0.2690    1.4120    8.2810 hc        1 N7F      0.081200
     54 H21        -1.8660   -0.9740    6.7640 ha        1 N7F      0.142500
     55 H25        -2.7350   -1.9890    2.6510 ha        1 N7F      0.142500
     56 H22        -2.8590   -3.1410    7.5100 ha        1 N7F      0.138000
     57 H23        -3.7600   -4.7460    5.8280 ha        1 N7F      0.143000
     58 H24        -3.6970   -4.1740    3.3980 ha        1 N7F      0.138000
     59 H30        -3.2510   -1.9820   -6.7520 ha        1 N7F      0.146000
     60 H31        -1.9420   -3.9170   -5.8840 ha        1 N7F      0.159000
     61 H37         0.5770   -2.6970   -0.6950 ha        1 N7F      0.139000
     62 H36         0.6010   -4.7450   -2.1100 h4        1 N7F      0.028100
     63 H28        -2.2130    0.3610   -3.2880 ha        1 N7F      0.131000
     64 H183        2.9670   -2.4100    8.3430 hn        1 N7F      0.461467
     65 H29        -3.3820    0.1350   -5.4600 ha        1 N7F      0.142000
@<TRIPOS>BOND
     1    1    2 1   
     2    1    4 1   
     3    1   27 1   
     4    2    3 2   
     5    2   38 1   
     6    3    6 1   
     7    4    5 1   
     8    4   26 2   
     9    5    6 2   
    10    5    9 1   
    11    6    7 1   
    12    7    8 2   
    13    7   10 1   
    14    8    9 1   
    15    8   12 1   
    16    9   19 1   
    17   10   11 3   
    18   12   13 1   
    19   12   17 1   
    20   13   14 1   
    21   13   43 1   
    22   13   44 1   
    23   14   15 1   
    24   14   18 1   
    25   14   47 1   
    26   15   16 1   
    27   15   48 1   
    28   15   49 1   
    29   16   17 1   
    30   16   52 1   
    31   16   53 1   
    32   17   45 1   
    33   17   46 1   
    34   18   50 1   
    35   18   51 1   
    36   18   64 1   
    37   19   20 1   
    38   19   41 1   
    39   19   42 1   
    40   20   21 ar  
    41   20   25 ar  
    42   21   22 ar  
    43   21   54 1   
    44   22   23 ar  
    45   22   56 1   
    46   23   24 ar  
    47   23   57 1   
    48   24   25 ar  
    49   24   58 1   
    50   25   55 1   
    51   27   32 1   
    52   27   39 1   
    53   27   40 1   
    54   28   29 ar  
    55   28   33 ar  
    56   28   63 1   
    57   29   30 ar  
    58   29   65 1   
    59   30   31 ar  
    60   30   59 1   
    61   31   34 ar  
    62   31   60 1   
    63   32   33 ar  
    64   32   37 ar  
    65   33   34 ar  
    66   34   35 ar  
    67   35   36 ar  
    68   36   37 ar  
    69   36   62 1   
    70   37   61 1   
@<TRIPOS>SUBSTRUCTURE
     1 N7F         1 TEMP              0 ****  ****    0 ROOT
