@<TRIPOS>MOLECULE
N7F
   65    70     1     0     0
SMALL
bcc


@<TRIPOS>ATOM
      1 N1         -0.0910   -0.2340   -0.0500 n         1 N7F     -0.381300
      2 C2          1.3100   -0.2250   -0.0340 cc        1 N7F      0.490800
      3 N3          2.0950   -0.1770    1.0240 nd        1 N7F     -0.572100
      4 C4         -0.8240   -0.2100    1.1600 c         1 N7F      0.732100
      5 C5          0.0180   -0.1460    2.3560 cc        1 N7F     -0.220900
      6 C6          1.4490   -0.1380    2.2450 cd        1 N7F      0.178400
      7 C7          1.9580   -0.0810    3.5830 cd        1 N7F     -0.093000
      8 C8          0.8260   -0.0530    4.4560 cc        1 N7F      0.097300
      9 N9         -0.3500   -0.0850    3.6970 na        1 N7F      0.026900
     10 C10         3.3000   -0.0630    3.9840 ch        1 N7F      0.264800
     11 N11         4.4170   -0.0570    4.3140 n1        1 N7F     -0.368800
     12 N12         0.8130    0.0060    5.8830 nh        1 N7F     -0.598000
     13 C13         1.4510   -1.1710    6.4600 c3        1 N7F      0.156800
     14 C14         1.3510   -1.1350    8.0070 c3        1 N7F      0.111500
     15 C15         1.9920    0.1450    8.5470 c3        1 N7F     -0.105400
     16 C16         1.3000    1.3380    7.9190 c3        1 N7F     -0.080400
     17 C17         1.3410    1.2710    6.3950 c3        1 N7F      0.154800
     18 N18         2.0020   -2.3620    8.5870 nz        1 N7F     -0.840600
     19 C19        -1.7060   -0.0720    4.2040 c3        1 N7F      0.070600
     20 C20        -2.2140   -1.4110    4.6520 ca        1 N7F     -0.121300
     21 C21        -2.2390   -1.7400    6.0110 ca        1 N7F     -0.111500
     22 C22        -2.7710   -2.9610    6.4230 ca        1 N7F     -0.138000
     23 C23        -3.2690   -3.8610    5.4800 ca        1 N7F     -0.109000
     24 C24        -3.2420   -3.5350    4.1230 ca        1 N7F     -0.138000
     25 C25        -2.7190   -2.3110    3.7080 ca        1 N7F     -0.111500
     26 O26        -2.0690   -0.2340    1.1720 o         1 N7F     -0.627500
     27 C27        -0.7880   -0.3050   -1.3190 c3        1 N7F      0.115300
     28 C28        -2.1490   -0.6100   -3.8590 ca        1 N7F     -0.128000
     29 C29        -2.7990   -0.7390   -5.0630 ca        1 N7F     -0.110000
     30 C30        -2.7070   -1.9420   -5.8000 ca        1 N7F     -0.118000
     31 C31        -1.9710   -2.9990   -5.3260 ca        1 N7F     -0.157300
     32 C32        -0.6780   -1.5930   -2.0830 ca        1 N7F     -0.062300
     33 C33        -1.3760   -1.6770   -3.3330 ca        1 N7F     -0.139300
     34 C34        -1.2820   -2.8970   -4.0750 ca        1 N7F      0.396600
     35 N35        -0.5470   -3.9790   -3.6210 nb        1 N7F     -0.640000
     36 C36         0.0780   -3.8560   -2.4670 ca        1 N7F      0.411200
     37 C37         0.0470   -2.6790   -1.6540 ca        1 N7F     -0.247300
     38 H2          1.8000   -0.2570   -1.0340 h5        1 N7F      0.077800
     39 H271       -0.3910    0.5280   -1.9730 h1        1 N7F      0.095200
     40 H272       -1.8860   -0.1080   -1.1190 h1        1 N7F      0.095200
     41 H191       -2.3700    0.3100    3.3680 h1        1 N7F      0.097200
     42 H192       -1.7480    0.6590    5.0620 h1        1 N7F      0.097200
     43 H131        0.9030   -2.0750    6.0660 h1        1 N7F      0.069200
     44 H132        2.5390   -1.2510    6.1660 h1        1 N7F      0.069200
     45 H171        2.4000    1.4480    6.0450 h1        1 N7F      0.075200
     46 H172        0.6940    2.0920    5.9730 h1        1 N7F      0.075200
     47 H14         0.2610   -1.1740    8.3140 hx        1 N7F      0.123700
     48 H151        3.0860    0.1710    8.2920 hc        1 N7F      0.072200
     49 H152        1.8910    0.1980    9.6630 hc        1 N7F      0.072200
     50 H181        1.9240   -2.3420    9.6070 hn        1 N7F      0.461467
     51 H182        1.5430   -3.2030    8.2230 hn        1 N7F      0.461467
     52 H161        0.2380    1.3950    8.2760 hc        1 N7F      0.081200
     53 H162        1.8190    2.2790    8.2440 hc        1 N7F      0.081200
     54 H21        -1.8590   -1.0230    6.7540 ha        1 N7F      0.142500
     55 H25        -2.7160   -2.0390    2.6380 ha        1 N7F      0.142500
     56 H22        -2.8180   -3.2080    7.4930 ha        1 N7F      0.138000
     57 H23        -3.6960   -4.8210    5.8070 ha        1 N7F      0.143000
     58 H24        -3.6440   -4.2400    3.3790 ha        1 N7F      0.138000
     59 H30        -3.2370   -2.0210   -6.7630 ha        1 N7F      0.146000
     60 H31        -1.8980   -3.9380   -5.8990 ha        1 N7F      0.159000
     61 H37         0.6070   -2.6900   -0.7090 ha        1 N7F      0.139000
     62 H36         0.6600   -4.7340   -2.1280 h4        1 N7F      0.028100
     63 H28        -2.2310    0.3310   -3.2950 ha        1 N7F      0.131000
     64 H183        2.9940   -2.3860    8.3290 hn        1 N7F      0.461467
     65 H29        -3.3980    0.0910   -5.4660 ha        1 N7F      0.142000
@<TRIPOS>BOND
     1    1    2 1   
     2    1    4 1   
     3    1   27 1   
     4    2    3 2   
     5    2   38 1   
     6    3    6 1   
     7    4    5 1   
     8    4   26 2   
     9    5    6 2   
    10    5    9 1   
    11    6    7 1   
    12    7    8 2   
    13    7   10 1   
    14    8    9 1   
    15    8   12 1   
    16    9   19 1   
    17   10   11 3   
    18   12   13 1   
    19   12   17 1   
    20   13   14 1   
    21   13   43 1   
    22   13   44 1   
    23   14   15 1   
    24   14   18 1   
    25   14   47 1   
    26   15   16 1   
    27   15   48 1   
    28   15   49 1   
    29   16   17 1   
    30   16   52 1   
    31   16   53 1   
    32   17   45 1   
    33   17   46 1   
    34   18   50 1   
    35   18   51 1   
    36   18   64 1   
    37   19   20 1   
    38   19   41 1   
    39   19   42 1   
    40   20   21 ar  
    41   20   25 ar  
    42   21   22 ar  
    43   21   54 1   
    44   22   23 ar  
    45   22   56 1   
    46   23   24 ar  
    47   23   57 1   
    48   24   25 ar  
    49   24   58 1   
    50   25   55 1   
    51   27   32 1   
    52   27   39 1   
    53   27   40 1   
    54   28   29 ar  
    55   28   33 ar  
    56   28   63 1   
    57   29   30 ar  
    58   29   65 1   
    59   30   31 ar  
    60   30   59 1   
    61   31   34 ar  
    62   31   60 1   
    63   32   33 ar  
    64   32   37 ar  
    65   33   34 ar  
    66   34   35 ar  
    67   35   36 ar  
    68   36   37 ar  
    69   36   62 1   
    70   37   61 1   
@<TRIPOS>SUBSTRUCTURE
     1 N7F         1 TEMP              0 ****  ****    0 ROOT
