@<TRIPOS>MOLECULE
N7F
   65    70     1     0     0
SMALL
bcc


@<TRIPOS>ATOM
      1 N1         -0.1250   -0.2460   -0.0690 n         1 N7F     -0.381300
      2 C2          1.2750   -0.2460   -0.0630 cc        1 N7F      0.490800
      3 N3          2.0680   -0.2080    0.9900 nd        1 N7F     -0.572100
      4 C4         -0.8500   -0.2220    1.1460 c         1 N7F      0.732100
      5 C5          0.0010   -0.1690    2.3370 cc        1 N7F     -0.220900
      6 C6          1.4300   -0.1690    2.2160 cd        1 N7F      0.178400
      7 C7          1.9490   -0.1210    3.5510 cd        1 N7F     -0.093000
      8 C8          0.8230   -0.0900    4.4310 cc        1 N7F      0.097300
      9 N9         -0.3590   -0.1110    3.6800 na        1 N7F      0.026900
     10 C10         3.2930   -0.1140    3.9420 ch        1 N7F      0.264800
     11 N11         4.4120   -0.1170    4.2650 n1        1 N7F     -0.368800
     12 N12         0.8200   -0.0370    5.8580 nh        1 N7F     -0.598000
     13 C13         1.4540   -1.2210    6.4260 c3        1 N7F      0.156800
     14 C14         1.3650   -1.1910    7.9740 c3        1 N7F      0.111500
     15 C15         2.0180    0.0830    8.5150 c3        1 N7F     -0.105400
     16 C16         1.3290    1.2830    7.8970 c3        1 N7F     -0.080400
     17 C17         1.3600    1.2220    6.3730 c3        1 N7F      0.154800
     18 N18         2.0110   -2.4250    8.5440 n4        1 N7F     -0.840600
     19 C19        -1.7100   -0.0910    4.1960 c3        1 N7F      0.070600
     20 C20        -2.2240   -1.4280    4.6430 ca        1 N7F     -0.121300
     21 C21        -2.2430   -1.7610    6.0000 ca        1 N7F     -0.111500
     22 C22        -2.7800   -2.9800    6.4120 ca        1 N7F     -0.138000
     23 C23        -3.2910   -3.8730    5.4700 ca        1 N7F     -0.109000
     24 C24        -3.2700   -3.5440    4.1140 ca        1 N7F     -0.138000
     25 C25        -2.7410   -2.3220    3.6990 ca        1 N7F     -0.111500
     26 O26        -2.0950   -0.2390    1.1660 o         1 N7F     -0.627500
     27 C27        -0.8320   -0.3070   -1.3340 c3        1 N7F      0.115300
     28 C28        -2.2120   -0.5940   -3.8660 ca        1 N7F     -0.128000
     29 C29        -2.8710   -0.7140   -5.0650 ca        1 N7F     -0.110000
     30 C30        -2.7930   -1.9150   -5.8070 ca        1 N7F     -0.118000
     31 C31        -2.0600   -2.9780   -5.3430 ca        1 N7F     -0.157300
     32 C32        -0.7350   -1.5930   -2.1030 ca        1 N7F     -0.062300
     33 C33        -1.4420   -1.6670   -3.3490 ca        1 N7F     -0.139300
     34 C34        -1.3610   -2.8850   -4.0960 ca        1 N7F      0.396600
     35 N35        -0.6300   -3.9740   -3.6520 nb        1 N7F     -0.640000
     36 C36         0.0040   -3.8600   -2.5020 ca        1 N7F      0.411200
     37 C37        -0.0140   -2.6860   -1.6840 ca        1 N7F     -0.247300
     38 H2          1.7590   -0.2770   -1.0660 h5        1 N7F      0.077800
     39 H271       -0.4330    0.5260   -1.9880 h1        1 N7F      0.095200
     40 H272       -1.9270   -0.1030   -1.1260 h1        1 N7F      0.095200
     41 H191       -1.7420    0.6370    5.0570 h1        1 N7F      0.097200
     42 H192       -2.3780    0.2980    3.3660 h1        1 N7F      0.097200
     43 H131        2.5400   -1.3060    6.1240 h1        1 N7F      0.069200
     44 H132        0.8970   -2.1190    6.0320 h1        1 N7F      0.069200
     45 H171        0.7150    2.0490    5.9580 h1        1 N7F      0.075200
     46 H172        2.4180    1.3940    6.0160 h1        1 N7F      0.075200
     47 H14         0.2770   -1.2230    8.2880 hx        1 N7F      0.123700
     48 H151        3.1100    0.1020    8.2530 hc        1 N7F      0.072200
     49 H152        1.9240    0.1310    9.6320 hc        1 N7F      0.072200
     50 H181        1.9400   -2.4090    9.5650 hn        1 N7F      0.461467
     51 H182        1.5440   -3.2610    8.1800 hn        1 N7F      0.461467
     52 H161        0.2700    1.3450    8.2610 hc        1 N7F      0.081200
     53 H162        1.8570    2.2180    8.2230 hc        1 N7F      0.081200
     54 H21        -1.8540   -1.0490    6.7440 ha        1 N7F      0.142500
     55 H25        -2.7440   -2.0460    2.6300 ha        1 N7F      0.142500
     56 H22        -2.8220   -3.2300    7.4820 ha        1 N7F      0.138000
     57 H23        -3.7220   -4.8320    5.7960 ha        1 N7F      0.143000
     58 H24        -3.6820   -4.2430    3.3700 ha        1 N7F      0.138000
     59 H30        -3.3290   -1.9860   -6.7660 ha        1 N7F      0.146000
     60 H31        -1.9970   -3.9150   -5.9190 ha        1 N7F      0.159000
     61 H37         0.5520   -2.7040   -0.7430 ha        1 N7F      0.139000
     62 H36         0.5820   -4.7430   -2.1700 h4        1 N7F      0.028100
     63 H28        -2.2840    0.3460   -3.2970 ha        1 N7F      0.131000
     64 H183        3.0020   -2.4540    8.2790 hn        1 N7F      0.461467
     65 H29        -3.4680    0.1220   -5.4610 ha        1 N7F      0.142000
@<TRIPOS>BOND
     1    1    2 1   
     2    1    4 1   
     3    1   27 1   
     4    2    3 2   
     5    2   38 1   
     6    3    6 1   
     7    4    5 1   
     8    4   26 2   
     9    5    6 2   
    10    5    9 1   
    11    6    7 1   
    12    7    8 2   
    13    7   10 1   
    14    8    9 1   
    15    8   12 1   
    16    9   19 1   
    17   10   11 3   
    18   12   13 1   
    19   12   17 1   
    20   13   14 1   
    21   13   43 1   
    22   13   44 1   
    23   14   15 1   
    24   14   18 1   
    25   14   47 1   
    26   15   16 1   
    27   15   48 1   
    28   15   49 1   
    29   16   17 1   
    30   16   52 1   
    31   16   53 1   
    32   17   45 1   
    33   17   46 1   
    34   18   50 1   
    35   18   51 1   
    36   18   64 1   
    37   19   20 1   
    38   19   41 1   
    39   19   42 1   
    40   20   21 ar  
    41   20   25 ar  
    42   21   22 ar  
    43   21   54 1   
    44   22   23 ar  
    45   22   56 1   
    46   23   24 ar  
    47   23   57 1   
    48   24   25 ar  
    49   24   58 1   
    50   25   55 1   
    51   27   32 1   
    52   27   39 1   
    53   27   40 1   
    54   28   29 ar  
    55   28   33 ar  
    56   28   63 1   
    57   29   30 ar  
    58   29   65 1   
    59   30   31 ar  
    60   30   59 1   
    61   31   34 ar  
    62   31   60 1   
    63   32   33 ar  
    64   32   37 ar  
    65   33   34 ar  
    66   34   35 ar  
    67   35   36 ar  
    68   36   37 ar  
    69   36   62 1   
    70   37   61 1   
@<TRIPOS>SUBSTRUCTURE
     1 N7F         1 TEMP              0 ****  ****    0 ROOT
