@<TRIPOS>MOLECULE
N7F
   64    69     1     0     0
SMALL
bcc


@<TRIPOS>ATOM
      1 N1         -1.9260   -1.2940   -0.4880 n         1 N7F     -0.390300
      2 C2         -1.5580   -2.3540    0.3550 cc        1 N7F      0.467800
      3 N3         -0.3420   -2.6800    0.7360 nd        1 N7F     -0.562100
      4 C4         -0.9430   -0.4230   -1.0190 c         1 N7F      0.735100
      5 C5          0.4170   -0.7510   -0.6020 cc        1 N7F     -0.228900
      6 C6          0.6740   -1.8710    0.2570 cd        1 N7F      0.165400
      7 C7          2.0920   -1.9190    0.4530 cd        1 N7F     -0.100000
      8 C8          2.6540   -0.8310   -0.2860 cc        1 N7F      0.157300
      9 N9          1.6220   -0.1320   -0.9300 na        1 N7F      0.010900
     10 C10         2.7950   -2.8550    1.2220 ch        1 N7F      0.273800
     11 N11         3.3610   -3.6430    1.8670 n1        1 N7F     -0.372800
     12 N12         4.0170   -0.4560   -0.4360 nh        1 N7F     -0.627000
     13 C13         4.5910    0.0580    0.8060 c3        1 N7F      0.171800
     14 C14         6.0470    0.5590    0.5970 c3        1 N7F      0.173500
     15 C15         6.8880   -0.5860    0.0140 c3        1 N7F     -0.083400
     16 C16         6.2680   -1.0730   -1.2770 c3        1 N7F     -0.078400
     17 C17         4.8180   -1.5010   -1.0720 c3        1 N7F      0.173800
     18 N18         6.5890    1.0520    1.8510 n3        1 N7F     -0.914800
     19 C19         1.7600    1.0490   -1.7520 c3        1 N7F      0.075600
     20 C20         1.7690    2.3450   -0.9950 ca        1 N7F     -0.120300
     21 C21         2.9780    2.9150   -0.5820 ca        1 N7F     -0.107500
     22 C22         2.9800    4.1430    0.0780 ca        1 N7F     -0.138500
     23 C23         1.7780    4.8040    0.3320 ca        1 N7F     -0.115000
     24 C24         0.5710    4.2350   -0.0770 ca        1 N7F     -0.138500
     25 C25         0.5640    3.0080   -0.7390 ca        1 N7F     -0.107500
     26 O26        -1.2590    0.5100   -1.7820 o         1 N7F     -0.646500
     27 C27        -3.3240   -1.0850   -0.7940 c3        1 N7F      0.118300
     28 C28        -6.1600   -0.6590   -1.2370 ca        1 N7F     -0.122000
     29 C29        -7.5010   -0.4680   -1.4620 ca        1 N7F     -0.119000
     30 C30        -8.3450   -0.0230   -0.4190 ca        1 N7F     -0.124000
     31 C31        -7.8380    0.2270    0.8310 ca        1 N7F     -0.160300
     32 C32        -4.2010   -0.6020    0.3270 ca        1 N7F     -0.058300
     33 C33        -5.5950   -0.4160    0.0410 ca        1 N7F     -0.139300
     34 C34        -6.4430    0.0390    1.0990 ca        1 N7F      0.394600
     35 N35        -5.9600    0.3040    2.3690 nb        1 N7F     -0.652000
     36 C36        -4.6720    0.1230    2.5840 ca        1 N7F      0.415200
     37 C37        -3.7430   -0.3320    1.5940 ca        1 N7F     -0.241300
     38 H2         -2.3990   -2.9800    0.7280 h5        1 N7F      0.063800
     39 H271       -3.3840   -0.3270   -1.6340 h1        1 N7F      0.089200
     40 H272       -3.7450   -2.0650   -1.1700 h1        1 N7F      0.089200
     41 H191        2.7200    0.9520   -2.3390 h1        1 N7F      0.090700
     42 H192        0.8890    1.0540   -2.4750 h1        1 N7F      0.090700
     43 H131        3.9470    0.9190    1.1410 h1        1 N7F      0.057700
     44 H132        4.5860   -0.7270    1.6170 h1        1 N7F      0.057700
     45 H171        4.8020   -2.4540   -0.4650 h1        1 N7F      0.047700
     46 H172        4.3510   -1.7210   -2.0730 h1        1 N7F      0.047700
     47 H14         6.0120    1.3830   -0.1850 h1        1 N7F      0.016700
     48 H151        7.9330   -0.2330   -0.1820 hc        1 N7F      0.054200
     49 H152        6.9450   -1.4280    0.7530 hc        1 N7F      0.054200
     50 H181        7.5540    1.2880    1.7410 hn        1 N7F      0.355300
     51 H182        6.0770    1.8530    2.1610 hn        1 N7F      0.355300
     52 H161        6.3220   -0.2660   -2.0540 hc        1 N7F      0.051700
     53 H162        6.8390   -1.9570   -1.6630 hc        1 N7F      0.051700
     54 H21         3.9270    2.3920   -0.7800 ha        1 N7F      0.150000
     55 H25        -0.3880    2.5570   -1.0690 ha        1 N7F      0.150000
     56 H22         3.9310    4.5920    0.3970 ha        1 N7F      0.133000
     57 H23         1.7810    5.7720    0.8530 ha        1 N7F      0.133000
     58 H24        -0.3780    4.7540    0.1220 ha        1 N7F      0.133000
     59 H29        -7.9330   -0.6580   -2.4560 ha        1 N7F      0.137000
     60 H30        -9.4160    0.1220   -0.6240 ha        1 N7F      0.139000
     61 H31        -8.4930    0.5760    1.6460 ha        1 N7F      0.153000
     62 H37        -2.6900   -0.4460    1.8850 ha        1 N7F      0.151000
     63 H36        -4.3080    0.3440    3.6050 h4        1 N7F      0.027100
     64 H28        -5.5120   -1.0020   -2.0590 ha        1 N7F      0.132000
@<TRIPOS>BOND
     1    1    2 1   
     2    1    4 1   
     3    1   27 1   
     4    2    3 2   
     5    2   38 1   
     6    3    6 1   
     7    4    5 1   
     8    4   26 2   
     9    5    6 2   
    10    5    9 1   
    11    6    7 1   
    12    7    8 2   
    13    7   10 1   
    14    8    9 1   
    15    8   12 1   
    16    9   19 1   
    17   10   11 3   
    18   12   13 1   
    19   12   17 1   
    20   13   14 1   
    21   13   43 1   
    22   13   44 1   
    23   14   15 1   
    24   14   18 1   
    25   14   47 1   
    26   15   16 1   
    27   15   48 1   
    28   15   49 1   
    29   16   17 1   
    30   16   52 1   
    31   16   53 1   
    32   17   45 1   
    33   17   46 1   
    34   18   50 1   
    35   18   51 1   
    36   19   20 1   
    37   19   41 1   
    38   19   42 1   
    39   20   21 ar  
    40   20   25 ar  
    41   21   22 ar  
    42   21   54 1   
    43   22   23 ar  
    44   22   56 1   
    45   23   24 ar  
    46   23   57 1   
    47   24   25 ar  
    48   24   58 1   
    49   25   55 1   
    50   27   32 1   
    51   27   39 1   
    52   27   40 1   
    53   28   29 ar  
    54   28   33 ar  
    55   28   64 1   
    56   29   30 ar  
    57   29   59 1   
    58   30   31 ar  
    59   30   60 1   
    60   31   34 ar  
    61   31   61 1   
    62   32   33 ar  
    63   32   37 ar  
    64   33   34 ar  
    65   34   35 ar  
    66   35   36 ar  
    67   36   37 ar  
    68   36   63 1   
    69   37   62 1   
@<TRIPOS>SUBSTRUCTURE
     1 N7F         1 TEMP              0 ****  ****    0 ROOT
