@<TRIPOS>MOLECULE
N7I
   25    22     1     0     0
SMALL
bcc


@<TRIPOS>ATOM
      1 C1         -0.0110    0.4260   -1.6590 c1        1 N7I     -0.129500
      2 O1         -3.1600   -3.0670   -0.6020 oh        1 N7I     -0.328000
      3 C2          2.2440    1.7460    2.5200 c3        1 N7I     -0.068000
      4 O2          3.4500    0.5860   -0.4020 oh        1 N7I     -0.249000
      5 C3          1.3740    0.4610   -1.6370 c1        1 N7I     -0.129500
      6 O3          2.0170    0.4590    1.9900 os        1 N7I     -0.232000
      7 C4          2.0470    0.4790   -0.4250 c1        1 N7I      0.069000
      8 C5          1.3350    0.4620    0.7630 c2        1 N7I     -0.001000
      9 C6         -0.0500    0.4270    0.7410 c2        1 N7I     -0.152000
     10 C7         -0.7230    0.4080   -0.4700 c1        1 N7I     -0.048000
     11 C8         -2.2340    0.4520   -0.4950 c2        1 N7I     -0.130000
     12 C9         -2.9390   -0.6900   -0.5890 c1        1 N7I     -0.147000
     13 C10        -2.2200   -2.0180   -0.6700 c2        1 N7I      0.003000
     14 H1         -0.4850    0.4130   -2.5120 ha        1 N7I      0.144500
     15 HO1        -2.7340   -3.8410   -0.5020 ho        1 N7I      0.201000
     16 H2          1.8050    1.8220    3.3950 h1        1 N7I      0.085667
     17 H2A         3.2090    1.8910    2.6250 h1        1 N7I      0.085667
     18 H2B         1.8760    2.4210    1.9100 h1        1 N7I      0.085667
     19 HO2         3.8100   -0.2030   -0.5990 ho        1 N7I      0.236000
     20 H3          1.8750    0.4730   -2.4740 ha        1 N7I      0.144500
     21 H6         -0.5520    0.4140    1.5780 ha        1 N7I      0.141000
     22 H8         -2.6980    1.3090   -0.4420 ha        1 N7I      0.128000
     23 H9         -3.9150   -0.6620   -0.6050 ha        1 N7I      0.144000
     24 H10        -1.7300   -2.0730   -1.5170 h4        1 N7I      0.074000
     25 H10A       -1.5910   -2.0950    0.0770 h4        1 N7I      0.074000
@<TRIPOS>BOND
     1    1    5 1   
     2    1   14 1   
     3    2   13 1   
     4    2   15 1   
     5    3    6 1   
     6    3   16 1   
     7    3   17 1   
     8    3   18 1   
     9    4    7 1   
    10    4   19 1   
    11    5   20 1   
    12    6    8 1   
    13    7    8 1   
    14    8    9 1   
    15    9   10 1   
    16    9   21 1   
    17   10   11 1   
    18   11   12 1   
    19   11   22 1   
    20   12   23 1   
    21   13   24 1   
    22   13   25 1   
@<TRIPOS>SUBSTRUCTURE
     1 N7I         1 TEMP              0 ****  ****    0 ROOT
