@<TRIPOS>MOLECULE
N7I
   25    25     1     0     0
SMALL
bcc


@<TRIPOS>ATOM
      1 C1         -0.4990    0.0040    0.0510 ca        1 N7I     -0.111000
      2 O1         -3.4890    0.0830   -1.4450 oh        1 N7I     -0.597800
      3 C2          1.5500   -0.4470    4.6180 c3        1 N7I      0.121700
      4 O2          2.7140    1.3900    1.0810 oh        1 N7I     -0.495100
      5 C3          0.7330    0.6510    0.0100 ca        1 N7I     -0.143000
      6 O3          1.8800    0.3150    3.4630 os        1 N7I     -0.349900
      7 C4          1.5110    0.7340    1.1710 ca        1 N7I      0.116100
      8 C5          1.0380    0.1560    2.3730 ca        1 N7I      0.037100
      9 C6         -0.1930   -0.4950    2.4040 ca        1 N7I     -0.149000
     10 C7         -0.9730   -0.5660    1.2380 ca        1 N7I     -0.071800
     11 C8         -2.2470   -1.2690    1.2830 ce        1 N7I     -0.091200
     12 C9         -3.3880   -0.8890    0.7000 c2        1 N7I     -0.159200
     13 C10        -3.5950    0.3770   -0.0570 c3        1 N7I      0.157600
     14 H1         -1.1100   -0.0700   -0.8660 ha        1 N7I      0.157000
     15 HO1        -3.6730    0.9070   -1.9110 ho        1 N7I      0.399000
     16 H2          0.5910   -0.0830    5.0620 h1        1 N7I      0.045367
     17 H2A         1.4800   -1.5340    4.3720 h1        1 N7I      0.045367
     18 H2B         2.4050   -0.2500    5.3140 h1        1 N7I      0.045367
     19 HO2         3.1530    1.3360    1.9440 ho        1 N7I      0.436000
     20 H3          1.1110    1.0960   -0.9220 ha        1 N7I      0.153000
     21 H6         -0.5630   -0.9510    3.3330 ha        1 N7I      0.139000
     22 H8         -2.2280   -2.2050    1.8730 ha        1 N7I      0.126000
     23 H9         -4.2830   -1.5290    0.7670 ha        1 N7I      0.129000
     24 H10        -4.6180    0.7890    0.1640 h1        1 N7I      0.030200
     25 H10A       -2.8260    1.1500    0.2230 h1        1 N7I      0.030200
@<TRIPOS>BOND
     1    1    5 ar  
     2    1   10 ar  
     3    1   14 1   
     4    2   13 1   
     5    2   15 1   
     6    3    6 1   
     7    3   16 1   
     8    3   17 1   
     9    3   18 1   
    10    4    7 1   
    11    4   19 1   
    12    5    7 ar  
    13    5   20 1   
    14    6    8 1   
    15    7    8 ar  
    16    8    9 ar  
    17    9   10 ar  
    18    9   21 1   
    19   10   11 1   
    20   11   12 2   
    21   11   22 1   
    22   12   13 1   
    23   12   23 1   
    24   13   24 1   
    25   13   25 1   
@<TRIPOS>SUBSTRUCTURE
     1 N7I         1 TEMP              0 ****  ****    0 ROOT
