@<TRIPOS>MOLECULE
N7I
   25    25     1     0     0
SMALL
bcc


@<TRIPOS>ATOM
      1 C1          0.3070   -1.4190   -0.1150 ca        1 N7I     -0.112000
      2 O1          5.2870   -0.3110    0.1820 oh        1 N7I     -0.598800
      3 C2         -2.9300    2.4140    0.1870 c3        1 N7I      0.121700
      4 O2         -3.3130   -1.7290    0.2040 oh        1 N7I     -0.494100
      5 C3         -0.9640   -1.9730    0.0080 ca        1 N7I     -0.139000
      6 O3         -3.0810    1.0030    0.0970 os        1 N7I     -0.349900
      7 C4         -2.0810   -1.1330    0.0850 ca        1 N7I      0.115100
      8 C5         -1.9060    0.2700    0.0290 ca        1 N7I      0.041100
      9 C6         -0.6310    0.8140   -0.0970 ca        1 N7I     -0.152000
     10 C7          0.4900   -0.0320   -0.1650 ca        1 N7I     -0.057800
     11 C8          1.8080    0.5670   -0.2970 ce        1 N7I     -0.117200
     12 C9          2.9620   -0.0520   -0.0180 c2        1 N7I     -0.155200
     13 C10         4.2780    0.6230   -0.1780 c3        1 N7I      0.160600
     14 H1          1.1780   -2.0900   -0.1800 ha        1 N7I      0.140000
     15 HO1         6.1300    0.1430    0.0740 ho        1 N7I      0.402000
     16 H2         -3.9820    2.7810    0.3010 h1        1 N7I      0.045367
     17 H2A        -2.3150    2.6910    1.0770 h1        1 N7I      0.045367
     18 H2B        -2.4710    2.8170   -0.7480 h1        1 N7I      0.045367
     19 HO2        -3.9820   -1.0290    0.2610 ho        1 N7I      0.436000
     20 H3         -1.1080   -3.0620    0.0470 ha        1 N7I      0.154000
     21 H6         -0.4900    1.9040   -0.1420 ha        1 N7I      0.138000
     22 H8          1.8110    1.6140   -0.6500 ha        1 N7I      0.120000
     23 H9          3.0110   -1.0890    0.3510 ha        1 N7I      0.148000
     24 H10         4.3430    1.5270    0.4890 h1        1 N7I      0.031200
     25 H10A        4.4280    0.9510   -1.2440 h1        1 N7I      0.031200
@<TRIPOS>BOND
     1    1    5 ar  
     2    1   10 ar  
     3    1   14 1   
     4    2   13 1   
     5    2   15 1   
     6    3    6 1   
     7    3   16 1   
     8    3   17 1   
     9    3   18 1   
    10    4    7 1   
    11    4   19 1   
    12    5    7 ar  
    13    5   20 1   
    14    6    8 1   
    15    7    8 ar  
    16    8    9 ar  
    17    9   10 ar  
    18    9   21 1   
    19   10   11 1   
    20   11   12 2   
    21   11   22 1   
    22   12   13 1   
    23   12   23 1   
    24   13   24 1   
    25   13   25 1   
@<TRIPOS>SUBSTRUCTURE
     1 N7I         1 TEMP              0 ****  ****    0 ROOT
