@<TRIPOS>MOLECULE
N7I
   25    25     1     0     0
SMALL
bcc


@<TRIPOS>ATOM
      1 C1         -0.4510    0.1290    0.0550 ca        1 N7I     -0.108000
      2 O1         -3.3490    0.4940   -1.5170 oh        1 N7I     -0.597800
      3 C2          1.4270   -0.5710    4.6680 c3        1 N7I      0.121700
      4 O2          2.8440    1.2140    1.1840 oh        1 N7I     -0.494100
      5 C3          0.8230    0.6930    0.0630 ca        1 N7I     -0.141000
      6 O3          1.9360    0.0120    3.4750 os        1 N7I     -0.349900
      7 C4          1.5970    0.6410    1.2280 ca        1 N7I      0.119100
      8 C5          1.0800    0.0090    2.3840 ca        1 N7I      0.037100
      9 C6         -0.1910   -0.5590    2.3660 ca        1 N7I     -0.149000
     10 C7         -0.9680   -0.4930    1.1970 ca        1 N7I     -0.078800
     11 C8         -2.2850   -1.1130    1.2000 ce        1 N7I     -0.074200
     12 C9         -3.3950   -0.6460    0.6170 c2        1 N7I     -0.218200
     13 C10        -3.5260    0.6420   -0.1180 c3        1 N7I      0.156600
     14 H1         -1.0580    0.1690   -0.8670 ha        1 N7I      0.162000
     15 HO1        -3.9470   -0.2030   -1.8100 ho        1 N7I      0.399000
     16 H2          0.5080   -0.0340    5.0080 h1        1 N7I      0.045700
     17 H2A         1.2120   -1.6560    4.5140 h1        1 N7I      0.045700
     18 H2B         2.2610   -0.4320    5.4020 h1        1 N7I      0.045700
     19 HO2         3.2570    1.1060    2.0550 ho        1 N7I      0.437000
     20 H3          1.2320    1.1810   -0.8330 ha        1 N7I      0.156000
     21 H6         -0.5970   -1.0560    3.2590 ha        1 N7I      0.138000
     22 H8         -2.3330   -2.0660    1.7600 ha        1 N7I      0.123000
     23 H9         -4.3270   -1.2330    0.6790 ha        1 N7I      0.120000
     24 H10        -4.5380    1.0900    0.0850 h1        1 N7I      0.052700
     25 H10A       -2.7320    1.3800    0.1850 h1        1 N7I      0.052700
@<TRIPOS>BOND
     1    1    5 ar  
     2    1   10 ar  
     3    1   14 1   
     4    2   13 1   
     5    2   15 1   
     6    3    6 1   
     7    3   16 1   
     8    3   17 1   
     9    3   18 1   
    10    4    7 1   
    11    4   19 1   
    12    5    7 ar  
    13    5   20 1   
    14    6    8 1   
    15    7    8 ar  
    16    8    9 ar  
    17    9   10 ar  
    18    9   21 1   
    19   10   11 1   
    20   11   12 2   
    21   11   22 1   
    22   12   13 1   
    23   12   23 1   
    24   13   24 1   
    25   13   25 1   
@<TRIPOS>SUBSTRUCTURE
     1 N7I         1 TEMP              0 ****  ****    0 ROOT
