@<TRIPOS>MOLECULE
N7O
   43    45     1     0     0
SMALL
bcc


@<TRIPOS>ATOM
      1 C10         2.9970    0.5640   -0.8210 ce        1 N7O     -0.202200
      2 C13         6.6660    0.3140   -1.5140 ca        1 N7O     -0.139000
      3 C20        -1.8460    1.0480   -1.6350 cc        1 N7O     -0.154400
      4 C22        -3.4260   -0.8190   -1.6570 ca        1 N7O     -0.101100
      5 C24        -4.8450   -2.5600   -0.7990 ca        1 N7O     -0.116000
      6 C28        -3.0580   -0.4480   -0.3330 ca        1 N7O     -0.056800
      7 P02        -1.9140    2.8440    1.1650 p5        1 N7O      1.495100
      8 O03        -1.5480    3.7090    0.0480 o         1 N7O     -0.872300
      9 O04        -3.5150    2.9130    1.3160 oh        1 N7O     -0.798400
     10 C05        -1.5710    1.2030    0.9260 c3        1 N7O     -0.351700
     11 C06        -0.1200    0.7990    1.1350 c         1 N7O      0.687100
     12 O07         0.2660    0.3720    2.2440 o         1 N7O     -0.594100
     13 N08         0.7690    0.8810    0.0730 n         1 N7O     -0.466100
     14 C09         2.1020    0.4940    0.1930 c2        1 N7O      0.004600
     15 C11         4.3830    0.1610   -0.6870 ca        1 N7O     -0.013800
     16 C12         5.3270    0.6700   -1.5970 ca        1 N7O     -0.119000
     17 C14         7.0990   -0.5730   -0.5130 ca        1 N7O      0.085900
     18 F15         8.4020   -0.9250   -0.4270 f         1 N7O     -0.126900
     19 C16         6.1540   -1.0990    0.4060 ca        1 N7O      0.098900
     20 F17         6.5540   -1.9580    1.3710 f         1 N7O     -0.126900
     21 C18         4.8030   -0.7280    0.3080 ca        1 N7O     -0.149000
     22 C19        -2.1290    0.6710   -0.3370 cd        1 N7O     -0.095400
     23 S21        -2.6540    0.1560   -2.7900 ss        1 N7O      0.103500
     24 C23        -4.3200   -1.8740   -1.8780 ca        1 N7O     -0.081000
     25 C25        -4.4780   -2.1950    0.5140 ca        1 N7O      0.022400
     26 CL26       -5.1380   -3.0590    1.8210 cl        1 N7O     -0.085400
     27 C27        -3.5950   -1.1520    0.7560 ca        1 N7O     -0.090000
     28 H10         2.7150    0.9550   -1.8130 ha        1 N7O      0.134000
     29 H13         7.4010    0.7180   -2.2260 ha        1 N7O      0.154000
     30 H20        -1.2130    1.8910   -1.9340 h4        1 N7O      0.197000
     31 H24        -5.5490   -3.3910   -0.9580 ha        1 N7O      0.153000
     32 H01        -0.7690    4.1580    2.6600 hc        1 N7O      0.123367
     33 H01A       -2.1740    3.3400    3.4010 hc        1 N7O      0.123367
     34 H01B       -0.6720    2.4290    3.0980 hc        1 N7O      0.123367
     35 H05        -2.1070    0.6550    1.7690 hc        1 N7O      0.136700
     36 HN08        0.4420    1.1810   -0.8180 hn        1 N7O      0.331500
     37 H09         2.3760    0.1280    1.2040 h4        1 N7O      0.174000
     38 H12         5.0000    1.3660   -2.3850 ha        1 N7O      0.142000
     39 H18         4.0860   -1.1570    1.0240 ha        1 N7O      0.155000
     40 H23        -4.5990   -2.1530   -2.9050 ha        1 N7O      0.145000
     41 H27        -3.3210   -0.8900    1.7900 ha        1 N7O      0.151000
     42 H15        -3.9860    3.3370    0.6030 ho        1 N7O      0.481000
     43 C01        -1.3520    3.2010    2.6520 c3        1 N7O     -0.486300
@<TRIPOS>BOND
     1    1   14 2   
     2    1   15 1   
     3    1   28 1   
     4    2   16 ar  
     5    2   17 ar  
     6    2   29 1   
     7    3   22 2   
     8    3   23 1   
     9    3   30 1   
    10    4    6 ar  
    11    4   23 1   
    12    4   24 ar  
    13    5   24 ar  
    14    5   25 ar  
    15    5   31 1   
    16    6   22 1   
    17    6   27 ar  
    18    7    8 2   
    19    7    9 1   
    20    7   10 1   
    21    7   43 1   
    22    9   42 1   
    23   10   11 1   
    24   10   22 1   
    25   10   35 1   
    26   11   12 2   
    27   11   13 1   
    28   13   14 1   
    29   13   36 1   
    30   14   37 1   
    31   15   16 ar  
    32   15   21 ar  
    33   16   38 1   
    34   17   18 1   
    35   17   19 ar  
    36   19   20 1   
    37   19   21 ar  
    38   21   39 1   
    39   24   40 1   
    40   25   26 1   
    41   25   27 ar  
    42   27   41 1   
    43   32   43 1   
    44   33   43 1   
    45   34   43 1   
@<TRIPOS>SUBSTRUCTURE
     1 N7O         1 TEMP              0 ****  ****    0 ROOT
