@<TRIPOS>MOLECULE
N7O
   43    42     1     0     0
SMALL
bcc


@<TRIPOS>ATOM
      1 C10         1.0630   -1.0290    0.1920 c2        1 N7O     -0.227000
      2 C13        -2.5470    1.7740    1.2040 c1        1 N7O     -0.208000
      3 C20         2.5750    2.0670   -1.1040 c2        1 N7O     -0.478000
      4 C22         3.5550    4.2390   -1.3760 cv        1 N7O     -0.501000
      5 C24         4.6900    5.4080   -4.7090 c1        1 N7O      0.253000
      6 C28         4.2520    3.2380   -2.1040 cv        1 N7O     -0.151000
      7 P02         3.9710   -3.6120   -2.0920 p3        1 N7O      2.582000
      8 O03         3.7250   -4.7110   -2.9980 o         1 N7O     -1.040500
      9 O04         3.1260   -2.4510   -1.8710 o         1 N7O     -1.040500
     10 C05         4.1280    0.7090   -2.5840 c3        1 N7O     -0.190000
     11 C06         5.5920    0.4570   -2.3850 c2        1 N7O      0.215000
     12 O07         6.0850   -0.6740   -2.4260 o         1 N7O     -0.344000
     13 N08         2.3050   -0.7720    2.4010 n2        1 N7O     -0.191000
     14 C09         1.6930   -0.8010    1.3330 c1        1 N7O      0.035000
     15 C11        -0.3710   -1.0950    0.0520 c2        1 N7O      0.030000
     16 C12        -2.3540    2.7210    0.3440 c2        1 N7O     -0.109000
     17 C14        -2.7460    0.7950    2.0670 c2        1 N7O      0.127000
     18 F15        -3.5140    0.9560    3.1750 f         1 N7O     -0.090000
     19 C16        -2.1580   -0.5570    1.8930 c2        1 N7O      0.137000
     20 F17        -2.6310   -1.5010    2.7490 f         1 N7O     -0.092000
     21 C18        -1.2490   -0.8260    0.9800 c1        1 N7O     -0.246000
     22 C19         3.6800    1.9610   -1.9520 c2        1 N7O     -0.039000
     23 S21         2.2880    3.6290   -0.5650 ss        1 N7O      0.715000
     24 C23         4.4790    5.3320   -1.8370 cy        1 N7O     -0.062000
     25 C25         5.3110    4.3960   -4.1060 c2        1 N7O     -0.383000
     26 CL26        6.2000    3.2630   -5.0140 cl        1 N7O      0.025000
     27 C27         5.2780    4.2050   -2.6390 cy        1 N7O      0.017000
     28 H10         1.6670   -1.2340   -0.7180 ha        1 N7O      0.213000
     29 H13        -1.5130    3.4270    0.4240 ha        1 N7O      0.134500
     30 H20         1.9440    1.2250   -0.8130 h4        1 N7O      0.186000
     31 H24         4.0030    6.1000   -2.4850 hc        1 N7O      0.108000
     32 H01         6.0180   -2.8220   -1.4220 hc        1 N7O      0.165333
     33 H01A        5.9260   -4.6120   -1.3810 hc        1 N7O      0.165333
     34 H01B        5.1430   -3.6300   -0.1040 hc        1 N7O      0.165333
     35 H05         3.9430    0.7650   -3.6950 hc        1 N7O      0.146000
     36 HN08        3.5270   -0.1640   -2.1940 hc        1 N7O      0.146000
     37 H09         2.6090    0.0920    2.7960 hn        1 N7O      0.198000
     38 H12        -3.0210    2.8760   -0.5190 ha        1 N7O      0.134500
     39 H18        -0.7240   -1.4060   -0.9540 ha        1 N7O      0.154000
     40 H23         5.0780    5.8090   -1.0350 hc        1 N7O      0.108000
     41 H27         6.3060    4.0350   -2.2370 hc        1 N7O      0.127000
     42 H082        6.2230    1.3580   -2.2100 h4        1 N7O      0.100000
     43 C01         5.3270   -3.6830   -1.2060 c3        1 N7O     -0.995000
@<TRIPOS>BOND
     1    1   14 1   
     2    1   15 1   
     3    1   28 1   
     4    2   16 1   
     5    2   17 1   
     6    3   22 1   
     7    3   23 1   
     8    3   30 1   
     9    4    6 1   
    10    4   23 1   
    11    4   24 1   
    12    5   25 1   
    13    6   22 1   
    14    6   27 1   
    15    7    8 1   
    16    7    9 1   
    17    7   43 1   
    18   10   11 1   
    19   10   22 1   
    20   10   35 1   
    21   10   36 1   
    22   11   12 1   
    23   11   42 1   
    24   13   14 1   
    25   13   37 1   
    26   15   21 1   
    27   15   39 1   
    28   16   29 1   
    29   16   38 1   
    30   17   18 1   
    31   17   19 1   
    32   19   20 1   
    33   19   21 1   
    34   24   27 1   
    35   24   31 1   
    36   24   40 1   
    37   25   26 1   
    38   25   27 1   
    39   27   41 1   
    40   32   43 1   
    41   33   43 1   
    42   34   43 1   
@<TRIPOS>SUBSTRUCTURE
     1 N7O         1 TEMP              0 ****  ****    0 ROOT
