@<TRIPOS>MOLECULE
N7O
   43    42     1     0     0
SMALL
bcc


@<TRIPOS>ATOM
      1 C10         1.3360   -0.3440    0.7540 c2        1 N7O     -0.277000
      2 C13        -3.1330    0.6320    1.4310 c1        1 N7O     -0.211000
      3 C20         1.6900    3.4840   -0.4770 c2        1 N7O     -0.447000
      4 C22         2.7430    5.1480   -1.9050 c2        1 N7O     -0.487000
      5 C24         7.3230    1.4780   -1.7760 c2        1 N7O     -0.138000
      6 C28         2.9070    3.8480   -2.4190 c2        1 N7O     -0.058000
      7 P02         5.5400   -2.0880   -4.3450 p3        1 N7O      2.772000
      8 O03         5.1310   -2.9790   -5.4010 o         1 N7O     -1.054000
      9 O04         6.6080   -1.0510   -4.8130 oh        1 N7O     -0.869000
     10 C05         2.2770    1.4340   -1.8670 c3        1 N7O     -0.122000
     11 C06         3.3840    0.6820   -1.1670 c2        1 N7O      0.192000
     12 O07         4.4620    1.1650   -0.8090 o         1 N7O     -0.285000
     13 N08         3.1340   -0.7670   -0.8900 n4        1 N7O     -0.005000
     14 C09         2.0710   -1.1670   -0.0070 c1        1 N7O     -0.297000
     15 C11         0.3110   -0.8930    1.6180 c2        1 N7O      0.057000
     16 C12        -3.6090    0.2390    0.2950 c2        1 N7O     -0.109000
     17 C14        -2.6320    1.0130    2.5910 c2        1 N7O      0.128000
     18 F15        -3.2980    1.8600    3.4200 f         1 N7O     -0.095000
     19 C16        -1.3110    0.5500    3.0850 c2        1 N7O      0.119000
     20 F17        -1.0140    0.9220    4.3590 f         1 N7O     -0.100000
     21 C18        -0.4890   -0.1670    2.3490 c1        1 N7O     -0.254000
     22 C19         2.3010    2.8810   -1.5930 c2        1 N7O     -0.161000
     23 S21         1.8670    5.0930   -0.4650 ss        1 N7O      0.813000
     24 C23         3.1420    6.3990   -2.3290 c1        1 N7O     -0.107000
     25 C25         8.5940    1.3540   -2.2660 c2        1 N7O     -0.157000
     26 CL26       10.1490    1.7800   -2.1740 cl        1 N7O      0.165000
     27 C27         7.5400    0.6070   -2.8800 c1        1 N7O     -0.033000
     28 H10         1.4590    0.7540    0.7900 ha        1 N7O      0.086000
     29 H13        -3.4180    0.7820   -0.6440 ha        1 N7O      0.133000
     30 H20         1.1570    2.9070    0.2860 h4        1 N7O      0.190000
     31 H24         6.6550    1.9210   -1.0540 ha        1 N7O      0.230000
     32 H01         2.4000    1.2470   -2.9710 hc        1 N7O      0.133500
     33 H01A        3.9950   -1.1870   -0.5090 hn        1 N7O      0.253000
     34 H01B        4.4480   -2.6650   -2.4410 ha        1 N7O      0.161500
     35 H05         5.5110   -1.2220   -2.2420 ha        1 N7O      0.161500
     36 HN08        1.2800    1.0100   -1.5540 hc        1 N7O      0.133500
     37 H09         2.9440   -1.2310   -1.7890 hn        1 N7O      0.253000
     38 H12        -4.2330   -0.6640    0.2000 ha        1 N7O      0.133000
     39 H18         0.2250   -1.9990    1.6340 ha        1 N7O      0.155000
     40 H23         3.7050    6.5240   -3.2600 ha        1 N7O      0.075000
     41 H27         3.4380    3.6210   -3.3470 ha        1 N7O      0.156000
     42 H15         7.0160   -0.4150   -4.1570 ho        1 N7O      0.344000
     43 C01         5.1090   -1.9560   -2.9420 c2        1 N7O     -1.578000
@<TRIPOS>BOND
     1    1   14 1   
     2    1   15 1   
     3    1   28 1   
     4    2   16 1   
     5    2   17 1   
     6    3   22 1   
     7    3   23 1   
     8    3   30 1   
     9    4    6 1   
    10    4   23 1   
    11    4   24 1   
    12    5   25 1   
    13    5   27 1   
    14    5   31 1   
    15    6   22 1   
    16    6   41 1   
    17    7    8 1   
    18    7    9 1   
    19    7   43 1   
    20    9   42 1   
    21   10   11 1   
    22   10   22 1   
    23   10   32 1   
    24   10   36 1   
    25   11   12 1   
    26   11   13 1   
    27   13   14 1   
    28   13   33 1   
    29   13   37 1   
    30   15   21 1   
    31   15   39 1   
    32   16   29 1   
    33   16   38 1   
    34   17   18 1   
    35   17   19 1   
    36   19   20 1   
    37   19   21 1   
    38   24   40 1   
    39   25   26 1   
    40   25   27 1   
    41   34   43 1   
    42   35   43 1   
@<TRIPOS>SUBSTRUCTURE
     1 N7O         1 TEMP              0 ****  ****    0 ROOT
