@<TRIPOS>MOLECULE
N7O
   43    42     1     0     0
SMALL
bcc


@<TRIPOS>ATOM
      1 C10         0.9390   -1.0340    3.2340 c2        1 N7O     -0.239000
      2 C13        -2.5030   -1.7760    0.0800 c1        1 N7O     -0.203000
      3 C20         3.8840    2.7780   -3.5670 c2        1 N7O     -0.455000
      4 C22         5.0730    4.6570   -2.6670 cv        1 N7O     -0.516000
      5 C24         8.7910    4.6180   -2.3140 c1        1 N7O      0.247000
      6 C28         5.5660    3.4210   -2.1720 cv        1 N7O     -0.141000
      7 P02         1.4690   -1.0850   -4.1130 p3        1 N7O      2.571000
      8 O03         1.3670   -2.1970   -5.0340 o         1 N7O     -1.035500
      9 O04         2.0490    0.2190   -4.3740 o         1 N7O     -1.035500
     10 C05         5.1480    0.8930   -2.4270 c3        1 N7O     -0.162000
     11 C06         4.4290    0.4250   -1.1970 c2        1 N7O      0.219000
     12 O07         3.7760   -0.6250   -1.1640 o         1 N7O     -0.367000
     13 N08         2.8410   -0.3670    1.6820 n2        1 N7O     -0.198000
     14 C09         1.9100   -0.7700    2.3700 c1        1 N7O      0.064000
     15 C11        -0.4340   -0.6360    3.0470 c2        1 N7O      0.038000
     16 C12        -2.9330   -2.9610    0.3740 c2        1 N7O     -0.104000
     17 C14        -2.0660   -0.5620   -0.1940 c2        1 N7O      0.115000
     18 F15        -2.1360   -0.0340   -1.4450 f         1 N7O     -0.102000
     19 C16        -1.4670    0.3240    0.8370 c2        1 N7O      0.136000
     20 F17        -1.4950    1.6500    0.5420 f         1 N7O     -0.092000
     21 C18        -0.9420   -0.1460    1.9480 c1        1 N7O     -0.248000
     22 C19         4.8770    2.3160   -2.6990 c2        1 N7O     -0.068000
     23 S21         3.8390    4.4460   -3.7020 ss        1 N7O      0.729000
     24 C23         6.0700    5.4610   -1.8810 cy        1 N7O     -0.060000
     25 C25         8.0240    3.7730   -1.6300 c2        1 N7O     -0.377000
     26 Cl26        8.6420    2.2840   -1.0800 cl        1 N7O      0.019000
     27 C27         6.6110    4.0720   -1.3040 cy        1 N7O      0.014000
     28 H10         1.1830   -1.5770    4.1610 ha        1 N7O      0.165000
     29 H13        -2.2850   -3.8510    0.3270 ha        1 N7O      0.139500
     30 H20         3.1940    2.1220   -4.1120 h4        1 N7O      0.225000
     31 H24         6.8110    6.0160   -2.4980 hc        1 N7O      0.105000
     32 H01         1.6270   -1.1480   -1.8220 hc        1 N7O      0.164667
     33 H01A        0.4820   -2.3650   -2.4710 hc        1 N7O      0.164667
     34 H01B        0.0130   -0.6420   -2.3740 hc        1 N7O      0.164667
     35 H05         6.2500    0.7370   -2.2590 hc        1 N7O      0.124500
     36 HN08        4.8410    0.2740   -3.3140 hc        1 N7O      0.124500
     37 H09         3.1920   -0.8630    0.8880 hn        1 N7O      0.235000
     38 H12        -3.9710   -3.1470    0.6900 ha        1 N7O      0.139500
     39 H18        -1.0890   -0.7820    3.9300 ha        1 N7O      0.149000
     40 H23         5.6330    6.1200   -1.1020 hc        1 N7O      0.105000
     41 H27         6.4240    3.9580   -0.2100 hc        1 N7O      0.127000
     42 H082        4.5210    1.0760   -0.2980 h4        1 N7O      0.112000
     43 C01         0.8650   -1.3260   -2.6280 c3        1 N7O     -0.994000
@<TRIPOS>BOND
     1    1   14 1   
     2    1   15 1   
     3    1   28 1   
     4    2   16 1   
     5    2   17 1   
     6    3   22 1   
     7    3   23 1   
     8    3   30 1   
     9    4    6 1   
    10    4   23 1   
    11    4   24 1   
    12    5   25 1   
    13    6   22 1   
    14    6   27 1   
    15    7    8 1   
    16    7    9 1   
    17    7   43 1   
    18   10   11 1   
    19   10   22 1   
    20   10   35 1   
    21   10   36 1   
    22   11   12 1   
    23   11   42 1   
    24   13   14 1   
    25   13   37 1   
    26   15   21 1   
    27   15   39 1   
    28   16   29 1   
    29   16   38 1   
    30   17   18 1   
    31   17   19 1   
    32   19   20 1   
    33   19   21 1   
    34   24   27 1   
    35   24   31 1   
    36   24   40 1   
    37   25   26 1   
    38   25   27 1   
    39   27   41 1   
    40   32   43 1   
    41   33   43 1   
    42   34   43 1   
@<TRIPOS>SUBSTRUCTURE
     1 N7O         1 TEMP              0 ****  ****    0 ROOT
