@<TRIPOS>MOLECULE
N7P
   21    21     1     0     0
SMALL
bcc


@<TRIPOS>ATOM
      1 O10         2.6330   -0.7110    0.2490 o         1 N7P     -0.834300
      2 C1          1.3970   -0.5450    0.4370 c         1 N7P      0.909600
      3 O11         0.7480   -0.9840    1.4250 o         1 N7P     -0.834300
      4 C2          0.6570    0.3170   -0.6450 c3        1 N7P     -0.040300
      5 N6         -0.8030    0.3840   -0.5180 n         1 N7P     -0.427800
      6 C7         -1.5780   -0.7690   -0.4910 c         1 N7P      0.680100
      7 O9         -1.3220   -1.7450   -1.2260 o         1 N7P     -0.619100
      8 C8         -2.8260   -0.7810    0.3650 c3        1 N7P     -0.178100
      9 C5         -1.1610    1.5400    0.2870 c3        1 N7P      0.083000
     10 C4          0.0310    2.5140    0.2350 c3        1 N7P     -0.080400
     11 C3          1.1430    1.7760   -0.5070 c3        1 N7P     -0.071400
     12 H2          0.9010   -0.1090   -1.6530 h1        1 N7P      0.067700
     13 H81        -3.4540    0.1220    0.1880 hc        1 N7P      0.050033
     14 H82        -3.4220   -1.6950    0.1290 hc        1 N7P      0.050033
     15 H83        -2.5190   -0.8130    1.4400 hc        1 N7P      0.050033
     16 H51        -2.0860    2.0120   -0.1440 h1        1 N7P      0.023700
     17 H52        -1.3800    1.2540    1.3540 h1        1 N7P      0.023700
     18 H41        -0.2560    3.4550   -0.2930 hc        1 N7P      0.028700
     19 H42         0.3500    2.7810    1.2720 hc        1 N7P      0.028700
     20 H31         2.1080    1.7990    0.0560 hc        1 N7P      0.044200
     21 H32         1.3120    2.2310   -1.5130 hc        1 N7P      0.044200
@<TRIPOS>BOND
     1    1    2 1   
     2    2    3 1   
     3    2    4 1   
     4    4    5 1   
     5    4   11 1   
     6    4   12 1   
     7    5    6 1   
     8    5    9 1   
     9    6    7 2   
    10    6    8 1   
    11    8   13 1   
    12    8   14 1   
    13    8   15 1   
    14    9   10 1   
    15    9   16 1   
    16    9   17 1   
    17   10   11 1   
    18   10   18 1   
    19   10   19 1   
    20   11   20 1   
    21   11   21 1   
@<TRIPOS>SUBSTRUCTURE
     1 N7P         1 TEMP              0 ****  ****    0 ROOT
