@<TRIPOS>MOLECULE
N7R
   68    72     1     0     0
SMALL
bcc


@<TRIPOS>ATOM
      1 F1          0.5510   -1.2020    0.1550 f         1 N7R     -0.109900
      2 C2          1.7700   -0.6330    0.0510 ca        1 N7R      0.110900
      3 C3          2.2800    0.1570    1.0950 ca        1 N7R     -0.128000
      4 C4          3.5410    0.7330    0.9700 ca        1 N7R     -0.109000
      5 C5          4.3000    0.5340   -0.1800 ca        1 N7R     -0.126000
      6 C6          3.8180   -0.2430   -1.2380 ca        1 N7R     -0.117300
      7 C7          4.6380   -0.4560   -2.4720 c3        1 N7R     -0.042400
      8 C9          5.8150   -1.3650   -2.1510 c3        1 N7R     -0.082400
      9 C10         6.6250   -1.7590   -3.3660 c3        1 N7R     -0.098400
     10 C11         7.4260   -0.5650   -3.9080 c3        1 N7R      0.054500
     11 N13         8.6930   -1.0050   -4.5830 n4        1 N7R     -0.665800
     12 C14         9.8180    0.0290   -4.4740 c         1 N7R      0.634100
     13 O15        10.0150    0.4360   -3.3270 o         1 N7R     -0.478100
     14 N16        10.4880    0.4820   -5.6170 n         1 N7R     -0.351800
     15 C17        10.0330    0.1430   -6.9550 c3        1 N7R      0.035500
     16 C18        10.4360   -1.2400   -7.4440 c3        1 N7R     -0.138400
     17 C19        11.8480   -1.7140   -7.0270 c3        1 N7R      0.134700
     18 C20        12.4380   -1.0410   -5.7670 c3        1 N7R     -0.138400
     19 C21        11.9470    0.3780   -5.5220 c3        1 N7R      0.035500
     20 N22        11.8460   -3.1570   -6.8930 n         1 N7R     -0.347000
     21 C23        11.1010   -3.8390   -5.8810 c         1 N7R      0.815500
     22 O24        10.1690   -3.3390   -5.2020 o         1 N7R     -0.755500
     23 N25        11.5550   -5.1670   -5.7950 n         1 N7R     -0.510400
     24 C27        12.6260   -5.3320   -6.7080 ca        1 N7R      0.469200
     25 N28        13.3600   -6.4390   -6.9550 nb        1 N7R     -0.632000
     26 C29        14.3240   -6.2850   -7.8870 ca        1 N7R      0.413200
     27 C30        14.5920   -5.0900   -8.5820 ca        1 N7R     -0.230300
     28 C31        13.8340   -3.9420   -8.3320 ca        1 N7R     -0.078000
     29 C32        12.8280   -4.0490   -7.3760 ca        1 N7R     -0.123700
     30 C33         6.5440    0.2200   -4.9080 c         1 N7R      0.693500
     31 O34         6.8460    0.2140   -6.1220 o         1 N7R     -0.652500
     32 N35         5.4640    0.9220   -4.4230 n         1 N7R     -0.427800
     33 C36         4.5710    1.5530   -5.3580 c3        1 N7R      0.044000
     34 C37         3.2760    0.7130   -5.6890 c3        1 N7R      0.603900
     35 F38         3.5100   -0.6060   -5.9750 f         1 N7R     -0.225967
     36 F39         2.3600    0.7020   -4.6710 f         1 N7R     -0.225967
     37 F40         2.6130    1.2140   -6.7760 f         1 N7R     -0.225967
     38 C41         5.0980    0.9080   -3.0210 c3        1 N7R      0.078000
     39 C42         2.5440   -0.8380   -1.1250 ca        1 N7R      0.104900
     40 F43         2.0420   -1.6040   -2.1200 f         1 N7R     -0.116900
     41 H3          1.6730    0.3100    2.0010 ha        1 N7R      0.169000
     42 H4          3.9390    1.3500    1.7910 ha        1 N7R      0.154000
     43 H5          5.2970    0.9950   -0.2570 ha        1 N7R      0.134000
     44 H7          3.9900   -0.9580   -3.2530 hc        1 N7R      0.095700
     45 H9          5.4150   -2.3070   -1.6840 hc        1 N7R      0.074200
     46 H9A         6.4750   -0.8730   -1.3870 hc        1 N7R      0.074200
     47 H10         5.9510   -2.1600   -4.1700 hc        1 N7R      0.082700
     48 H10A        7.3160   -2.5930   -3.0620 hc        1 N7R      0.082700
     49 H11         7.7310    0.1120   -3.0490 hx        1 N7R      0.139700
     50 HN13        8.4870   -1.2390   -5.5660 hn        1 N7R      0.485300
     51 H17        10.4920    0.9290   -7.6270 h1        1 N7R      0.101950
     52 H17A        8.9140    0.2710   -7.0350 h1        1 N7R      0.101950
     53 H18        10.3920   -1.2320   -8.5670 hc        1 N7R      0.078200
     54 H18A        9.6620   -1.9850   -7.1090 hc        1 N7R      0.078200
     55 H19        12.5460   -1.4750   -7.8880 h1        1 N7R      0.083700
     56 H20        13.5560   -1.0120   -5.8670 hc        1 N7R      0.078200
     57 H20A       12.2060   -1.6580   -4.8560 hc        1 N7R      0.078200
     58 H21        12.3680    1.0890   -6.2890 h1        1 N7R      0.101950
     59 H21A       12.2780    0.7280   -4.5020 h1        1 N7R      0.101950
     60 HN25       11.1730   -5.8670   -5.2100 hn        1 N7R      0.379500
     61 H29        14.9200   -7.1970   -8.0840 h4        1 N7R      0.048100
     62 H30        15.4010   -5.0640   -9.3280 ha        1 N7R      0.165000
     63 H31        14.0290   -3.0050   -8.8720 ha        1 N7R      0.152000
     64 H36         4.2170    2.5360   -4.9370 h1        1 N7R      0.115700
     65 H36A        5.0990    1.7310   -6.3390 h1        1 N7R      0.115700
     66 H41         5.9780    1.2780   -2.4200 h1        1 N7R      0.078200
     67 H41A        4.2500    1.6430   -2.8800 h1        1 N7R      0.078200
     68 H132        9.0450   -1.8650   -4.1270 hn        1 N7R      0.485300
@<TRIPOS>BOND
     1    1    2 1   
     2    2    3 ar  
     3    2   39 ar  
     4    3    4 ar  
     5    3   41 1   
     6    4    5 ar  
     7    4   42 1   
     8    5    6 ar  
     9    5   43 1   
    10    6    7 1   
    11    6   39 ar  
    12    7    8 1   
    13    7   38 1   
    14    7   44 1   
    15    8    9 1   
    16    8   45 1   
    17    8   46 1   
    18    9   10 1   
    19    9   47 1   
    20    9   48 1   
    21   10   11 1   
    22   10   30 1   
    23   10   49 1   
    24   11   12 1   
    25   11   50 1   
    26   11   68 1   
    27   12   13 2   
    28   12   14 1   
    29   14   15 1   
    30   14   19 1   
    31   15   16 1   
    32   15   51 1   
    33   15   52 1   
    34   16   17 1   
    35   16   53 1   
    36   16   54 1   
    37   17   18 1   
    38   17   20 1   
    39   17   55 1   
    40   18   19 1   
    41   18   56 1   
    42   18   57 1   
    43   19   58 1   
    44   19   59 1   
    45   20   21 1   
    46   20   29 1   
    47   21   22 2   
    48   21   23 1   
    49   23   24 1   
    50   23   60 1   
    51   24   25 ar  
    52   24   29 ar  
    53   25   26 ar  
    54   26   27 ar  
    55   26   61 1   
    56   27   28 ar  
    57   27   62 1   
    58   28   29 ar  
    59   28   63 1   
    60   30   31 2   
    61   30   32 1   
    62   32   33 1   
    63   32   38 1   
    64   33   34 1   
    65   33   64 1   
    66   33   65 1   
    67   34   35 1   
    68   34   36 1   
    69   34   37 1   
    70   38   66 1   
    71   38   67 1   
    72   39   40 1   
@<TRIPOS>SUBSTRUCTURE
     1 N7R         1 TEMP              0 ****  ****    0 ROOT
