@<TRIPOS>MOLECULE
N7R
   68    72     1     0     0
SMALL
bcc


@<TRIPOS>ATOM
      1 F1          0.4740   -1.2230    0.0300 f         1 N7R     -0.109900
      2 C2          1.7050   -0.6720   -0.0350 ca        1 N7R      0.110900
      3 C3          2.2100    0.0730    1.0420 ca        1 N7R     -0.128000
      4 C4          3.4830    0.6300    0.9570 ca        1 N7R     -0.109000
      5 C5          4.2580    0.4570   -0.1870 ca        1 N7R     -0.126000
      6 C6          3.7800   -0.2760   -1.2770 ca        1 N7R     -0.117300
      7 C7          4.6170   -0.4630   -2.5050 c3        1 N7R     -0.042400
      8 C9          5.7710   -1.4040   -2.1950 c3        1 N7R     -0.082400
      9 C10         6.5950   -1.7720   -3.4100 c3        1 N7R     -0.098400
     10 C11         7.4260   -0.5760   -3.8990 c3        1 N7R      0.054500
     11 N13         8.6960   -1.0170   -4.5680 ny        1 N7R     -0.665800
     12 C14         9.8380   -0.0080   -4.4050 c         1 N7R      0.634100
     13 O15        10.0230    0.3550   -3.2410 o         1 N7R     -0.478100
     14 N16        10.5340    0.4710   -5.5200 n         1 N7R     -0.351800
     15 C17        10.0960    0.1860   -6.8760 c3        1 N7R      0.035500
     16 C18        10.4820   -1.1870   -7.4060 c3        1 N7R     -0.138400
     17 C19        11.8780   -1.7020   -6.9830 c3        1 N7R      0.134700
     18 C20        12.4590   -1.0830   -5.6920 c3        1 N7R     -0.138400
     19 C21        11.9900    0.3360   -5.4050 c3        1 N7R      0.035500
     20 N22        11.8480   -3.1480   -6.8990 n         1 N7R     -0.347000
     21 C23        11.0730   -3.8500   -5.9230 c         1 N7R      0.815500
     22 O24        10.1390   -3.3560   -5.2420 o         1 N7R     -0.755500
     23 N25        11.5010   -5.1890   -5.8760 ns        1 N7R     -0.510400
     24 C27        12.5830   -5.3430   -6.7770 ca        1 N7R      0.469200
     25 N28        13.3000   -6.4540   -7.0510 nb        1 N7R     -0.632000
     26 C29        14.2820   -6.2870   -7.9620 ca        1 N7R      0.413200
     27 C30        14.5840   -5.0740   -8.6110 ca        1 N7R     -0.230300
     28 C31        13.8440   -3.9210   -8.3330 ca        1 N7R     -0.078000
     29 C32        12.8200   -4.0410   -7.3980 ca        1 N7R     -0.123700
     30 C33         6.5760    0.2580   -4.8860 c         1 N7R      0.693500
     31 O34         6.8970    0.2870   -6.0930 o         1 N7R     -0.652500
     32 N35         5.5000    0.9630   -4.3940 n         1 N7R     -0.427800
     33 C36         4.6340    1.6420   -5.3220 c3        1 N7R      0.044000
     34 C37         3.3300    0.8370   -5.7010 c3        1 N7R      0.603900
     35 F38         3.5440   -0.4750   -6.0280 f         1 N7R     -0.225967
     36 F39         2.3970    0.8100   -4.6990 f         1 N7R     -0.225967
     37 F40         2.6940    1.3860   -6.7810 f         1 N7R     -0.225967
     38 C41         5.1100    0.9100   -2.9990 c3        1 N7R      0.078000
     39 C42         2.4940   -0.8520   -1.2060 ca        1 N7R      0.104900
     40 F43         1.9960   -1.5750   -2.2330 f         1 N7R     -0.116900
     41 H3          1.5910    0.2070    1.9430 ha        1 N7R      0.169000
     42 H4          3.8780    1.2130    1.8040 ha        1 N7R      0.154000
     43 H5          5.2640    0.9010   -0.2320 ha        1 N7R      0.134000
     44 H7          3.9730   -0.9270   -3.3120 hc        1 N7R      0.095700
     45 H9          5.3460   -2.3540   -1.7670 hc        1 N7R      0.074200
     46 H9A         6.4270   -0.9510   -1.4050 hc        1 N7R      0.074200
     47 H10         5.9270   -2.1340   -4.2380 hc        1 N7R      0.082700
     48 H10A        7.2650   -2.6290   -3.1230 hc        1 N7R      0.082700
     49 H11         7.7280    0.0650   -3.0130 hx        1 N7R      0.139700
     50 HN13        9.0250   -1.8980   -4.1350 hn        1 N7R      0.485300
     51 H17        10.5800    0.9860   -7.5140 h1        1 N7R      0.101950
     52 H17A        8.9810    0.3380   -6.9700 h1        1 N7R      0.101950
     53 H18        10.4570   -1.1390   -8.5290 hc        1 N7R      0.078200
     54 H18A        9.6890   -1.9280   -7.1100 hc        1 N7R      0.078200
     55 H19        12.5950   -1.4460   -7.8240 h1        1 N7R      0.083700
     56 H20        12.2010   -1.7270   -4.8060 hc        1 N7R      0.078200
     57 H20A       13.5790   -1.0720   -5.7730 hc        1 N7R      0.078200
     58 H21        12.3100    0.6440   -4.3690 h1        1 N7R      0.101950
     59 H21A       12.4370    1.0640   -6.1410 h1        1 N7R      0.101950
     60 HN25       11.0950   -5.9010   -5.3230 hn        1 N7R      0.379500
     61 H29        14.8640   -7.2030   -8.1810 h4        1 N7R      0.048100
     62 H30        15.4050   -5.0380   -9.3420 ha        1 N7R      0.165000
     63 H31        14.0650   -2.9700   -8.8370 ha        1 N7R      0.152000
     64 H36         4.2920    2.6170   -4.8740 h1        1 N7R      0.115700
     65 H36A        5.1820    1.8430   -6.2880 h1        1 N7R      0.115700
     66 H41         4.2740    1.6550   -2.8480 h1        1 N7R      0.078200
     67 H41A        5.9870    1.2420   -2.3720 h1        1 N7R      0.078200
     68 H132        8.5020   -1.2140   -5.5610 hn        1 N7R      0.485300
@<TRIPOS>BOND
     1    1    2 1   
     2    2    3 ar  
     3    2   39 ar  
     4    3    4 ar  
     5    3   41 1   
     6    4    5 ar  
     7    4   42 1   
     8    5    6 ar  
     9    5   43 1   
    10    6    7 1   
    11    6   39 ar  
    12    7    8 1   
    13    7   38 1   
    14    7   44 1   
    15    8    9 1   
    16    8   45 1   
    17    8   46 1   
    18    9   10 1   
    19    9   47 1   
    20    9   48 1   
    21   10   11 1   
    22   10   30 1   
    23   10   49 1   
    24   11   12 1   
    25   11   50 1   
    26   11   68 1   
    27   12   13 2   
    28   12   14 1   
    29   14   15 1   
    30   14   19 1   
    31   15   16 1   
    32   15   51 1   
    33   15   52 1   
    34   16   17 1   
    35   16   53 1   
    36   16   54 1   
    37   17   18 1   
    38   17   20 1   
    39   17   55 1   
    40   18   19 1   
    41   18   56 1   
    42   18   57 1   
    43   19   58 1   
    44   19   59 1   
    45   20   21 1   
    46   20   29 1   
    47   21   22 2   
    48   21   23 1   
    49   23   24 1   
    50   23   60 1   
    51   24   25 ar  
    52   24   29 ar  
    53   25   26 ar  
    54   26   27 ar  
    55   26   61 1   
    56   27   28 ar  
    57   27   62 1   
    58   28   29 ar  
    59   28   63 1   
    60   30   31 2   
    61   30   32 1   
    62   32   33 1   
    63   32   38 1   
    64   33   34 1   
    65   33   64 1   
    66   33   65 1   
    67   34   35 1   
    68   34   36 1   
    69   34   37 1   
    70   38   66 1   
    71   38   67 1   
    72   39   40 1   
@<TRIPOS>SUBSTRUCTURE
     1 N7R         1 TEMP              0 ****  ****    0 ROOT
