@<TRIPOS>MOLECULE
N7R
   68    72     1     0     0
SMALL
bcc


@<TRIPOS>ATOM
      1 F1          0.5170   -1.2020    0.0970 f         1 N7R     -0.109900
      2 C2          1.7440   -0.6440    0.0130 ca        1 N7R      0.110900
      3 C3          2.2540    0.1200    1.0740 ca        1 N7R     -0.128000
      4 C4          3.5230    0.6840    0.9700 ca        1 N7R     -0.109000
      5 C5          4.2890    0.4980   -0.1780 ca        1 N7R     -0.126000
      6 C6          3.8050   -0.2540   -1.2530 ca        1 N7R     -0.117300
      7 C7          4.6330   -0.4550   -2.4860 c3        1 N7R     -0.042400
      8 C9          5.7970   -1.3830   -2.1720 c3        1 N7R     -0.082400
      9 C10         6.6120   -1.7640   -3.3880 c3        1 N7R     -0.098400
     10 C11         7.4300   -0.5710   -3.9020 c3        1 N7R      0.054500
     11 N13         8.6970   -1.0130   -4.5760 n4        1 N7R     -0.665800
     12 C14         9.8340    0.0060   -4.4390 c         1 N7R      0.634100
     13 O15        10.0270    0.3880   -3.2830 o         1 N7R     -0.478100
     14 N16        10.5170    0.4720   -5.5680 n         1 N7R     -0.351800
     15 C17        10.0690    0.1640   -6.9150 c3        1 N7R      0.035500
     16 C18        10.4590   -1.2140   -7.4280 c3        1 N7R     -0.138400
     17 C19        11.8620   -1.7130   -7.0100 c3        1 N7R      0.134700
     18 C20        12.4510   -1.0710   -5.7330 c3        1 N7R     -0.138400
     19 C21        11.9740    0.3490   -5.4640 c3        1 N7R      0.035500
     20 N22        11.8420   -3.1580   -6.9040 n         1 N7R     -0.347000
     21 C23        11.0810   -3.8500   -5.9110 c         1 N7R      0.815500
     22 O24        10.1500   -3.3520   -5.2280 o         1 N7R     -0.755500
     23 N25        11.5180   -5.1850   -5.8470 n         1 N7R     -0.510400
     24 C27        12.5940   -5.3460   -6.7550 ca        1 N7R      0.469200
     25 N28        13.3160   -6.4560   -7.0180 nb        1 N7R     -0.632000
     26 C29        14.2890   -6.2960   -7.9410 ca        1 N7R      0.413200
     27 C30        14.5760   -5.0920   -8.6110 ca        1 N7R     -0.230300
     28 C31        13.8310   -3.9390   -8.3430 ca        1 N7R     -0.078000
     29 C32        12.8170   -4.0520   -7.3970 ca        1 N7R     -0.123700
     30 C33         6.5660    0.2430   -4.8940 c         1 N7R      0.693500
     31 O34         6.8760    0.2560   -6.1060 o         1 N7R     -0.652500
     32 N35         5.4890    0.9480   -4.4040 n         1 N7R     -0.427800
     33 C36         4.6110    1.6070   -5.3350 c3        1 N7R      0.044000
     34 C37         3.3090    0.7880   -5.6900 c3        1 N7R      0.603900
     35 F38         3.5290   -0.5280   -5.9990 f         1 N7R     -0.225967
     36 F39         2.3850    0.7690   -4.6790 f         1 N7R     -0.225967
     37 F40         2.6600    1.3160   -6.7720 f         1 N7R     -0.225967
     38 C41         5.1120    0.9140   -3.0050 c3        1 N7R      0.078000
     39 C42         2.5240   -0.8370   -1.1610 ca        1 N7R      0.104900
     40 F43         2.0220   -1.5790   -2.1740 f         1 N7R     -0.116900
     41 H3          1.6420    0.2640    1.9780 ha        1 N7R      0.169000
     42 H4          3.9210    1.2820    1.8040 ha        1 N7R      0.154000
     43 H5          5.2910    0.9480   -0.2400 ha        1 N7R      0.134000
     44 H7          3.9850   -0.9350   -3.2800 hc        1 N7R      0.095700
     45 H9          6.4560   -0.9130   -1.3940 hc        1 N7R      0.074200
     46 H9A         5.3820   -2.3290   -1.7250 hc        1 N7R      0.074200
     47 H10         7.2910   -2.6120   -3.0940 hc        1 N7R      0.082700
     48 H10A        5.9390   -2.1430   -4.2040 hc        1 N7R      0.082700
     49 H11         7.7360    0.0870   -3.0290 hx        1 N7R      0.139700
     50 HN13        9.0360   -1.8850   -4.1330 hn        1 N7R      0.485300
     51 H17        10.5410    0.9580   -7.5690 h1        1 N7R      0.101950
     52 H17A        8.9510    0.3070   -7.0010 h1        1 N7R      0.101950
     53 H18         9.6740   -1.9560   -7.1140 hc        1 N7R      0.078200
     54 H18A       10.4240   -1.1840   -8.5510 hc        1 N7R      0.078200
     55 H19        12.5690   -1.4660   -7.8610 h1        1 N7R      0.083700
     56 H20        12.2040   -1.7030   -4.8350 hc        1 N7R      0.078200
     57 H20A       13.5690   -1.0540   -5.8250 hc        1 N7R      0.078200
     58 H21        12.4090    1.0690   -6.2150 h1        1 N7R      0.101950
     59 H21A       12.3020    0.6750   -4.4360 h1        1 N7R      0.101950
     60 HN25       11.1230   -5.8910   -5.2790 hn        1 N7R      0.379500
     61 H29        14.8750   -7.2120   -8.1510 h4        1 N7R      0.048100
     62 H30        15.3910   -5.0610   -9.3490 ha        1 N7R      0.165000
     63 H31        14.0410   -2.9940   -8.8640 ha        1 N7R      0.152000
     64 H36         5.1490    1.7960   -6.3080 h1        1 N7R      0.115700
     65 H36A        4.2660    2.5860   -4.8980 h1        1 N7R      0.115700
     66 H41         5.9920    1.2620   -2.3910 h1        1 N7R      0.078200
     67 H41A        4.2730    1.6550   -2.8580 h1        1 N7R      0.078200
     68 H132        8.4960   -1.2260   -5.5650 hn        1 N7R      0.485300
@<TRIPOS>BOND
     1    1    2 1   
     2    2    3 ar  
     3    2   39 ar  
     4    3    4 ar  
     5    3   41 1   
     6    4    5 ar  
     7    4   42 1   
     8    5    6 ar  
     9    5   43 1   
    10    6    7 1   
    11    6   39 ar  
    12    7    8 1   
    13    7   38 1   
    14    7   44 1   
    15    8    9 1   
    16    8   45 1   
    17    8   46 1   
    18    9   10 1   
    19    9   47 1   
    20    9   48 1   
    21   10   11 1   
    22   10   30 1   
    23   10   49 1   
    24   11   12 1   
    25   11   50 1   
    26   11   68 1   
    27   12   13 2   
    28   12   14 1   
    29   14   15 1   
    30   14   19 1   
    31   15   16 1   
    32   15   51 1   
    33   15   52 1   
    34   16   17 1   
    35   16   53 1   
    36   16   54 1   
    37   17   18 1   
    38   17   20 1   
    39   17   55 1   
    40   18   19 1   
    41   18   56 1   
    42   18   57 1   
    43   19   58 1   
    44   19   59 1   
    45   20   21 1   
    46   20   29 1   
    47   21   22 2   
    48   21   23 1   
    49   23   24 1   
    50   23   60 1   
    51   24   25 ar  
    52   24   29 ar  
    53   25   26 ar  
    54   26   27 ar  
    55   26   61 1   
    56   27   28 ar  
    57   27   62 1   
    58   28   29 ar  
    59   28   63 1   
    60   30   31 2   
    61   30   32 1   
    62   32   33 1   
    63   32   38 1   
    64   33   34 1   
    65   33   64 1   
    66   33   65 1   
    67   34   35 1   
    68   34   36 1   
    69   34   37 1   
    70   38   66 1   
    71   38   67 1   
    72   39   40 1   
@<TRIPOS>SUBSTRUCTURE
     1 N7R         1 TEMP              0 ****  ****    0 ROOT
