@<TRIPOS>MOLECULE
N7R
   67    71     1     0     0
SMALL
bcc


@<TRIPOS>ATOM
      1 F1         -7.8950   -3.3320   -1.2410 f         1 N7R     -0.123900
      2 C2         -6.8770   -3.0570   -0.3950 ca        1 N7R      0.096900
      3 C3         -6.7610   -3.7440    0.8230 ca        1 N7R     -0.141000
      4 C4         -5.7050   -3.4500    1.6800 ca        1 N7R     -0.117000
      5 C5         -4.7650   -2.4800    1.3400 ca        1 N7R     -0.122000
      6 C6         -4.8560   -1.7750    0.1360 ca        1 N7R     -0.093300
      7 C7         -3.8350   -0.7380   -0.2210 c3        1 N7R     -0.048400
      8 C9         -2.5020   -1.4150   -0.5060 c3        1 N7R     -0.076400
      9 C10        -1.4270   -0.4670   -0.9870 c3        1 N7R     -0.082400
     10 C11        -0.9480    0.4630    0.1450 c3        1 N7R      0.027700
     11 N13         0.4500    0.8160   -0.0090 n         1 N7R     -0.516900
     12 C14         1.2650    0.8060    1.1480 c         1 N7R      0.738100
     13 O15         0.8580    0.2340    2.1890 o         1 N7R     -0.635100
     14 N16         2.5300    1.4560    1.1490 n         1 N7R     -0.419800
     15 C17         3.2390    1.7360   -0.0820 c3        1 N7R      0.072000
     16 C18         4.2140    0.6410   -0.5200 c3        1 N7R     -0.131400
     17 C19         5.2100    0.3480    0.6150 c3        1 N7R      0.122700
     18 C20         4.4230   -0.0240    1.8830 c3        1 N7R     -0.131400
     19 C21         3.4320    1.0850    2.2310 c3        1 N7R      0.072000
     20 N22         6.2010   -0.6550    0.2810 n         1 N7R     -0.329000
     21 C23         5.8460   -1.9750   -0.1730 c         1 N7R      0.790500
     22 O24         4.7880   -2.5820    0.0610 o         1 N7R     -0.617500
     23 N25         6.9470   -2.5190   -0.8910 n         1 N7R     -0.541400
     24 C27         7.9470   -1.5330   -0.9940 ca        1 N7R      0.480200
     25 N28         9.1460   -1.6040   -1.6080 nb        1 N7R     -0.658000
     26 C29         9.8990   -0.4830   -1.5240 ca        1 N7R      0.397200
     27 C30         9.5200    0.6950   -0.8640 ca        1 N7R     -0.249300
     28 C31         8.2750    0.7760   -0.2250 ca        1 N7R     -0.088000
     29 C32         7.4600   -0.3460   -0.2820 ca        1 N7R     -0.120700
     30 C33        -1.8610    1.7110    0.1390 c         1 N7R      0.676500
     31 O34        -1.4380    2.8250   -0.2290 o         1 N7R     -0.638500
     32 N35        -3.1810    1.5690    0.5640 n         1 N7R     -0.463800
     33 C36        -4.0590    2.6960    0.5160 c3        1 N7R      0.063000
     34 C37        -5.0750    2.6960   -0.6920 c3        1 N7R      0.591900
     35 F38        -4.5390    2.3940   -1.9140 f         1 N7R     -0.237300
     36 F39        -6.1160    1.8170   -0.5340 f         1 N7R     -0.237300
     37 F40        -5.6730    3.9190   -0.8560 f         1 N7R     -0.237300
     38 C41        -3.7300    0.2840    0.9300 c3        1 N7R      0.093000
     39 C42        -5.9190   -2.0650   -0.7460 ca        1 N7R      0.102900
     40 F43        -6.0460   -1.4180   -1.9260 f         1 N7R     -0.119900
     41 H3         -7.5080   -4.5080    1.0840 ha        1 N7R      0.156000
     42 H4         -5.6130   -3.9910    2.6350 ha        1 N7R      0.145000
     43 H5         -3.9320   -2.2640    2.0270 ha        1 N7R      0.143000
     44 H7         -4.1760   -0.1970   -1.1530 hc        1 N7R      0.087700
     45 H9         -2.1510   -1.9540    0.4140 hc        1 N7R      0.056700
     46 H9A        -2.6660   -2.1920   -1.3020 hc        1 N7R      0.056700
     47 H10        -0.5640   -1.0810   -1.3610 hc        1 N7R      0.067200
     48 H10A       -1.8010    0.1430   -1.8500 hc        1 N7R      0.067200
     49 H11        -1.0670   -0.0710    1.1380 h1        1 N7R      0.117700
     50 HN13        0.5990    1.5570   -0.6620 hn        1 N7R      0.309500
     51 H17         2.5390    1.9530   -0.9320 h1        1 N7R      0.066700
     52 H17A        3.8270    2.6830    0.1070 h1        1 N7R      0.066700
     53 H18         3.6580   -0.2970   -0.7830 hc        1 N7R      0.073200
     54 H18A        4.7550    0.9930   -1.4340 hc        1 N7R      0.073200
     55 H19         5.7890    1.2990    0.8280 h1        1 N7R      0.060700
     56 H20         3.8840   -0.9960    1.7220 hc        1 N7R      0.073200
     57 H20A        5.1230   -0.1580    2.7480 hc        1 N7R      0.073200
     58 H21         3.9990    2.0220    2.5000 h1        1 N7R      0.066700
     59 H21A        2.8310    0.7660    3.1300 h1        1 N7R      0.066700
     60 HN25        6.9540   -3.4060   -1.3230 hn        1 N7R      0.366500
     61 H29        10.8800   -0.5540   -2.0300 h4        1 N7R      0.029100
     62 H30        10.2010    1.5560   -0.8470 ha        1 N7R      0.149000
     63 H31         7.9680    1.6920    0.2990 ha        1 N7R      0.147000
     64 H36        -4.6900    2.7340    1.4470 h1        1 N7R      0.101700
     65 H36A       -3.4590    3.6480    0.4240 h1        1 N7R      0.101700
     66 H41        -4.7680    0.4530    1.3400 h1        1 N7R      0.064700
     67 H41A       -3.0990   -0.1550    1.7550 h1        1 N7R      0.064700
@<TRIPOS>BOND
     1    1    2 1   
     2    2    3 ar  
     3    2   39 ar  
     4    3    4 ar  
     5    3   41 1   
     6    4    5 ar  
     7    4   42 1   
     8    5    6 ar  
     9    5   43 1   
    10    6    7 1   
    11    6   39 ar  
    12    7    8 1   
    13    7   38 1   
    14    7   44 1   
    15    8    9 1   
    16    8   45 1   
    17    8   46 1   
    18    9   10 1   
    19    9   47 1   
    20    9   48 1   
    21   10   11 1   
    22   10   30 1   
    23   10   49 1   
    24   11   12 1   
    25   11   50 1   
    26   12   13 2   
    27   12   14 1   
    28   14   15 1   
    29   14   19 1   
    30   15   16 1   
    31   15   51 1   
    32   15   52 1   
    33   16   17 1   
    34   16   53 1   
    35   16   54 1   
    36   17   18 1   
    37   17   20 1   
    38   17   55 1   
    39   18   19 1   
    40   18   56 1   
    41   18   57 1   
    42   19   58 1   
    43   19   59 1   
    44   20   21 1   
    45   20   29 1   
    46   21   22 2   
    47   21   23 1   
    48   23   24 1   
    49   23   60 1   
    50   24   25 ar  
    51   24   29 ar  
    52   25   26 ar  
    53   26   27 ar  
    54   26   61 1   
    55   27   28 ar  
    56   27   62 1   
    57   28   29 ar  
    58   28   63 1   
    59   30   31 2   
    60   30   32 1   
    61   32   33 1   
    62   32   38 1   
    63   33   34 1   
    64   33   64 1   
    65   33   65 1   
    66   34   35 1   
    67   34   36 1   
    68   34   37 1   
    69   38   66 1   
    70   38   67 1   
    71   39   40 1   
@<TRIPOS>SUBSTRUCTURE
     1 N7R         1 TEMP              0 ****  ****    0 ROOT
