@<TRIPOS>MOLECULE
N7R
   67    67     1     0     0
SMALL
bcc


@<TRIPOS>ATOM
      1 F1         -5.0390   -0.6980    7.7590 f         1 N7R     -0.089000
      2 C2         -4.5900    0.3380    7.0250 c2        1 N7R      0.063000
      3 C3         -4.6150    1.6220    7.5540 c2        1 N7R     -0.141000
      4 C4         -4.0290    2.6750    6.8550 c1        1 N7R     -0.115000
      5 C5         -3.4170    2.4400    5.6250 c1        1 N7R     -0.120000
      6 C6         -3.3920    1.1540    5.0940 c1        1 N7R     -0.083000
      7 C7         -2.6730    0.8900    3.8030 c2        1 N7R     -0.105000
      8 C9         -1.4620    2.0940    3.5720 c3        1 N7R     -0.159000
      9 C10        -0.3790    1.6920    2.1470 c3        1 N7R     -0.160000
     10 C11        -1.2230    1.0090    0.9420 c3        1 N7R     -0.036000
     11 N13        -0.3030    0.0960    0.1350 n         1 N7R     -0.324000
     12 C14        -0.3240    0.1410   -1.3090 c2        1 N7R      0.365000
     13 O15        -1.0740    0.9050   -1.8810 o         1 N7R     -0.402000
     14 N16         0.5300   -0.7680   -2.0830 n         1 N7R     -0.277000
     15 C17         0.5320   -0.8090   -3.5420 c3        1 N7R     -0.043000
     16 C18         1.9350   -0.6850   -4.1210 c3        1 N7R     -0.210000
     17 C19         2.8860   -1.6570   -3.5080 c3        1 N7R      0.048000
     18 C20         2.8650   -1.5970   -2.0250 c3        1 N7R     -0.210000
     19 C21         1.4530   -1.7120   -1.4630 c3        1 N7R     -0.043000
     20 N22         4.2580   -1.3540   -3.9810 n         1 N7R     -0.235000
     21 C23         4.9600   -0.1440   -3.7800 c2        1 N7R      0.382000
     22 O24         4.5010    0.8760   -3.3080 o         1 N7R     -0.344000
     23 N25         6.2560   -0.2950   -4.3290 n         1 N7R     -0.308000
     24 C27         6.3550   -1.6250   -4.8800 c2        1 N7R      0.072000
     25 N28         7.3630   -2.2630   -5.5660 n2        1 N7R     -0.132000
     26 C29         7.1730   -3.5310   -6.0400 c1        1 N7R     -0.068000
     27 C30         5.9530   -4.1830   -5.8300 c1        1 N7R     -0.136500
     28 C31         4.9480   -3.5500   -5.1470 c1        1 N7R     -0.136500
     29 C32         5.1400   -2.2710   -4.6680 c1        1 N7R     -0.047000
     30 C33        -2.1810    0.3930    1.4970 c2        1 N7R      0.286000
     31 O34        -1.9780   -0.6140    2.1540 o         1 N7R     -0.264000
     32 N35        -3.0820    1.2270    1.8220 n         1 N7R     -0.324000
     33 C36        -3.5510    2.3580    0.9490 c3        1 N7R     -0.077000
     34 C37        -4.7780    1.9080    0.1410 c3        1 N7R      0.403000
     35 F38        -5.1020    2.8630   -0.7570 f         1 N7R     -0.165667
     36 F39        -5.8080    1.7080    0.9690 f         1 N7R     -0.165667
     37 F40        -4.4960    0.7710   -0.4990 f         1 N7R     -0.165667
     38 C41        -3.5840    0.9060    2.7600 c3        1 N7R     -0.037000
     39 C42        -3.9770    0.1020    5.7920 c2        1 N7R      0.063000
     40 F43        -3.9370   -1.1400    5.2910 f         1 N7R     -0.088000
     41 H3         -5.0440    1.7870    8.4190 ha        1 N7R      0.157000
     42 H4         -4.0470    3.5820    7.2290 ha        1 N7R      0.146000
     43 H5         -3.0060    3.1790    5.1340 ha        1 N7R      0.142000
     44 H7         -2.2460    0.0040    3.8450 ha        1 N7R      0.122000
     45 H9         -1.8950    2.9540    3.4120 hc        1 N7R      0.094000
     46 H9A        -0.9130    2.1570    4.3850 hc        1 N7R      0.094000
     47 H10         0.0400    2.5170    1.8200 hc        1 N7R      0.105000
     48 H10A        0.3200    1.0710    2.4420 hc        1 N7R      0.105000
     49 H11        -1.5530    1.6150    0.2430 h1        1 N7R      0.147000
     50 HN13        0.2040   -0.5240    0.5600 hn        1 N7R      0.219000
     51 H17        -0.0150   -0.0770   -3.8790 h1        1 N7R      0.106750
     52 H17A        0.1410   -1.6590   -3.8360 h1        1 N7R      0.106750
     53 H18         1.8960   -0.8470   -5.0880 hc        1 N7R      0.113250
     54 H18A        2.2630    0.2180   -3.9650 hc        1 N7R      0.113250
     55 H19         2.6430   -2.5630   -3.7930 h1        1 N7R      0.101000
     56 H20         3.2560   -0.7410   -1.7340 hc        1 N7R      0.113250
     57 H20A        3.4050   -2.3280   -1.6720 hc        1 N7R      0.113250
     58 H21         1.4800   -1.5410   -0.5010 h1        1 N7R      0.106750
     59 H21A        1.1250   -2.6230   -1.6150 h1        1 N7R      0.106750
     60 HN25        6.9160    0.3400   -4.3350 hn        1 N7R      0.281000
     61 H29         7.8930   -3.9840   -6.5290 ha        1 N7R      0.167000
     62 H30         5.8190   -5.0840   -6.1670 ha        1 N7R      0.148000
     63 H31         4.0970   -4.0040   -5.0000 ha        1 N7R      0.148000
     64 H36        -3.7940    3.1250    1.5110 h1        1 N7R      0.126500
     65 H36A       -2.8340    2.6180    0.3350 h1        1 N7R      0.126500
     66 H41        -3.9570    0.0050    2.6380 h1        1 N7R      0.111000
     67 H41A       -4.3090    1.5320    2.9710 h1        1 N7R      0.111000
@<TRIPOS>BOND
     1    1    2 1   
     2    2    3 1   
     3    2   39 1   
     4    3    4 1   
     5    3   41 1   
     6    4   42 1   
     7    5    6 1   
     8    5   43 1   
     9    6   39 1   
    10    7    8 1   
    11    7   38 1   
    12    7   44 1   
    13    8    9 1   
    14    8   45 1   
    15    8   46 1   
    16    9   10 1   
    17    9   47 1   
    18    9   48 1   
    19   10   11 1   
    20   10   30 1   
    21   10   49 1   
    22   11   12 1   
    23   11   50 1   
    24   12   13 1   
    25   12   14 1   
    26   14   15 1   
    27   14   19 1   
    28   15   16 1   
    29   15   51 1   
    30   15   52 1   
    31   16   17 1   
    32   16   53 1   
    33   16   54 1   
    34   17   18 1   
    35   17   20 1   
    36   17   55 1   
    37   18   19 1   
    38   18   56 1   
    39   18   57 1   
    40   19   58 1   
    41   19   59 1   
    42   20   21 1   
    43   20   29 1   
    44   21   22 1   
    45   21   23 1   
    46   23   24 1   
    47   23   60 1   
    48   24   25 1   
    49   24   29 1   
    50   25   26 1   
    51   26   61 1   
    52   27   28 1   
    53   27   62 1   
    54   28   63 1   
    55   30   31 1   
    56   30   32 1   
    57   32   33 1   
    58   32   38 1   
    59   33   34 1   
    60   33   64 1   
    61   33   65 1   
    62   34   35 1   
    63   34   36 1   
    64   34   37 1   
    65   38   66 1   
    66   38   67 1   
    67   39   40 1   
@<TRIPOS>SUBSTRUCTURE
     1 N7R         1 TEMP              0 ****  ****    0 ROOT
