@<TRIPOS>MOLECULE
N85
   45    41     1     0     0
SMALL
bcc


@<TRIPOS>ATOM
      1 N1          1.0920   -0.3130    0.5570 n         1 N85     -0.338000
      2 C2          0.3500    0.4690   -0.4100 c2        1 N85      0.381000
      3 O2          0.9230    1.0950   -1.2200 o         1 N85     -0.314000
      4 N3         -1.0500    0.4320   -0.4190 n         1 N85     -0.395000
      5 C4         -1.8000    1.3970   -1.2130 c2        1 N85      0.380000
      6 O4         -1.2100    2.1020   -2.0460 o         1 N85     -0.266000
      7 C5         -3.3930    1.3790   -1.1790 c2        1 N85     -0.120000
      8 C7         -4.1730    1.0240   -2.2550 c1        1 N85     -0.093000
      9 C8         -5.5010    1.2970   -1.9320 c1        1 N85     -0.103000
     10 C9         -6.7060    1.0700   -2.6300 c1        1 N85     -0.070000
     11 C1'         2.4900   -0.3220    0.5230 c3        1 N85      0.093000
     12 C10        -7.9130    1.3700   -2.0400 c1        1 N85     -0.127000
     13 C11        -7.9480    1.8950   -0.7580 c1        1 N85     -0.127000
     14 C12        -6.7640    2.1200   -0.0670 c1        1 N85     -0.146000
     15 C16        -5.5310    1.8140   -0.6690 c1        1 N85      0.009000
     16 C2'         3.0040   -0.0870    1.9160 c3        1 N85     -0.020000
     17 O2'         2.6730    1.2490    2.3110 oh        1 N85     -0.329000
     18 C3'         4.4790   -0.2660    2.0140 c3        1 N85     -0.003000
     19 O3'         4.8710   -0.2060    3.4280 oh        1 N85     -0.335000
     20 N30        -4.2220    1.8670   -0.1950 n1        1 N85     -0.198000
     21 C4'         4.9260   -1.5700    1.4450 c3        1 N85      0.007000
     22 O4'         6.3600   -1.5850    1.4000 oh        1 N85     -0.321000
     23 C5'         4.3970   -1.7990    0.0480 c3        1 N85      0.040000
     24 O5'         2.9480   -1.6190   -0.0420 os        1 N85     -0.303000
     25 C6'         4.7390   -3.2030   -0.3770 c3        1 N85     -0.015000
     26 O6'         4.6430   -3.3030   -1.7930 oh        1 N85     -0.321000
     27 HN1         0.6570   -0.7780    1.1880 hn        1 N85      0.208000
     28 HN3        -1.4630   -0.1400    0.0550 hn        1 N85      0.237000
     29 H7         -3.8270    0.6600   -3.1690 DU        1 N85      0.207000
     30 H9         -6.6840    0.7020   -3.5310 ha        1 N85      0.140000
     31 H1'         2.7910    0.3820   -0.0390 h2        1 N85      0.150000
     32 H10        -8.7210    1.2160   -2.5110 ha        1 N85      0.134500
     33 H11        -8.7980    2.1060   -0.3440 ha        1 N85      0.134500
     34 H12        -6.7880    2.4900    0.8380 ha        1 N85      0.137000
     35 H2'         2.5540   -0.7340    2.5420 h1        1 N85      0.099000
     36 HO2'        2.3250    1.2370    3.1430 ho        1 N85      0.223000
     37 H3'         4.9340    0.4820    1.5180 h1        1 N85      0.109000
     38 HO3'        4.7380    0.6190    3.7380 ho        1 N85      0.228000
     39 HN30       -3.9570    2.1690    0.6410 DU        1 N85      0.207000
     40 H4'         4.6220   -2.2790    2.0140 h1        1 N85      0.098000
     41 HO4'        6.6710   -1.8180    2.1750 ho        1 N85      0.225000
     42 H5'         4.8330   -1.1680   -0.5610 h1        1 N85      0.126000
     43 H6'         4.1050   -3.8410    0.0430 h1        1 N85      0.085500
     44 H6'A        5.6530   -3.4160   -0.0950 h1        1 N85      0.085500
     45 HO6'        4.6690   -4.1940   -2.0430 ho        1 N85      0.203000
@<TRIPOS>BOND
     1    1    2 1   
     2    1   11 1   
     3    1   27 1   
     4    2    3 1   
     5    2    4 1   
     6    4    5 1   
     7    4   28 1   
     8    5    6 1   
     9    5    7 1   
    10    7    8 1   
    11    7   20 1   
    12    8    9 1   
    13    9   10 1   
    14   10   30 1   
    15   11   16 1   
    16   11   24 1   
    17   11   31 1   
    18   12   13 1   
    19   12   32 1   
    20   13   33 1   
    21   14   15 1   
    22   14   34 1   
    23   16   17 1   
    24   16   18 1   
    25   16   35 1   
    26   17   36 1   
    27   18   19 1   
    28   18   21 1   
    29   18   37 1   
    30   19   38 1   
    31   21   22 1   
    32   21   23 1   
    33   21   40 1   
    34   22   41 1   
    35   23   24 1   
    36   23   25 1   
    37   23   42 1   
    38   25   26 1   
    39   25   43 1   
    40   25   44 1   
    41   26   45 1   
@<TRIPOS>SUBSTRUCTURE
     1 N85         1 TEMP              0 ****  ****    0 ROOT
