@<TRIPOS>MOLECULE
N85
   47    48     1     0     0
SMALL
bcc


@<TRIPOS>ATOM
      1 N1         85.1210  -52.8680   48.7310 ny        1 N85     -0.668800
      2 C2         86.1870  -53.8790   48.2800 c         1 N85      0.648100
      3 O2         86.2660  -54.8630   49.0240 o         1 N85     -0.494100
      4 N3         86.9250  -53.6000   47.1790 nt        1 N85     -0.607000
      5 C4       -153.7560   92.8570  -86.1080 c1        1 N85      0.720600
      6 O4       -154.7070   93.1590  -86.7120 o         1 N85     -0.178500
      7 C5       -152.6500   92.4550  -85.4320 cc        1 N85     -0.284200
      8 C7       -151.9910   91.1750  -85.5790 cc        1 N85      0.061000
      9 C8       -150.8980   91.1780  -84.6990 ca        1 N85     -0.134000
     10 C9       -149.8910   90.2280  -84.3920 ca        1 N85     -0.036000
     11 C1'        84.1290  -52.5240   47.6590 c3        1 N85      0.329300
     12 C10      -148.9410   90.5510  -83.4580 ca        1 N85     -0.144000
     13 C11      -148.9460   91.8110  -82.7950 ca        1 N85      0.002000
     14 C12      -149.8980   92.7740  -83.0510 ca        1 N85     -0.186000
     15 C16      -150.8930   92.4710  -84.0100 ca        1 N85      0.135000
     16 C2'        82.9480  -51.6820   48.2120 c3        1 N85      0.113100
     17 O2'        82.3160  -52.4870   49.1830 oh        1 N85     -0.616800
     18 C3'        82.0290  -51.3490   47.0250 c3        1 N85      0.114100
     19 O3'        81.0200  -50.5140   47.5540 oh        1 N85     -0.591800
     20 N30      -151.9510   93.2260  -84.4610 na        1 N85     -0.187600
     21 C4'        82.8320  -50.6170   45.9280 c3        1 N85      0.081100
     22 O4'        81.9510  -50.5160   44.8250 oh        1 N85     -0.581800
     23 C5'        84.0640  -51.4470   45.5370 c3        1 N85      0.084100
     24 O5'        84.8450  -51.7430   46.7110 os        1 N85     -0.439600
     25 C6'        85.0450  -50.6920   44.6310 c3        1 N85      0.132400
     26 O6'        86.1290  -51.5360   44.3130 oh        1 N85     -0.594800
     27 HN1        85.5830  -52.0130   49.0570 hn        1 N85      0.482800
     28 HN3        87.6290  -54.2610   46.9260 hn        1 N85      0.377500
     29 H7       -152.3080   90.3780  -86.2560 ha        1 N85      0.199000
     30 H9       -149.8910   89.2540  -84.9080 ha        1 N85      0.171000
     31 H1'        83.7570  -53.4910   47.2050 hx        1 N85      0.120700
     32 H10      -148.1460   89.8290  -83.2010 ha        1 N85      0.175000
     33 H11      -148.1540   92.0140  -82.0510 ha        1 N85      0.173000
     34 H12      -149.8910   93.7440  -82.5320 ha        1 N85      0.173000
     35 H2'        83.3160  -50.7280   48.6850 h1        1 N85      0.086700
     36 HO2'       81.4370  -52.1100   49.3480 ho        1 N85      0.470000
     37 H3'        81.5730  -52.2870   46.6010 h1        1 N85      0.079700
     38 HO3'       80.4190  -50.3010   46.8240 ho        1 N85      0.449000
     39 HN30     -152.1960   94.1420  -84.1740 hn        1 N85      0.339700
     40 H4'        83.1450  -49.6030   46.2990 h1        1 N85      0.080700
     41 HO4'       82.2310  -49.7580   44.2950 ho        1 N85      0.429000
     42 H5'        83.7440  -52.4110   45.0530 h1        1 N85      0.078700
     43 H6'        84.4940  -50.3360   43.7220 h1        1 N85      0.078200
     44 H6'A       85.4950  -49.8220   45.1820 h1        1 N85      0.078200
     45 HO6'       85.9080  -52.0120   43.5020 ho        1 N85      0.419000
     46 H121       84.6000  -53.2950   49.5170 hn        1 N85      0.482800
     47 H32        86.7500  -52.8170   46.5820 hn        1 N85      0.377500
@<TRIPOS>BOND
     1    1    2 1   
     2    1   11 1   
     3    1   27 1   
     4    1   46 1   
     5    2    3 2   
     6    2    4 1   
     7    4   28 1   
     8    4   47 1   
     9    5    6 2   
    10    5    7 2   
    11    7    8 1   
    12    7   20 1   
    13    8    9 2   
    14    8   29 1   
    15    9   10 ar  
    16    9   15 ar  
    17   10   12 ar  
    18   10   30 1   
    19   11   16 1   
    20   11   24 1   
    21   11   31 1   
    22   12   13 ar  
    23   12   32 1   
    24   13   14 ar  
    25   13   33 1   
    26   14   15 ar  
    27   14   34 1   
    28   15   20 2   
    29   16   17 1   
    30   16   18 1   
    31   16   35 1   
    32   17   36 1   
    33   18   19 1   
    34   18   21 1   
    35   18   37 1   
    36   19   38 1   
    37   20   39 1   
    38   21   22 1   
    39   21   23 1   
    40   21   40 1   
    41   22   41 1   
    42   23   24 1   
    43   23   25 1   
    44   23   42 1   
    45   25   26 1   
    46   25   43 1   
    47   25   44 1   
    48   26   45 1   
@<TRIPOS>SUBSTRUCTURE
     1 N85         1 TEMP              0 ****  ****    0 ROOT
