@<TRIPOS>MOLECULE
N85
   47    48     1     0     0
SMALL
bcc


@<TRIPOS>ATOM
      1 N1         72.2730  -46.7820   38.7030 n4        1 N85     -0.668800
      2 C2         72.7620  -48.2320   38.5640 c         1 N85      0.648100
      3 O2         72.3340  -48.9740   39.4550 o         1 N85     -0.493100
      4 N3         73.5980  -48.5420   37.5440 n         1 N85     -0.607000
      5 C4       -132.7510   81.8440  -67.1900 c1        1 N85      0.720600
      6 O4       -133.8590   82.0330  -67.5020 o         1 N85     -0.178500
      7 C5       -131.4790   81.5780  -66.7980 cc        1 N85     -0.284200
      8 C7       -131.0650   80.4550  -65.9860 cc        1 N85      0.061000
      9 C8       -129.6760   80.5630  -65.8220 ca        1 N85     -0.134000
     10 C9       -128.7100   79.7790  -65.1410 ca        1 N85     -0.036000
     11 C1'        71.6120  -46.2500   37.4660 c3        1 N85      0.329300
     12 C10      -127.3970   80.1710  -65.1750 ca        1 N85     -0.144000
     13 C11      -126.9860   81.3410  -65.8770 ca        1 N85      0.002000
     14 C12      -127.8770   82.1410  -66.5570 ca        1 N85     -0.186000
     15 C16      -129.2410   81.7640  -66.5400 ca        1 N85      0.135000
     16 C2'        70.9380  -44.8750   37.7150 c3        1 N85      0.113100
     17 O2'        69.9550  -45.0950   38.7030 oh        1 N85     -0.616800
     18 C3'        70.3420  -44.4080   36.3760 c3        1 N85      0.114100
     19 O3'        69.8170  -43.1210   36.6270 oh        1 N85     -0.591800
     20 N30      -130.3360   82.3620  -67.1210 na        1 N85     -0.187600
     21 C4'        71.4460  -44.3540   35.2990 c3        1 N85      0.081100
     22 O4'        70.7710  -44.0900   34.0840 oh        1 N85     -0.581800
     23 C5'        72.1630  -45.7090   35.2130 c3        1 N85      0.084100
     24 O5'        72.6560  -46.0830   36.5140 os        1 N85     -0.439600
     25 C6'        73.4270  -45.6760   34.3440 c3        1 N85      0.132400
     26 O6'        74.0040  -46.9630   34.3130 oh        1 N85     -0.594800
     27 HN1        71.5750  -46.7600   39.4670 hn        1 N85      0.482800
     28 HN3        73.9220  -49.4860   37.4950 hn        1 N85      0.377500
     29 H7       -131.7310   79.6840  -65.5910 ha        1 N85      0.199000
     30 H9       -129.0320   78.8750  -64.5990 ha        1 N85      0.171000
     31 H1'        70.8530  -47.0140   37.1200 hx        1 N85      0.120700
     32 H10      -126.6260   79.5790  -64.6540 ha        1 N85      0.175000
     33 H11      -125.9130   81.6060  -65.8700 ha        1 N85      0.173000
     34 H12      -127.5480   83.0430  -67.0960 ha        1 N85      0.173000
     35 H2'        71.6860  -44.1160   38.0800 h1        1 N85      0.086700
     36 HO2'       69.3490  -44.3370   38.6860 ho        1 N85      0.470000
     37 H3'        69.5200  -45.1040   36.0450 h1        1 N85      0.079700
     38 HO3'       69.4220  -42.8110   35.7980 ho        1 N85      0.449000
     39 HN30     -130.3450   83.1880  -67.6670 hn        1 N85      0.339700
     40 H4'        72.1790  -43.5380   35.5480 h1        1 N85      0.080700
     41 HO4'       71.3990  -43.6630   33.4860 ho        1 N85      0.429000
     42 H5'        71.4530  -46.5010   34.8460 h1        1 N85      0.078700
     43 H6'        74.2050  -45.0120   34.8100 h1        1 N85      0.078200
     44 H6'A       73.1530  -45.3010   33.3240 h1        1 N85      0.078200
     45 HO6'       73.6270  -47.4400   33.5630 ho        1 N85      0.419000
     46 H121       73.0660  -46.1810   38.9530 hn        1 N85      0.482800
     47 H32        73.8410  -47.9020   36.8160 hn        1 N85      0.377500
@<TRIPOS>BOND
     1    1    2 1   
     2    1   11 1   
     3    1   27 1   
     4    1   46 1   
     5    2    3 2   
     6    2    4 1   
     7    4   28 1   
     8    4   47 1   
     9    5    6 2   
    10    5    7 2   
    11    7    8 1   
    12    7   20 1   
    13    8    9 2   
    14    8   29 1   
    15    9   10 ar  
    16    9   15 ar  
    17   10   12 ar  
    18   10   30 1   
    19   11   16 1   
    20   11   24 1   
    21   11   31 1   
    22   12   13 ar  
    23   12   32 1   
    24   13   14 ar  
    25   13   33 1   
    26   14   15 ar  
    27   14   34 1   
    28   15   20 2   
    29   16   17 1   
    30   16   18 1   
    31   16   35 1   
    32   17   36 1   
    33   18   19 1   
    34   18   21 1   
    35   18   37 1   
    36   19   38 1   
    37   20   39 1   
    38   21   22 1   
    39   21   23 1   
    40   21   40 1   
    41   22   41 1   
    42   23   24 1   
    43   23   25 1   
    44   23   42 1   
    45   25   26 1   
    46   25   43 1   
    47   25   44 1   
    48   26   45 1   
@<TRIPOS>SUBSTRUCTURE
     1 N85         1 TEMP              0 ****  ****    0 ROOT
