@<TRIPOS>MOLECULE
N85
   45    47     1     0     0
SMALL
bcc


@<TRIPOS>ATOM
      1 N1          1.1970   -0.8330   -0.0830 n         1 N85     -0.528900
      2 C2          0.2230   -0.3860    0.8580 c         1 N85      0.754100
      3 O2          0.5160   -0.2380    2.0580 o         1 N85     -0.553100
      4 N3         -1.1080   -0.2390    0.3980 n         1 N85     -0.615500
      5 C4         -2.1280    0.3400    1.1710 c         1 N85      0.705300
      6 O4         -1.9100    0.9230    2.2390 o         1 N85     -0.505100
      7 C5         -3.4950    0.2420    0.6060 cc        1 N85     -0.165300
      8 C7         -4.4810    1.2200    0.7010 cd        1 N85     -0.081200
      9 C8         -5.6540    0.7060    0.0300 ca        1 N85     -0.114800
     10 C9         -6.9330    1.2130   -0.2060 ca        1 N85     -0.070000
     11 C1'         2.5840   -0.5540    0.2330 c3        1 N85      0.241500
     12 C10        -7.8480    0.4260   -0.8890 ca        1 N85     -0.156000
     13 C11        -7.5070   -0.8610   -1.3450 ca        1 N85     -0.098000
     14 C12        -6.2460   -1.3980   -1.1370 ca        1 N85     -0.146000
     15 C16        -5.3080   -0.6130   -0.4490 ca        1 N85     -0.036200
     16 C2'         3.5120   -1.7410   -0.1540 c3        1 N85      0.091100
     17 O2'         3.2900   -2.8690    0.6710 oh        1 N85     -0.601800
     18 C3'         4.9730   -1.3310    0.0940 c3        1 N85      0.108100
     19 O3'         5.8610   -2.3140   -0.4090 oh        1 N85     -0.607800
     20 N30        -3.9570   -0.8590   -0.1560 na        1 N85     -0.175400
     21 C4'         5.2940   -0.0300   -0.6590 c3        1 N85      0.118100
     22 O4'         6.5840    0.4400   -0.3140 oh        1 N85     -0.593800
     23 C5'         4.2830    1.0560   -0.2500 c3        1 N85      0.151100
     24 O5'         2.9640    0.5970   -0.5480 os        1 N85     -0.446600
     25 C6'         4.4900    2.3290   -1.0730 c3        1 N85      0.135400
     26 O6'         3.9950    3.4050   -0.2940 oh        1 N85     -0.593800
     27 HN1         0.9850   -0.6670   -1.0460 hn        1 N85      0.294500
     28 HN3        -1.3230   -0.4830   -0.5410 hn        1 N85      0.323500
     29 H7         -4.3870    2.1880    1.1880 ha        1 N85      0.175000
     30 H9         -7.2020    2.2200    0.1470 ha        1 N85      0.140000
     31 H1'         2.7010   -0.3310    1.3370 h2        1 N85      0.110700
     32 H10        -8.8610    0.8080   -1.0810 ha        1 N85      0.135000
     33 H11        -8.2650   -1.4550   -1.8790 ha        1 N85      0.134000
     34 H12        -5.9890   -2.4020   -1.4990 ha        1 N85      0.137000
     35 H2'         3.3700   -2.0200   -1.2340 h1        1 N85      0.059700
     36 HO2'        2.3560   -3.1000    0.6060 ho        1 N85      0.424000
     37 H3'         5.1470   -1.1950    1.1980 h1        1 N85      0.069700
     38 HO3'        5.6300   -3.1440    0.0290 ho        1 N85      0.429000
     39 HN30       -3.6080   -1.7740   -0.0150 hn        1 N85      0.288700
     40 H4'         5.2420   -0.2150   -1.7680 h1        1 N85      0.058700
     41 HO4'        7.1910   -0.3010   -0.4530 ho        1 N85      0.426000
     42 H5'         4.3740    1.2860    0.8480 h1        1 N85      0.086700
     43 H6'         5.5890    2.4640   -1.2630 h1        1 N85      0.046200
     44 H6'A        3.9340    2.2600   -2.0460 h1        1 N85      0.046200
     45 HO6'        4.0680    4.1950   -0.8420 ho        1 N85      0.404000
@<TRIPOS>BOND
     1    1    2 1   
     2    1   11 1   
     3    1   27 1   
     4    2    3 2   
     5    2    4 1   
     6    4    5 1   
     7    4   28 1   
     8    5    6 2   
     9    5    7 1   
    10    7    8 2   
    11    7   20 1   
    12    8    9 1   
    13    8   29 1   
    14    9   10 ar  
    15    9   15 ar  
    16   10   12 ar  
    17   10   30 1   
    18   11   16 1   
    19   11   24 1   
    20   11   31 1   
    21   12   13 ar  
    22   12   32 1   
    23   13   14 ar  
    24   13   33 1   
    25   14   15 ar  
    26   14   34 1   
    27   15   20 1   
    28   16   17 1   
    29   16   18 1   
    30   16   35 1   
    31   17   36 1   
    32   18   19 1   
    33   18   21 1   
    34   18   37 1   
    35   19   38 1   
    36   20   39 1   
    37   21   22 1   
    38   21   23 1   
    39   21   40 1   
    40   22   41 1   
    41   23   24 1   
    42   23   25 1   
    43   23   42 1   
    44   25   26 1   
    45   25   43 1   
    46   25   44 1   
    47   26   45 1   
@<TRIPOS>SUBSTRUCTURE
     1 N85         1 TEMP              0 ****  ****    0 ROOT
