@<TRIPOS>MOLECULE
N85
   47    48     1     0     0
SMALL
bcc


@<TRIPOS>ATOM
      1 N1        311.8920 -119.5530  226.3140 n4        1 N85     -0.670800
      2 C2        310.4570 -120.0710  226.1430 c         1 N85      0.651100
      3 O2        310.1780 -120.3680  224.9760 o         1 N85     -0.484100
      4 N3        309.6680 -120.1610  227.2400 n         1 N85     -0.613000
      5 C4       -550.8220  206.6200 -400.7830 c1        1 N85      0.720600
      6 O4       -549.8260  206.3650 -400.2320 o         1 N85     -0.178500
      7 C5       -551.9510  206.9500 -401.4610 cc        1 N85     -0.284200
      8 C7       -552.0180  207.8250 -402.6110 cc        1 N85      0.061000
      9 C8       -553.3670  207.8890 -402.9930 ca        1 N85     -0.134000
     10 C9       -554.0550  208.5700 -404.0290 ca        1 N85     -0.036000
     11 C1'       311.9520 -118.1410  226.8330 c3        1 N85      0.333300
     12 C10      -555.4130  208.4170 -404.1320 ca        1 N85     -0.144000
     13 C11      -556.1410  207.5940 -403.2250 ca        1 N85      0.002000
     14 C12      -555.5280  206.9090 -402.1990 ca        1 N85     -0.186000
     15 C16      -554.1260  207.0450 -402.0670 ca        1 N85      0.135000
     16 C2'       312.4460 -118.0620  228.3000 c3        1 N85      0.110100
     17 O2'       311.5220 -118.7820  229.0890 oh        1 N85     -0.643800
     18 C3'       312.5020 -116.5730  228.6760 c3        1 N85      0.116100
     19 O3'       313.0030 -116.5360  229.9960 oh        1 N85     -0.596800
     20 N30      -553.2620  206.4880 -401.1530 na        1 N85     -0.187600
     21 C4'       313.4350 -115.8290  227.7000 c3        1 N85      0.079100
     22 O4'       313.2840 -114.4590  228.0200 oh        1 N85     -0.584800
     23 C5'       313.0020 -116.0820  226.2460 c3        1 N85      0.079100
     24 O5'       312.9060 -117.4970  225.9950 os        1 N85     -0.417600
     25 C6'       314.0500 -115.5830  225.2390 c3        1 N85      0.137400
     26 O6'       313.5200 -115.5460  223.9390 oh        1 N85     -0.568800
     27 HN1       312.4150 -120.1700  226.9440 hn        1 N85      0.479800
     28 HN3       309.9640 -119.8930  228.1530 hn        1 N85      0.375500
     29 H7       -551.1640  208.3260 -403.0720 ha        1 N85      0.199000
     30 H9       -553.4880  209.2060 -404.7280 ha        1 N85      0.171000
     31 H1'       310.9310 -117.6690  226.7190 hx        1 N85      0.115700
     32 H10      -555.9730  208.9360 -404.9290 ha        1 N85      0.175000
     33 H11      -557.2360  207.5100 -403.3580 ha        1 N85      0.173000
     34 H12      -556.1020  206.2760 -401.5050 ha        1 N85      0.173000
     35 H2'       313.4710 -118.5190  228.4080 h1        1 N85      0.091700
     36 HO2'      311.6550 -118.5120  230.0120 ho        1 N85      0.475000
     37 H3'       311.4730 -116.1150  228.6440 h1        1 N85      0.077700
     38 HO3'      313.0830 -115.6010  230.2420 ho        1 N85      0.452000
     39 HN30     -553.4920  205.8760 -400.4090 hn        1 N85      0.339700
     40 H4'       314.4960 -116.1700  227.8550 h1        1 N85      0.079700
     41 HO4'      314.0790 -113.9980  227.7220 ho        1 N85      0.431000
     42 H5'       312.0030 -115.6040  226.0480 h1        1 N85      0.079700
     43 H6'       314.9110 -116.3040  225.1830 h1        1 N85      0.074200
     44 H6'A      314.4080 -114.5740  225.5760 h1        1 N85      0.074200
     45 HO6'      312.9590 -114.7620  223.8660 ho        1 N85      0.413000
     46 H121      312.3310 -119.5810  225.3760 hn        1 N85      0.479800
     47 H32       308.7490 -120.5310  227.1100 hn        1 N85      0.375500
@<TRIPOS>BOND
     1    1    2 1   
     2    1   11 1   
     3    1   27 1   
     4    1   46 1   
     5    2    3 2   
     6    2    4 1   
     7    4   28 1   
     8    4   47 1   
     9    5    6 2   
    10    5    7 2   
    11    7    8 1   
    12    7   20 1   
    13    8    9 2   
    14    8   29 1   
    15    9   10 ar  
    16    9   15 ar  
    17   10   12 ar  
    18   10   30 1   
    19   11   16 1   
    20   11   24 1   
    21   11   31 1   
    22   12   13 ar  
    23   12   32 1   
    24   13   14 ar  
    25   13   33 1   
    26   14   15 ar  
    27   14   34 1   
    28   15   20 2   
    29   16   17 1   
    30   16   18 1   
    31   16   35 1   
    32   17   36 1   
    33   18   19 1   
    34   18   21 1   
    35   18   37 1   
    36   19   38 1   
    37   20   39 1   
    38   21   22 1   
    39   21   23 1   
    40   21   40 1   
    41   22   41 1   
    42   23   24 1   
    43   23   25 1   
    44   23   42 1   
    45   25   26 1   
    46   25   43 1   
    47   25   44 1   
    48   26   45 1   
@<TRIPOS>SUBSTRUCTURE
     1 N85         1 TEMP              0 ****  ****    0 ROOT
