@<TRIPOS>MOLECULE
N87
   43    39     1     0     0
SMALL
bcc


@<TRIPOS>ATOM
      1 O1          1.0110    6.0700   -0.0940 o         1 N87     -0.545000
      2 C2          0.0360    5.2720   -0.0090 c1        1 N87      0.328000
      3 O3         -0.9660    5.5750    0.6930 o         1 N87     -0.545000
      4 C4          0.0290    3.9830   -0.8360 c2        1 N87      0.006000
      5 O5         -1.3010    3.9730   -1.3050 oh        1 N87     -0.358000
      6 C6          0.2870    2.8230    0.0130 c2        1 N87     -0.048000
      7 C7          0.8790    1.4400   -0.7840 c1        1 N87     -0.186000
      8 C8          1.7210    1.6920   -1.9700 c2        1 N87      0.044000
      9 O9          1.7600    0.5390   -2.8090 oh        1 N87     -0.332000
     10 C10         1.2470    3.0480   -2.8040 c3        1 N87      0.001000
     11 O11         2.2870    3.3270   -3.8790 oh        1 N87     -0.333000
     12 C12         1.1090    4.0930   -2.1140 c3        1 N87     -0.177000
     13 C13         1.0040    0.0970   -0.0170 c2        1 N87     -0.002000
     14 C14        -0.0140   -0.8500   -0.1070 c2        1 N87     -0.082000
     15 C15         0.1590   -2.1120    0.4510 c1        1 N87     -0.156000
     16 C16        -0.8760   -3.2070    0.1870 c1        1 N87      0.311000
     17 C17        -1.7350   -3.7360    1.3330 c2        1 N87     -0.141000
     18 C18        -2.6010   -4.8010    1.1190 c2        1 N87     -0.083000
     19 C19        -3.3520   -5.3060    2.1680 c1        1 N87     -0.151000
     20 C20        -3.2400   -4.7480    3.4300 c1        1 N87     -0.130500
     21 C21        -2.3760   -3.6850    3.6440 c1        1 N87     -0.130500
     22 C22        -1.6240   -3.1800    2.5920 c1        1 N87     -0.084000
     23 C23         1.3440   -2.4270    1.0980 c2        1 N87     -0.117000
     24 C24         2.3610   -1.4820    1.1880 c1        1 N87     -0.150000
     25 C25         2.1890   -0.2200    0.6300 c1        1 N87     -0.087000
     26 O26        -0.9500   -3.7200   -0.9150 o         1 N87     -0.297000
     27 HO5        -1.4340    4.6760   -1.8410 ho        1 N87      0.229000
     28 H6         -0.1720    2.7340    0.8700 ha        1 N87      0.130000
     29 H8          2.6640    1.7680   -1.7160 h4        1 N87      0.121000
     30 HO9         2.5950    0.4080   -3.0950 ho        1 N87      0.198000
     31 H10         0.3940    2.8550   -3.2430 h1        1 N87      0.114000
     32 HO11        1.9150    3.2430   -4.6790 ho        1 N87      0.194000
     33 H12         1.9860    4.3390   -1.7520 hc        1 N87      0.107000
     34 H12A        0.8080    4.8140   -2.7070 hc        1 N87      0.107000
     35 H14        -0.8310   -0.6410   -0.5940 ha        1 N87      0.154000
     36 H18        -2.7030   -5.1750    0.2220 ha        1 N87      0.148000
     37 H19        -3.9040   -6.0990    2.0340 ha        1 N87      0.128000
     38 H20        -3.8020   -5.0740    4.1610 ha        1 N87      0.129000
     39 H21        -2.2890   -3.2980    4.5370 ha        1 N87      0.129000
     40 H22        -1.1620   -2.4410    3.0310 ha        1 N87      0.154000
     41 H23         1.4730   -3.3230    1.4770 ha        1 N87      0.126000
     42 H24         3.1950   -1.7040    1.6440 ha        1 N87      0.124000
     43 H25         2.8780    0.4610    0.7460 ha        1 N87      0.151000
@<TRIPOS>BOND
     1    1    2 1   
     2    2    3 1   
     3    4    5 1   
     4    4    6 1   
     5    4   12 1   
     6    5   27 1   
     7    6    7 1   
     8    6   28 1   
     9    7   13 1   
    10    8    9 1   
    11    8   10 1   
    12    8   29 1   
    13    9   30 1   
    14   10   11 1   
    15   10   12 1   
    16   10   31 1   
    17   11   32 1   
    18   12   33 1   
    19   12   34 1   
    20   13   14 1   
    21   13   25 1   
    22   14   15 1   
    23   14   35 1   
    24   15   23 1   
    25   16   17 1   
    26   16   26 1   
    27   17   18 1   
    28   17   22 1   
    29   18   19 1   
    30   18   36 1   
    31   19   37 1   
    32   20   21 1   
    33   20   38 1   
    34   21   39 1   
    35   22   40 1   
    36   23   24 1   
    37   23   41 1   
    38   24   42 1   
    39   25   43 1   
@<TRIPOS>SUBSTRUCTURE
     1 N87         1 TEMP              0 ****  ****    0 ROOT
