@<TRIPOS>MOLECULE
N87
   43    45     1     0     0
SMALL
bcc


@<TRIPOS>ATOM
      1 O1         -0.5790   -0.5620    0.7770 o         1 N87     -0.810800
      2 C2          0.5480   -0.2000    0.3600 c         1 N87      0.907600
      3 O3          0.8550    0.0590   -0.8360 o         1 N87     -0.810800
      4 C4          1.7200   -0.0290    1.4080 c3        1 N87      0.036000
      5 O5          2.7550    0.7800    0.8540 oh        1 N87     -0.631800
      6 C6          2.2930   -1.3830    1.6870 c2        1 N87     -0.067200
      7 C7          2.3850   -1.9620    2.8980 ce        1 N87     -0.134400
      8 C8          1.8650   -1.2500    4.1110 c3        1 N87      0.170300
      9 O9          2.5950   -1.6180    5.2780 oh        1 N87     -0.618800
     10 C10         1.9360    0.2770    3.9050 c3        1 N87      0.104100
     11 O11         1.4230    0.9180    5.0680 oh        1 N87     -0.625800
     12 C12         1.1880    0.6800    2.6500 c3        1 N87     -0.098400
     13 C13         2.9150   -3.3180    3.0440 ca        1 N87     -0.016800
     14 C14         2.4090   -4.3530    2.2410 ca        1 N87     -0.074000
     15 C15         2.8960   -5.6580    2.3770 ca        1 N87     -0.180600
     16 C16         2.3460   -6.7340    1.5270 c         1 N87      0.589300
     17 C17         2.1180   -8.0550    2.1670 ca        1 N87     -0.159600
     18 C18         1.8400   -8.1620    3.5340 ca        1 N87     -0.084500
     19 C19         1.6080   -9.4140    4.1040 ca        1 N87     -0.150000
     20 C20         1.6560  -10.5630    3.3140 ca        1 N87     -0.116000
     21 C21         1.9300  -10.4600    1.9500 ca        1 N87     -0.150000
     22 C22         2.1530   -9.2110    1.3760 ca        1 N87     -0.084500
     23 C23         3.9150   -5.9310    3.2970 ca        1 N87     -0.115000
     24 C24         4.4390   -4.9020    4.0740 ca        1 N87     -0.158000
     25 C25         3.9420   -3.6050    3.9540 ca        1 N87     -0.080000
     26 O26         2.0830   -6.5620    0.3300 o         1 N87     -0.526100
     27 HO5         2.5950    0.8270   -0.1040 ho        1 N87      0.431000
     28 H6          2.6480   -1.9070    0.7820 ha        1 N87      0.135000
     29 H8          0.7870   -1.5520    4.2740 h1        1 N87      0.042700
     30 HO9         2.4430   -0.9150    5.9230 ho        1 N87      0.407000
     31 H10         3.0120    0.6050    3.8590 h1        1 N87      0.086700
     32 HO11        0.4610    0.8630    5.0210 ho        1 N87      0.398000
     33 H12         1.2760    1.7870    2.5060 hc        1 N87      0.067200
     34 H12A        0.0990    0.4220    2.7580 hc        1 N87      0.067200
     35 H14         1.6220   -4.1360    1.4990 ha        1 N87      0.164000
     36 H18         1.8030   -7.2540    4.1570 ha        1 N87      0.151000
     37 H19         1.3850   -9.4920    5.1770 ha        1 N87      0.129000
     38 H20         1.4760  -11.5490    3.7670 ha        1 N87      0.124000
     39 H21         1.9630  -11.3640    1.3260 ha        1 N87      0.129000
     40 H22         2.3510   -9.1150    0.2960 ha        1 N87      0.151000
     41 H23         4.3020   -6.9560    3.3980 ha        1 N87      0.124000
     42 H24         5.2480   -5.1130    4.7880 ha        1 N87      0.121000
     43 H25         4.3480   -2.7960    4.5840 ha        1 N87      0.156000
@<TRIPOS>BOND
     1    1    2 1   
     2    2    3 1   
     3    2    4 1   
     4    4    5 1   
     5    4    6 1   
     6    4   12 1   
     7    5   27 1   
     8    6    7 2   
     9    6   28 1   
    10    7    8 1   
    11    7   13 1   
    12    8    9 1   
    13    8   10 1   
    14    8   29 1   
    15    9   30 1   
    16   10   11 1   
    17   10   12 1   
    18   10   31 1   
    19   11   32 1   
    20   12   33 1   
    21   12   34 1   
    22   13   14 ar  
    23   13   25 ar  
    24   14   15 ar  
    25   14   35 1   
    26   15   16 1   
    27   15   23 ar  
    28   16   17 1   
    29   16   26 2   
    30   17   18 ar  
    31   17   22 ar  
    32   18   19 ar  
    33   18   36 1   
    34   19   20 ar  
    35   19   37 1   
    36   20   21 ar  
    37   20   38 1   
    38   21   22 ar  
    39   21   39 1   
    40   22   40 1   
    41   23   24 ar  
    42   23   41 1   
    43   24   25 ar  
    44   24   42 1   
    45   25   43 1   
@<TRIPOS>SUBSTRUCTURE
     1 N87         1 TEMP              0 ****  ****    0 ROOT
