@<TRIPOS>MOLECULE
N87
   43    45     1     0     0
SMALL
bcc


@<TRIPOS>ATOM
      1 O1         -0.5690   -0.5780    0.7510 o         1 N87     -0.810800
      2 C2          0.5590   -0.2160    0.3380 c         1 N87      0.907600
      3 O3          0.8730    0.0380   -0.8570 o         1 N87     -0.810800
      4 C4          1.7260   -0.0390    1.3910 c3        1 N87      0.036000
      5 O5          2.7630    0.7690    0.8390 oh        1 N87     -0.631800
      6 C6          2.2990   -1.3920    1.6780 c2        1 N87     -0.067200
      7 C7          2.3860   -1.9660    2.8920 ce        1 N87     -0.134400
      8 C8          1.8590   -1.2500    4.1000 c3        1 N87      0.170300
      9 O9          2.5840   -1.6130    5.2710 oh        1 N87     -0.618800
     10 C10         1.9290    0.2770    3.8880 c3        1 N87      0.104100
     11 O11         1.4090    0.9210    5.0460 oh        1 N87     -0.625800
     12 C12         1.1860    0.6730    2.6270 c3        1 N87     -0.098400
     13 C13         2.9170   -3.3210    3.0460 ca        1 N87     -0.016800
     14 C14         2.4160   -4.3590    2.2450 ca        1 N87     -0.074000
     15 C15         2.9040   -5.6630    2.3880 ca        1 N87     -0.180600
     16 C16         2.3600   -6.7430    1.5400 c         1 N87      0.589300
     17 C17         2.1290   -8.0610    2.1840 ca        1 N87     -0.159600
     18 C18         1.8440   -8.1630    3.5500 ca        1 N87     -0.084500
     19 C19         1.6090   -9.4120    4.1240 ca        1 N87     -0.150000
     20 C20         1.6610  -10.5640    3.3400 ca        1 N87     -0.116000
     21 C21         1.9410  -10.4680    1.9770 ca        1 N87     -0.150000
     22 C22         2.1680   -9.2210    1.3980 ca        1 N87     -0.084500
     23 C23         3.9190   -5.9310    3.3140 ca        1 N87     -0.115000
     24 C24         4.4380   -4.8990    4.0900 ca        1 N87     -0.158000
     25 C25         3.9400   -3.6020    3.9620 ca        1 N87     -0.080000
     26 O26         2.1040   -6.5770    0.3400 o         1 N87     -0.526100
     27 HO5         2.6070    0.8120   -0.1200 ho        1 N87      0.431000
     28 H6          2.6600   -1.9190    0.7770 ha        1 N87      0.135000
     29 H8          0.7810   -1.5530    4.2580 h1        1 N87      0.042700
     30 HO9         2.4280   -0.9070    5.9130 ho        1 N87      0.407000
     31 H10         3.0050    0.6060    3.8470 h1        1 N87      0.086700
     32 HO11        0.4470    0.8640    4.9950 ho        1 N87      0.398000
     33 H12         1.2730    1.7800    2.4800 hc        1 N87      0.067200
     34 H12A        0.0970    0.4140    2.7310 hc        1 N87      0.067200
     35 H14         1.6330   -4.1460    1.4980 ha        1 N87      0.164000
     36 H18         1.8030   -7.2520    4.1690 ha        1 N87      0.151500
     37 H19         1.3800   -9.4850    5.1970 ha        1 N87      0.129000
     38 H20         1.4780  -11.5480    3.7960 ha        1 N87      0.124000
     39 H21         1.9770  -11.3740    1.3570 ha        1 N87      0.129000
     40 H22         2.3710   -9.1300    0.3190 ha        1 N87      0.151500
     41 H23         4.3070   -6.9550    3.4210 ha        1 N87      0.124000
     42 H24         5.2440   -5.1060    4.8080 ha        1 N87      0.121000
     43 H25         4.3420   -2.7910    4.5900 ha        1 N87      0.156000
@<TRIPOS>BOND
     1    1    2 1   
     2    2    3 1   
     3    2    4 1   
     4    4    5 1   
     5    4    6 1   
     6    4   12 1   
     7    5   27 1   
     8    6    7 2   
     9    6   28 1   
    10    7    8 1   
    11    7   13 1   
    12    8    9 1   
    13    8   10 1   
    14    8   29 1   
    15    9   30 1   
    16   10   11 1   
    17   10   12 1   
    18   10   31 1   
    19   11   32 1   
    20   12   33 1   
    21   12   34 1   
    22   13   14 ar  
    23   13   25 ar  
    24   14   15 ar  
    25   14   35 1   
    26   15   16 1   
    27   15   23 ar  
    28   16   17 1   
    29   16   26 2   
    30   17   18 ar  
    31   17   22 ar  
    32   18   19 ar  
    33   18   36 1   
    34   19   20 ar  
    35   19   37 1   
    36   20   21 ar  
    37   20   38 1   
    38   21   22 ar  
    39   21   39 1   
    40   22   40 1   
    41   23   24 ar  
    42   23   41 1   
    43   24   25 ar  
    44   24   42 1   
    45   25   43 1   
@<TRIPOS>SUBSTRUCTURE
     1 N87         1 TEMP              0 ****  ****    0 ROOT
