@<TRIPOS>MOLECULE
N87
   43    45     1     0     0
SMALL
bcc


@<TRIPOS>ATOM
      1 O1         -3.3620    2.2290   -1.7580 o         1 N87     -0.810300
      2 C2         -3.7860    2.1870   -0.5780 c         1 N87      0.908600
      3 O3         -4.2320    3.1590    0.0910 o         1 N87     -0.810300
      4 C4         -3.7760    0.7980    0.1800 c3        1 N87      0.029000
      5 O5         -4.5640    0.8780    1.3650 oh        1 N87     -0.632800
      6 C6         -2.3640    0.5200    0.5940 c2        1 N87     -0.042200
      7 C7         -1.6470   -0.5590    0.2290 ce        1 N87     -0.185400
      8 C8         -2.2550   -1.5880   -0.6790 c3        1 N87      0.157300
      9 O9         -1.7780   -2.9140   -0.4680 oh        1 N87     -0.626800
     10 C10        -3.7800   -1.6480   -0.4520 c3        1 N87      0.153100
     11 O11        -4.3770   -2.5710   -1.3530 oh        1 N87     -0.610800
     12 C12        -4.3840   -0.2780   -0.7180 c3        1 N87     -0.067400
     13 C13        -0.2620   -0.7320    0.6620 ca        1 N87     -0.026800
     14 C14         0.7010    0.2420    0.3530 ca        1 N87     -0.071000
     15 C15         2.0310    0.0720    0.7530 ca        1 N87     -0.174600
     16 C16         3.0320    1.1060    0.4170 c         1 N87      0.587300
     17 C17         4.3780    0.6400   -0.0010 ca        1 N87     -0.160600
     18 C18         4.5580   -0.5980   -0.6280 ca        1 N87     -0.084000
     19 C19         5.8310   -1.0000   -1.0310 ca        1 N87     -0.148500
     20 C20         6.9300   -0.1710   -0.8070 ca        1 N87     -0.114000
     21 C21         6.7560    1.0660   -0.1860 ca        1 N87     -0.148500
     22 C22         5.4840    1.4740    0.2100 ca        1 N87     -0.084000
     23 C23         2.4010   -1.0590    1.4920 ca        1 N87     -0.116000
     24 C24         1.4420   -2.0100    1.8280 ca        1 N87     -0.153000
     25 C25         0.1200   -1.8520    1.4150 ca        1 N87     -0.113000
     26 O26         2.7760    2.3160    0.4820 o         1 N87     -0.520100
     27 HO5        -4.7780    1.8160    1.5020 ho        1 N87      0.431000
     28 H6         -1.9300    1.2950    1.2480 ha        1 N87      0.131000
     29 H8         -2.0500   -1.2990   -1.7510 h1        1 N87      0.057700
     30 HO9        -0.8290   -2.8970   -0.6350 ho        1 N87      0.399000
     31 H10        -3.9840   -1.9780    0.6040 h1        1 N87      0.045700
     32 HO11       -3.8910   -3.3980   -1.2530 ho        1 N87      0.400000
     33 H12        -5.4880   -0.3250   -0.5430 hc        1 N87      0.072200
     34 H12A       -4.2080    0.0070   -1.7900 hc        1 N87      0.072200
     35 H14         0.4040    1.1470   -0.2030 ha        1 N87      0.170000
     36 H18         3.6890   -1.2530   -0.8050 ha        1 N87      0.150000
     37 H19         5.9660   -1.9710   -1.5280 ha        1 N87      0.129500
     38 H20         7.9340   -0.4910   -1.1240 ha        1 N87      0.125000
     39 H21         7.6200    1.7230   -0.0140 ha        1 N87      0.129500
     40 H22         5.3310    2.4580    0.6840 ha        1 N87      0.150000
     41 H23         3.4450   -1.1870    1.8120 ha        1 N87      0.128000
     42 H24         1.7270   -2.8890    2.4250 ha        1 N87      0.124000
     43 H25        -0.6400   -2.6050    1.6820 ha        1 N87      0.151000
@<TRIPOS>BOND
     1    1    2 1   
     2    2    3 1   
     3    2    4 1   
     4    4    5 1   
     5    4    6 1   
     6    4   12 1   
     7    5   27 1   
     8    6    7 2   
     9    6   28 1   
    10    7    8 1   
    11    7   13 1   
    12    8    9 1   
    13    8   10 1   
    14    8   29 1   
    15    9   30 1   
    16   10   11 1   
    17   10   12 1   
    18   10   31 1   
    19   11   32 1   
    20   12   33 1   
    21   12   34 1   
    22   13   14 ar  
    23   13   25 ar  
    24   14   15 ar  
    25   14   35 1   
    26   15   16 1   
    27   15   23 ar  
    28   16   17 1   
    29   16   26 2   
    30   17   18 ar  
    31   17   22 ar  
    32   18   19 ar  
    33   18   36 1   
    34   19   20 ar  
    35   19   37 1   
    36   20   21 ar  
    37   20   38 1   
    38   21   22 ar  
    39   21   39 1   
    40   22   40 1   
    41   23   24 ar  
    42   23   41 1   
    43   24   25 ar  
    44   24   42 1   
    45   25   43 1   
@<TRIPOS>SUBSTRUCTURE
     1 N87         1 TEMP              0 ****  ****    0 ROOT
