@<TRIPOS>MOLECULE
N88
   38    38     1     0     0
SMALL
bcc


@<TRIPOS>ATOM
      1 C           0.7500    0.5480   -0.8060 c         1 N88      0.919600
      2 C1         -0.5380   -0.2300   -0.2560 c3        1 N88      0.024000
      3 O1          1.8210   -0.0870   -0.7440 o         1 N88     -0.798300
      4 C2         -0.7000    0.0520    1.2400 c3        1 N88     -0.110400
      5 O2          0.5940    1.7200   -1.2670 o         1 N88     -0.798300
      6 C3         -1.9220    0.9000    1.5650 c3        1 N88      0.119100
      7 O3         -1.8860    1.4160    2.8800 oh        1 N88     -0.588800
      8 C4         -2.0540    2.0510    0.5480 c3        1 N88      0.162300
      9 O4         -3.0810    2.9640    0.8720 oh        1 N88     -0.600800
     10 C5         -2.2440    1.4400   -0.8110 ce        1 N88     -0.295400
     11 C6         -1.6470    0.2660   -1.1120 c2        1 N88     -0.001200
     12 C13        -2.7990    2.2920   -1.8640 c         1 N88      0.614300
     13 N14        -1.6690    2.7930   -2.7560 n4        1 N88     -0.707800
     14 C15        -1.4200    4.2910   -2.7120 c3        1 N88      0.165200
     15 C16        -1.2030    4.7450   -1.2660 c3        1 N88     -0.127100
     16 C17        -0.1420    4.5850   -3.5100 c3        1 N88     -0.127100
     17 C18        -2.5880    5.0570   -3.3310 c3        1 N88     -0.127100
     18 O19        -3.9390    2.6310   -2.1360 o         1 N88     -0.446100
     19 O30        -0.3840   -1.6230   -0.4590 oh        1 N88     -0.607800
     20 H2          0.2250    0.5670    1.6140 hc        1 N88      0.073700
     21 H2A        -0.7830   -0.9250    1.7860 hc        1 N88      0.073700
     22 H3         -2.8580    0.2700    1.5470 h1        1 N88      0.083700
     23 HO3        -1.0680    1.9190    2.9770 ho        1 N88      0.408000
     24 H4         -1.1040    2.6680    0.5400 h1        1 N88      0.099700
     25 HO4        -3.7760    2.4780    1.3360 ho        1 N88      0.421000
     26 H6         -1.8100   -0.2770   -2.0560 ha        1 N88      0.144000
     27 HN14       -1.8620    2.5360   -3.7230 hn        1 N88      0.474300
     28 H16        -1.0120    5.8450   -1.2640 hc        1 N88      0.070589
     29 H16A       -2.1040    4.5350   -0.6370 hc        1 N88      0.070589
     30 H16B       -0.3160    4.2230   -0.8240 hc        1 N88      0.070589
     31 H17         0.0690    5.6800   -3.4480 hc        1 N88      0.070589
     32 H17A        0.7320    4.0320   -3.0810 hc        1 N88      0.070589
     33 H17B       -0.2640    4.3090   -4.5850 hc        1 N88      0.070589
     34 H18        -2.3570    6.1490   -3.2870 hc        1 N88      0.070589
     35 H18A       -3.5360    4.8730   -2.7670 hc        1 N88      0.070589
     36 H18B       -2.7380    4.7700   -4.3990 hc        1 N88      0.070589
     37 HO30        0.5730   -1.7980   -0.4910 ho        1 N88      0.443000
     38 H142       -0.7800    2.3250   -2.4300 hn        1 N88      0.474300
@<TRIPOS>BOND
     1    1    2 1   
     2    1    3 1   
     3    1    5 1   
     4    2    4 1   
     5    2   11 1   
     6    2   19 1   
     7    4    6 1   
     8    4   20 1   
     9    4   21 1   
    10    6    7 1   
    11    6    8 1   
    12    6   22 1   
    13    7   23 1   
    14    8    9 1   
    15    8   10 1   
    16    8   24 1   
    17    9   25 1   
    18   10   11 2   
    19   10   12 1   
    20   11   26 1   
    21   12   13 1   
    22   12   18 2   
    23   13   14 1   
    24   13   27 1   
    25   13   38 1   
    26   14   15 1   
    27   14   16 1   
    28   14   17 1   
    29   15   28 1   
    30   15   29 1   
    31   15   30 1   
    32   16   31 1   
    33   16   32 1   
    34   16   33 1   
    35   17   34 1   
    36   17   35 1   
    37   17   36 1   
    38   19   37 1   
@<TRIPOS>SUBSTRUCTURE
     1 N88         1 TEMP              0 ****  ****    0 ROOT
