@<TRIPOS>MOLECULE
N88
   37    37     1     0     0
SMALL
bcc


@<TRIPOS>ATOM
      1 C          -2.6670   -1.8400    0.8040 c         1 N88      0.905600
      2 C1         -2.1540   -0.7560   -0.2270 c3        1 N88      0.028000
      3 O1         -2.8720   -2.9850    0.3120 o         1 N88     -0.808800
      4 C2         -2.8710    0.5700   -0.0010 c3        1 N88     -0.067400
      5 O2         -2.8210   -1.5090    2.0020 o         1 N88     -0.808800
      6 C3         -2.0420    1.7390   -0.5080 c3        1 N88      0.149100
      7 O3         -2.7780    2.9330   -0.2800 oh        1 N88     -0.611800
      8 C4         -0.6960    1.7940    0.2460 c3        1 N88      0.170300
      9 O4          0.0170    2.8840   -0.3240 oh        1 N88     -0.633800
     10 C5          0.0170    0.4780    0.1270 ce        1 N88     -0.250400
     11 C6         -0.6650   -0.6620   -0.0730 c2        1 N88     -0.032200
     12 C13         1.4890    0.5230    0.3340 c         1 N88      0.691300
     13 N14         2.2540   -0.4470   -0.2840 n         1 N88     -0.567900
     14 C15         3.6890   -0.6090   -0.0910 c3        1 N88      0.131400
     15 C16         4.1920   -1.8340   -0.8780 c3        1 N88     -0.107433
     16 C17         4.4720    0.6190   -0.5900 c3        1 N88     -0.107433
     17 C18         4.0530   -0.8270    1.3890 c3        1 N88     -0.107433
     18 O19         2.0270    1.4330    1.0110 o         1 N88     -0.664100
     19 O30        -2.4160   -1.1860   -1.5600 oh        1 N88     -0.630800
     20 H2         -3.8540    0.5570   -0.5370 hc        1 N88      0.073200
     21 H2A        -3.0710    0.6870    1.0970 hc        1 N88      0.073200
     22 H3         -1.8420    1.6340   -1.6110 h1        1 N88      0.048700
     23 HO3        -2.1790    3.6610   -0.4880 ho        1 N88      0.402000
     24 H4         -0.8810    2.0080    1.3390 h1        1 N88      0.058700
     25 HO4         0.8370    2.9810    0.1780 ho        1 N88      0.424000
     26 H6         -0.1720   -1.6480   -0.1220 ha        1 N88      0.124000
     27 HN14        1.7930   -1.1690   -0.7850 hn        1 N88      0.315500
     28 H16         3.9970   -1.7130   -1.9700 hc        1 N88      0.041478
     29 H16A        5.2920   -1.9350   -0.7230 hc        1 N88      0.041478
     30 H16B        3.6950   -2.7680   -0.5230 hc        1 N88      0.041478
     31 H17         4.1580    1.5300   -0.0250 hc        1 N88      0.041478
     32 H17A        5.5630    0.4480   -0.4300 hc        1 N88      0.041478
     33 H17B        4.2900    0.7860   -1.6780 hc        1 N88      0.041478
     34 H18         3.5610   -1.7470    1.7840 hc        1 N88      0.041478
     35 H18A        5.1580   -0.9410    1.4840 hc        1 N88      0.041478
     36 H18B        3.7230    0.0500    1.9980 hc        1 N88      0.041478
     37 HO30       -2.6950   -2.1170   -1.5100 ho        1 N88      0.430000
@<TRIPOS>BOND
     1    1    2 1   
     2    1    3 1   
     3    1    5 1   
     4    2    4 1   
     5    2   11 1   
     6    2   19 1   
     7    4    6 1   
     8    4   20 1   
     9    4   21 1   
    10    6    7 1   
    11    6    8 1   
    12    6   22 1   
    13    7   23 1   
    14    8    9 1   
    15    8   10 1   
    16    8   24 1   
    17    9   25 1   
    18   10   11 2   
    19   10   12 1   
    20   11   26 1   
    21   12   13 1   
    22   12   18 2   
    23   13   14 1   
    24   13   27 1   
    25   14   15 1   
    26   14   16 1   
    27   14   17 1   
    28   15   28 1   
    29   15   29 1   
    30   15   30 1   
    31   16   31 1   
    32   16   32 1   
    33   16   33 1   
    34   17   34 1   
    35   17   35 1   
    36   17   36 1   
    37   19   37 1   
@<TRIPOS>SUBSTRUCTURE
     1 N88         1 TEMP              0 ****  ****    0 ROOT
