@<TRIPOS>MOLECULE
N88
   38    38     1     0     0
SMALL
bcc


@<TRIPOS>ATOM
      1 C           0.7880    0.6090   -0.7240 c         1 N88      0.919600
      2 C1         -0.4940   -0.2010   -0.2090 c3        1 N88      0.024000
      3 O1          1.8740    0.0060   -0.6220 o         1 N88     -0.798300
      4 C2         -0.7120    0.0880    1.2780 c3        1 N88     -0.110400
      5 O2          0.6150    1.7720   -1.2000 o         1 N88     -0.798300
      6 C3         -1.9680    0.9020    1.5570 c3        1 N88      0.119100
      7 O3         -1.9900    1.4290    2.8680 oh        1 N88     -0.588800
      8 C4         -2.0990    2.0420    0.5260 c3        1 N88      0.162300
      9 O4         -3.1610    2.9270    0.8100 oh        1 N88     -0.600800
     10 C5         -2.2280    1.4160   -0.8330 ce        1 N88     -0.295400
     11 C6         -1.5890    0.2570   -1.1050 c2        1 N88     -0.001200
     12 C13        -2.7720    2.2440   -1.9100 c         1 N88      0.614300
     13 N14        -1.6290    2.7700   -2.7690 n4        1 N88     -0.707800
     14 C15        -1.4220    4.2740   -2.7300 c3        1 N88      0.165200
     15 C16        -1.2650    4.7450   -1.2820 c3        1 N88     -0.127100
     16 C17        -0.1280    4.5980   -3.4900 c3        1 N88     -0.127100
     17 C18        -2.5920    5.0030   -3.3920 c3        1 N88     -0.127100
     18 O19        -3.9120    2.5490   -2.2220 o         1 N88     -0.446100
     19 O30        -0.2940   -1.5910   -0.3950 oh        1 N88     -0.607800
     20 H2         -0.7850   -0.8870    1.8290 hc        1 N88      0.073700
     21 H2A         0.1850    0.6310    1.6770 hc        1 N88      0.073700
     22 H3         -2.8850    0.2460    1.5140 h1        1 N88      0.083700
     23 HO3        -1.1890    1.9560    2.9870 ho        1 N88      0.408000
     24 H4         -1.1670    2.6860    0.5440 h1        1 N88      0.099700
     25 HO4        -3.8570    2.4260    1.2550 ho        1 N88      0.421000
     26 H6         -1.7050   -0.2970   -2.0490 ha        1 N88      0.144000
     27 HN14       -0.7370    2.3300   -2.4120 hn        1 N88      0.474300
     28 H16        -1.1050    5.8500   -1.2820 hc        1 N88      0.070700
     29 H16A       -0.3780    4.2510   -0.8070 hc        1 N88      0.070700
     30 H16B       -2.1800    4.5140   -0.6800 hc        1 N88      0.070700
     31 H17        -0.2090    4.3110   -4.5650 hc        1 N88      0.070700
     32 H17A        0.0490    5.6990   -3.4300 hc        1 N88      0.070700
     33 H17B        0.7470    4.0730   -3.0290 hc        1 N88      0.070700
     34 H18        -2.6990    4.7040   -4.4620 hc        1 N88      0.070700
     35 H18A       -3.5510    4.7960   -2.8570 hc        1 N88      0.070700
     36 H18B       -2.3920    6.1010   -3.3500 hc        1 N88      0.070700
     37 HO30        0.6680   -1.7380   -0.3960 ho        1 N88      0.443000
     38 H142       -1.7830    2.5010   -3.7400 hn        1 N88      0.474300
@<TRIPOS>BOND
     1    1    2 1   
     2    1    3 1   
     3    1    5 1   
     4    2    4 1   
     5    2   11 1   
     6    2   19 1   
     7    4    6 1   
     8    4   20 1   
     9    4   21 1   
    10    6    7 1   
    11    6    8 1   
    12    6   22 1   
    13    7   23 1   
    14    8    9 1   
    15    8   10 1   
    16    8   24 1   
    17    9   25 1   
    18   10   11 2   
    19   10   12 1   
    20   11   26 1   
    21   12   13 1   
    22   12   18 2   
    23   13   14 1   
    24   13   27 1   
    25   13   38 1   
    26   14   15 1   
    27   14   16 1   
    28   14   17 1   
    29   15   28 1   
    30   15   29 1   
    31   15   30 1   
    32   16   31 1   
    33   16   32 1   
    34   16   33 1   
    35   17   34 1   
    36   17   35 1   
    37   17   36 1   
    38   19   37 1   
@<TRIPOS>SUBSTRUCTURE
     1 N88         1 TEMP              0 ****  ****    0 ROOT
