@<TRIPOS>MOLECULE
N88
   38    38     1     0     0
SMALL
bcc


@<TRIPOS>ATOM
      1 C           0.7530    0.5600   -0.7460 c         1 N88      0.919600
      2 C1         -0.5430   -0.2210   -0.2210 c3        1 N88      0.024000
      3 O1          1.8250   -0.0690   -0.6550 o         1 N88     -0.798300
      4 C2         -0.7420    0.0700    1.2680 c3        1 N88     -0.110400
      5 O2          0.6020    1.7280   -1.2180 o         1 N88     -0.798300
      6 C3         -1.9760    0.9130    1.5590 c3        1 N88      0.119100
      7 O3         -1.9740    1.4370    2.8720 oh        1 N88     -0.588800
      8 C4         -2.0900    2.0570    0.5320 c3        1 N88      0.162300
      9 O4         -3.1290    2.9660    0.8270 oh        1 N88     -0.600800
     10 C5         -2.2450    1.4370   -0.8270 ce        1 N88     -0.295400
     11 C6         -1.6350    0.2640   -1.1060 c2        1 N88     -0.001200
     12 C13        -2.7790    2.2790   -1.8980 c         1 N88      0.614300
     13 N14        -1.6310    2.7800   -2.7660 ny        1 N88     -0.707800
     14 C15        -1.3890    4.2790   -2.7260 c3        1 N88      0.165200
     15 C16        -1.2080    4.7430   -1.2790 c3        1 N88     -0.127100
     16 C17        -0.0950    4.5740   -3.4970 c3        1 N88     -0.127100
     17 C18        -2.5470    5.0360   -3.3760 c3        1 N88     -0.127100
     18 O19        -3.9140    2.6110   -2.1990 o         1 N88     -0.446100
     19 O30        -0.3780   -1.6150   -0.4110 oh        1 N88     -0.607800
     20 H2          0.1710    0.5920    1.6610 hc        1 N88      0.073700
     21 H2A        -0.8330   -0.9040    1.8180 hc        1 N88      0.073700
     22 H3         -2.9080    0.2780    1.5240 h1        1 N88      0.083700
     23 HO3        -1.1610    1.9450    2.9840 ho        1 N88      0.408000
     24 H4         -1.1430    2.6790    0.5430 h1        1 N88      0.099700
     25 HO4        -3.8320    2.4800    1.2770 ho        1 N88      0.421000
     26 H6         -1.7730   -0.2850   -2.0510 ha        1 N88      0.144000
     27 HN14       -0.7480    2.3180   -2.4180 hn        1 N88      0.474300
     28 H16        -0.3300    4.2280   -0.8120 hc        1 N88      0.070589
     29 H16A       -1.0220    5.8430   -1.2790 hc        1 N88      0.070589
     30 H16B       -2.1230    4.5330   -0.6690 hc        1 N88      0.070589
     31 H17         0.7710    4.0270   -3.0440 hc        1 N88      0.070589
     32 H17A        0.1090    5.6700   -3.4360 hc        1 N88      0.070589
     33 H17B       -0.1910    4.2910   -4.5720 hc        1 N88      0.070589
     34 H18        -2.3210    6.1300   -3.3340 hc        1 N88      0.070589
     35 H18A       -3.5060    4.8510   -2.8340 hc        1 N88      0.070589
     36 H18B       -2.6710    4.7420   -4.4470 hc        1 N88      0.070589
     37 HO30        0.5800   -1.7850   -0.4200 ho        1 N88      0.443000
     38 H142       -1.8000    2.5160   -3.7360 hn        1 N88      0.474300
@<TRIPOS>BOND
     1    1    2 1   
     2    1    3 1   
     3    1    5 1   
     4    2    4 1   
     5    2   11 1   
     6    2   19 1   
     7    4    6 1   
     8    4   20 1   
     9    4   21 1   
    10    6    7 1   
    11    6    8 1   
    12    6   22 1   
    13    7   23 1   
    14    8    9 1   
    15    8   10 1   
    16    8   24 1   
    17    9   25 1   
    18   10   11 2   
    19   10   12 1   
    20   11   26 1   
    21   12   13 1   
    22   12   18 2   
    23   13   14 1   
    24   13   27 1   
    25   13   38 1   
    26   14   15 1   
    27   14   16 1   
    28   14   17 1   
    29   15   28 1   
    30   15   29 1   
    31   15   30 1   
    32   16   31 1   
    33   16   32 1   
    34   16   33 1   
    35   17   34 1   
    36   17   35 1   
    37   17   36 1   
    38   19   37 1   
@<TRIPOS>SUBSTRUCTURE
     1 N88         1 TEMP              0 ****  ****    0 ROOT
