@<TRIPOS>MOLECULE
N8C
   28    27     1     0     0
SMALL
bcc


@<TRIPOS>ATOM
      1 O1          0.0070   -0.1930    0.0210 o         1 N8C     -0.211500
      2 N1          1.2020   -0.0870    0.0390 no        1 N8C      0.229300
      3 O2          1.8350   -0.1040    1.0580 o         1 N8C     -0.211500
      4 C1          1.9550    0.0460   -1.2710 c3        1 N8C     -0.077700
      5 C2          1.3210    1.0440   -2.2240 c3        1 N8C     -0.094400
      6 C3          2.0630    1.0290   -3.5430 c3        1 N8C     -0.078400
      7 C4          1.4670    2.0320   -4.5080 c3        1 N8C     -0.078400
      8 C5          2.2010    2.0200   -5.8310 c3        1 N8C     -0.079400
      9 C6          1.6060    3.0230   -6.7960 c3        1 N8C     -0.079400
     10 C7          2.3390    3.0120   -8.1210 c3        1 N8C     -0.079400
     11 C8          1.7500    4.0100   -9.0850 c3        1 N8C     -0.093100
     12 H1          3.0070    0.3470   -1.0100 h1        1 N8C      0.094700
     13 H1A         1.9590   -0.9830   -1.7230 h1        1 N8C      0.094700
     14 H2          0.2400    0.7850   -2.3880 hc        1 N8C      0.070200
     15 H2A         1.3550    2.0740   -1.7800 hc        1 N8C      0.070200
     16 H3          3.1460    1.2690   -3.3730 hc        1 N8C      0.045200
     17 H3A         2.0160    0.0020   -3.9930 hc        1 N8C      0.045200
     18 H4          0.3830    1.7940   -4.6750 hc        1 N8C      0.045700
     19 H4A         1.5150    3.0600   -4.0600 hc        1 N8C      0.045700
     20 H5          3.2850    2.2560   -5.6630 hc        1 N8C      0.040700
     21 H5A         2.1520    0.9920   -6.2800 hc        1 N8C      0.040700
     22 H6          0.5220    2.7870   -6.9640 hc        1 N8C      0.041200
     23 H6A         1.6550    4.0510   -6.3490 hc        1 N8C      0.041200
     24 H7          2.2900    1.9840   -8.5670 hc        1 N8C      0.038700
     25 H7A         3.4230    3.2470   -7.9510 hc        1 N8C      0.038700
     26 H8          0.6760    3.7780   -9.2870 hc        1 N8C      0.033700
     27 H8A         2.3040    3.9860  -10.0550 hc        1 N8C      0.033700
     28 H8B         1.8130    5.0450   -8.6690 hc        1 N8C      0.033700
@<TRIPOS>BOND
     1    1    2 1   
     2    2    3 1   
     3    2    4 1   
     4    4    5 1   
     5    4   12 1   
     6    4   13 1   
     7    5    6 1   
     8    5   14 1   
     9    5   15 1   
    10    6    7 1   
    11    6   16 1   
    12    6   17 1   
    13    7    8 1   
    14    7   18 1   
    15    7   19 1   
    16    8    9 1   
    17    8   20 1   
    18    8   21 1   
    19    9   10 1   
    20    9   22 1   
    21    9   23 1   
    22   10   11 1   
    23   10   24 1   
    24   10   25 1   
    25   11   26 1   
    26   11   27 1   
    27   11   28 1   
@<TRIPOS>SUBSTRUCTURE
     1 N8C         1 TEMP              0 ****  ****    0 ROOT
