@<TRIPOS>MOLECULE
N8C
   28    27     1     0     0
SMALL
bcc


@<TRIPOS>ATOM
      1 O1          4.0910   -1.1710   -0.4810 o         1 N8C     -0.211500
      2 N1          3.9670   -0.0540   -0.0590 no        1 N8C      0.229300
      3 O2          4.8620    0.5310    0.4880 o         1 N8C     -0.211500
      4 C1          2.6460    0.6670   -0.2430 c3        1 N8C     -0.077700
      5 C2          1.4440   -0.1960    0.1010 c3        1 N8C     -0.094400
      6 C3          0.1700    0.5570   -0.2200 c3        1 N8C     -0.078400
      7 C4         -1.0470   -0.2700    0.1350 c3        1 N8C     -0.078400
      8 C5         -2.3250    0.4740   -0.1880 c3        1 N8C     -0.079400
      9 C6         -3.5430   -0.3520    0.1680 c3        1 N8C     -0.079400
     10 C7         -4.8230    0.3900   -0.1540 c3        1 N8C     -0.079400
     11 C8         -6.0390   -0.4280    0.1980 c3        1 N8C     -0.093100
     12 H1          2.6850    1.5850    0.4060 h1        1 N8C      0.094700
     13 H1A         2.6160    0.9720   -1.3250 h1        1 N8C      0.094700
     14 H2          1.4810   -1.1550   -0.4810 hc        1 N8C      0.070200
     15 H2A         1.4630   -0.4630    1.1910 hc        1 N8C      0.070200
     16 H3          0.1470    1.5240    0.3490 hc        1 N8C      0.045200
     17 H3A         0.1450    0.8120   -1.3120 hc        1 N8C      0.045200
     18 H4         -1.0210   -1.2390   -0.4300 hc        1 N8C      0.045700
     19 H4A        -1.0240   -0.5240    1.2280 hc        1 N8C      0.045700
     20 H5         -2.3500    1.4430    0.3770 hc        1 N8C      0.040700
     21 H5A        -2.3480    0.7270   -1.2800 hc        1 N8C      0.040700
     22 H6         -3.5190   -1.3210   -0.3970 hc        1 N8C      0.041200
     23 H6A        -3.5210   -0.6050    1.2600 hc        1 N8C      0.041200
     24 H7         -4.8450    1.3590    0.4100 hc        1 N8C      0.038700
     25 H7A        -4.8430    0.6430   -1.2470 hc        1 N8C      0.038700
     26 H8         -6.0470   -1.3880   -0.3740 hc        1 N8C      0.033700
     27 H8A        -6.0490   -0.6700    1.2880 hc        1 N8C      0.033700
     28 H8B        -6.9710    0.1360   -0.0480 hc        1 N8C      0.033700
@<TRIPOS>BOND
     1    1    2 1   
     2    2    3 1   
     3    2    4 1   
     4    4    5 1   
     5    4   12 1   
     6    4   13 1   
     7    5    6 1   
     8    5   14 1   
     9    5   15 1   
    10    6    7 1   
    11    6   16 1   
    12    6   17 1   
    13    7    8 1   
    14    7   18 1   
    15    7   19 1   
    16    8    9 1   
    17    8   20 1   
    18    8   21 1   
    19    9   10 1   
    20    9   22 1   
    21    9   23 1   
    22   10   11 1   
    23   10   24 1   
    24   10   25 1   
    25   11   26 1   
    26   11   27 1   
    27   11   28 1   
@<TRIPOS>SUBSTRUCTURE
     1 N8C         1 TEMP              0 ****  ****    0 ROOT
