@<TRIPOS>MOLECULE
N8E
   62    61     1     0     0
SMALL
bcc


@<TRIPOS>ATOM
      1 C01        -0.8130   -1.7390   12.8820 c3        1 N8E     -0.093100
      2 C02        -1.2440   -0.8370   11.7540 c3        1 N8E     -0.080400
      3 C03        -0.4000   -1.0520   10.5160 c3        1 N8E     -0.079400
      4 C04        -0.8360   -0.1440    9.3870 c3        1 N8E     -0.079400
      5 C05         0.0090   -0.3610    8.1500 c3        1 N8E     -0.078400
      6 C06        -0.4280    0.5470    7.0210 c3        1 N8E     -0.078400
      7 C07         0.4190    0.3280    5.7870 c3        1 N8E     -0.083400
      8 C08        -0.0310    1.2460    4.6640 c3        1 N8E      0.132400
      9 O09         0.8140    0.9710    3.5490 os        1 N8E     -0.428600
     10 C10         0.5040    1.7890    2.4230 c3        1 N8E      0.126400
     11 C11         1.3680    1.2850    1.2710 c3        1 N8E      0.127400
     12 O12         0.4790    0.6830    0.3330 os        1 N8E     -0.429600
     13 C13         1.1750    0.0170   -0.7190 c3        1 N8E      0.127400
     14 C14         0.1180   -0.4220   -1.7270 c3        1 N8E      0.127400
     15 O15         0.2540    0.4360   -2.8570 os        1 N8E     -0.429600
     16 C16        -0.7870    0.2410   -3.8120 c3        1 N8E      0.127400
     17 C17        -0.4240    1.0850   -5.0290 c3        1 N8E      0.127400
     18 O18         0.0040    0.1750   -6.0400 os        1 N8E     -0.428600
     19 C19         0.5360    0.8460   -7.1800 c3        1 N8E      0.127400
     20 C20         0.7900   -0.2270   -8.2340 c3        1 N8E      0.128400
     21 O21        -0.2190   -0.0650   -9.2290 os        1 N8E     -0.438600
     22 C22        -0.2060   -1.1180  -10.1910 c3        1 N8E      0.087400
     23 C23        -1.2890   -0.7750  -11.2090 c3        1 N8E      0.131400
     24 O24        -0.9670    0.3890  -11.9410 oh        1 N8E     -0.600800
     25 H011       -1.4480   -1.5630   13.7840 hc        1 N8E      0.032700
     26 H012       -0.9080   -2.8120   12.5860 hc        1 N8E      0.032700
     27 H013        0.2520   -1.5450   13.1570 hc        1 N8E      0.032700
     28 H021       -2.3220   -1.0280   11.5090 hc        1 N8E      0.038700
     29 H022       -1.1650    0.2350   12.0780 hc        1 N8E      0.038700
     30 H031        0.6780   -0.8590   10.7590 hc        1 N8E      0.039700
     31 H032       -0.4780   -2.1230   10.1900 hc        1 N8E      0.039700
     32 H041       -1.9150   -0.3370    9.1440 hc        1 N8E      0.039200
     33 H042       -0.7580    0.9270    9.7130 hc        1 N8E      0.039200
     34 H051        1.0870   -0.1680    8.3920 hc        1 N8E      0.041700
     35 H052       -0.0700   -1.4310    7.8230 hc        1 N8E      0.041700
     36 H061       -1.5060    0.3540    6.7780 hc        1 N8E      0.040200
     37 H062       -0.3490    1.6180    7.3470 hc        1 N8E      0.040200
     38 H071        1.4980    0.5240    6.0170 hc        1 N8E      0.054700
     39 H072        0.3410   -0.7380    5.4470 hc        1 N8E      0.054700
     40 H081       -1.1000    1.0460    4.3850 h1        1 N8E      0.025700
     41 H082        0.0730    2.3240    4.9590 h1        1 N8E      0.025700
     42 H101       -0.5860    1.7050    2.1690 h1        1 N8E      0.042200
     43 H102        0.7520    2.8560    2.6630 h1        1 N8E      0.042200
     44 H111        1.9010    2.1390    0.7770 h1        1 N8E      0.043200
     45 H112        2.1170    0.5330    1.6350 h1        1 N8E      0.043200
     46 H131        1.9160    0.7130   -1.1960 h1        1 N8E      0.043700
     47 H132        1.7100   -0.8750   -0.2990 h1        1 N8E      0.043700
     48 H141        0.2990   -1.4830   -2.0460 h1        1 N8E      0.043700
     49 H142       -0.9120   -0.3300   -1.2900 h1        1 N8E      0.043700
     50 H161       -0.8630   -0.8440   -4.0880 h1        1 N8E      0.043700
     51 H162       -1.7600    0.5880   -3.3720 h1        1 N8E      0.043700
     52 H171       -1.3220    1.6480   -5.3970 h1        1 N8E      0.044200
     53 H172        0.4000    1.8070   -4.7810 h1        1 N8E      0.044200
     54 H191       -0.1940    1.6110   -7.5560 h1        1 N8E      0.043200
     55 H192        1.4980    1.3500   -6.8960 h1        1 N8E      0.043200
     56 H201        1.7970   -0.0820   -8.7070 h1        1 N8E      0.045200
     57 H202        0.7280   -1.2520   -7.7810 h1        1 N8E      0.045200
     58 H221        0.8010   -1.1670  -10.6830 h1        1 N8E      0.039200
     59 H222       -0.4310   -2.0950   -9.6900 h1        1 N8E      0.039200
     60 H231       -1.3630   -1.5910  -11.9750 h1        1 N8E      0.053200
     61 H232       -2.2760   -0.6440  -10.6900 h1        1 N8E      0.053200
     62 H24        -0.8320    1.0970  -11.2970 ho        1 N8E      0.412000
@<TRIPOS>BOND
     1    1    2 1   
     2    1   25 1   
     3    1   26 1   
     4    1   27 1   
     5    2    3 1   
     6    2   28 1   
     7    2   29 1   
     8    3    4 1   
     9    3   30 1   
    10    3   31 1   
    11    4    5 1   
    12    4   32 1   
    13    4   33 1   
    14    5    6 1   
    15    5   34 1   
    16    5   35 1   
    17    6    7 1   
    18    6   36 1   
    19    6   37 1   
    20    7    8 1   
    21    7   38 1   
    22    7   39 1   
    23    8    9 1   
    24    8   40 1   
    25    8   41 1   
    26    9   10 1   
    27   10   11 1   
    28   10   42 1   
    29   10   43 1   
    30   11   12 1   
    31   11   44 1   
    32   11   45 1   
    33   12   13 1   
    34   13   14 1   
    35   13   46 1   
    36   13   47 1   
    37   14   15 1   
    38   14   48 1   
    39   14   49 1   
    40   15   16 1   
    41   16   17 1   
    42   16   50 1   
    43   16   51 1   
    44   17   18 1   
    45   17   52 1   
    46   17   53 1   
    47   18   19 1   
    48   19   20 1   
    49   19   54 1   
    50   19   55 1   
    51   20   21 1   
    52   20   56 1   
    53   20   57 1   
    54   21   22 1   
    55   22   23 1   
    56   22   58 1   
    57   22   59 1   
    58   23   24 1   
    59   23   60 1   
    60   23   61 1   
    61   24   62 1   
@<TRIPOS>SUBSTRUCTURE
     1 N8E         1 TEMP              0 ****  ****    0 ROOT
