@<TRIPOS>MOLECULE
N8E
   62    61     1     0     0
SMALL
bcc


@<TRIPOS>ATOM
      1 C01        -1.2480    2.2130    0.7790 c3        1 N8E     -0.093100
      2 C02        -0.0540    1.3190    0.5620 c3        1 N8E     -0.080400
      3 C03         0.9830    1.5040    1.6490 c3        1 N8E     -0.079400
      4 C04         2.1800    0.6040    1.4280 c3        1 N8E     -0.079400
      5 C05         3.2160    0.7910    2.5150 c3        1 N8E     -0.078400
      6 C06         4.4130   -0.1100    2.2940 c3        1 N8E     -0.078400
      7 C07         5.4460    0.0810    3.3820 c3        1 N8E     -0.083400
      8 C08         6.6390   -0.8280    3.1450 c3        1 N8E      0.132400
      9 O09         7.5550   -0.5850    4.2110 os        1 N8E     -0.428600
     10 C10         8.7390   -1.3710    4.0940 c3        1 N8E      0.126400
     11 C11         9.5470   -1.1270    5.3640 c3        1 N8E      0.127400
     12 O12         9.5210   -2.3490    6.1010 os        1 N8E     -0.429600
     13 C13        10.0990   -2.2100    7.3970 c3        1 N8E      0.127400
     14 C14        10.1620   -3.6110    7.9950 c3        1 N8E      0.127400
     15 O15        11.5340   -4.0000    7.9730 os        1 N8E     -0.429600
     16 C16        11.7160   -5.3620    8.3530 c3        1 N8E      0.127400
     17 C17        13.2210   -5.5880    8.4520 c3        1 N8E      0.127400
     18 O18        13.5270   -5.6720    9.8430 os        1 N8E     -0.428600
     19 C19        14.9310   -5.7130   10.0850 c3        1 N8E      0.127400
     20 C20        15.1060   -5.9730   11.5770 c3        1 N8E      0.128400
     21 O21        15.5470   -7.3240   11.7050 os        1 N8E     -0.438600
     22 C22        15.5840   -7.7570   13.0630 c3        1 N8E      0.087400
     23 C23        16.1250   -9.1820   13.0390 c3        1 N8E      0.131400
     24 O24        17.4700   -9.2210   12.6100 oh        1 N8E     -0.600800
     25 H011       -0.9410    3.2870    0.7790 hc        1 N8E      0.032700
     26 H012       -1.9990    2.0600   -0.0330 hc        1 N8E      0.032700
     27 H013       -1.7360    1.9890    1.7580 hc        1 N8E      0.032700
     28 H021        0.4070    1.5410   -0.4360 hc        1 N8E      0.038700
     29 H022       -0.3850    0.2470    0.5410 hc        1 N8E      0.038700
     30 H031        0.5240    1.2810    2.6480 hc        1 N8E      0.039700
     31 H032        1.3170    2.5750    1.6710 hc        1 N8E      0.039700
     32 H041        2.6390    0.8270    0.4290 hc        1 N8E      0.039200
     33 H042        1.8460   -0.4670    1.4070 hc        1 N8E      0.039200
     34 H051        3.5500    1.8620    2.5370 hc        1 N8E      0.041700
     35 H052        2.7580    0.5680    3.5150 hc        1 N8E      0.041700
     36 H061        4.0780   -1.1810    2.2730 hc        1 N8E      0.040200
     37 H062        4.8710    0.1140    1.2940 hc        1 N8E      0.040200
     38 H071        5.7910    1.1470    3.4070 hc        1 N8E      0.054700
     39 H072        5.0000   -0.1470    4.3850 hc        1 N8E      0.054700
     40 H081        7.1330   -0.5980    2.1640 h1        1 N8E      0.025700
     41 H082        6.3300   -1.9080    3.1530 h1        1 N8E      0.025700
     42 H101        9.3160   -1.0370    3.1910 h1        1 N8E      0.042200
     43 H102        8.4760   -2.4580    3.9910 h1        1 N8E      0.042200
     44 H111       10.6100   -0.8730    5.1120 h1        1 N8E      0.043200
     45 H112        9.0940   -0.2980    5.9710 h1        1 N8E      0.043200
     46 H131       11.1250   -1.7630    7.3190 h1        1 N8E      0.043700
     47 H132        9.4450   -1.5470    8.0230 h1        1 N8E      0.043700
     48 H141        9.8000   -3.6000    9.0570 h1        1 N8E      0.043700
     49 H142        9.5450   -4.3300    7.3930 h1        1 N8E      0.043700
     50 H161       11.2720   -6.0270    7.5650 h1        1 N8E      0.043700
     51 H162       11.2170   -5.5600    9.3390 h1        1 N8E      0.043700
     52 H171       13.5060   -6.5510    7.9540 h1        1 N8E      0.044200
     53 H172       13.7820   -4.7380    7.9810 h1        1 N8E      0.044200
     54 H191       15.4060   -6.5300    9.4790 h1        1 N8E      0.043200
     55 H192       15.3830   -4.7250    9.8050 h1        1 N8E      0.043200
     56 H201       15.8860   -5.2910   12.0060 h1        1 N8E      0.045200
     57 H202       14.1360   -5.8290   12.1230 h1        1 N8E      0.045200
     58 H221       16.2580   -7.0840   13.6560 h1        1 N8E      0.039200
     59 H222       14.5500   -7.7340   13.4980 h1        1 N8E      0.039200
     60 H231       16.1380   -9.6010   14.0800 h1        1 N8E      0.053200
     61 H232       15.4890   -9.8230   12.3740 h1        1 N8E      0.053200
     62 H24        17.4990   -8.8040   11.7390 ho        1 N8E      0.412000
@<TRIPOS>BOND
     1    1    2 1   
     2    1   25 1   
     3    1   26 1   
     4    1   27 1   
     5    2    3 1   
     6    2   28 1   
     7    2   29 1   
     8    3    4 1   
     9    3   30 1   
    10    3   31 1   
    11    4    5 1   
    12    4   32 1   
    13    4   33 1   
    14    5    6 1   
    15    5   34 1   
    16    5   35 1   
    17    6    7 1   
    18    6   36 1   
    19    6   37 1   
    20    7    8 1   
    21    7   38 1   
    22    7   39 1   
    23    8    9 1   
    24    8   40 1   
    25    8   41 1   
    26    9   10 1   
    27   10   11 1   
    28   10   42 1   
    29   10   43 1   
    30   11   12 1   
    31   11   44 1   
    32   11   45 1   
    33   12   13 1   
    34   13   14 1   
    35   13   46 1   
    36   13   47 1   
    37   14   15 1   
    38   14   48 1   
    39   14   49 1   
    40   15   16 1   
    41   16   17 1   
    42   16   50 1   
    43   16   51 1   
    44   17   18 1   
    45   17   52 1   
    46   17   53 1   
    47   18   19 1   
    48   19   20 1   
    49   19   54 1   
    50   19   55 1   
    51   20   21 1   
    52   20   56 1   
    53   20   57 1   
    54   21   22 1   
    55   22   23 1   
    56   22   58 1   
    57   22   59 1   
    58   23   24 1   
    59   23   60 1   
    60   23   61 1   
    61   24   62 1   
@<TRIPOS>SUBSTRUCTURE
     1 N8E         1 TEMP              0 ****  ****    0 ROOT
