@<TRIPOS>MOLECULE
N8E
   62    61     1     0     0
SMALL
bcc


@<TRIPOS>ATOM
      1 C01        -1.2870    2.1170    0.7770 c3        1 N8E     -0.093100
      2 C02        -0.0760    1.2480    0.5550 c3        1 N8E     -0.080400
      3 C03         0.9520    1.4360    1.6510 c3        1 N8E     -0.079400
      4 C04         2.1660    0.5610    1.4240 c3        1 N8E     -0.079400
      5 C05         3.1920    0.7510    2.5210 c3        1 N8E     -0.078400
      6 C06         4.4050   -0.1240    2.2930 c3        1 N8E     -0.078400
      7 C07         5.4280    0.0680    3.3910 c3        1 N8E     -0.083400
      8 C08         6.6390   -0.8160    3.1490 c3        1 N8E      0.132400
      9 O09         7.5430   -0.5720    4.2250 os        1 N8E     -0.428600
     10 C10         8.7420   -1.3360    4.1040 c3        1 N8E      0.126400
     11 C11         9.5360   -1.0980    5.3850 c3        1 N8E      0.127400
     12 O12         9.5230   -2.3300    6.1030 os        1 N8E     -0.429600
     13 C13        10.0880   -2.2010    7.4060 c3        1 N8E      0.127400
     14 C14        10.1680   -3.6100    7.9840 c3        1 N8E      0.127400
     15 O15        11.5470   -3.9760    7.9700 os        1 N8E     -0.429600
     16 C16        11.7460   -5.3400    8.3330 c3        1 N8E      0.127400
     17 C17        13.2540   -5.5430    8.4460 c3        1 N8E      0.127400
     18 O18        13.5460   -5.6400    9.8380 os        1 N8E     -0.428600
     19 C19        14.9480   -5.6630   10.0950 c3        1 N8E      0.127400
     20 C20        15.1110   -5.9390   11.5860 c3        1 N8E      0.128400
     21 O21        15.5710   -7.2840   11.7030 os        1 N8E     -0.438600
     22 C22        15.5990   -7.7330   13.0560 c3        1 N8E      0.087400
     23 C23        16.1630   -9.1500   13.0200 c3        1 N8E      0.131400
     24 O24        17.5130   -9.1630   12.6060 oh        1 N8E     -0.600800
     25 H011       -1.0000    3.1960    0.7930 hc        1 N8E      0.032700
     26 H012       -2.0310    1.9630   -0.0420 hc        1 N8E      0.032700
     27 H013       -1.7760    1.8710    1.7500 hc        1 N8E      0.032700
     28 H021        0.3870    1.4930   -0.4370 hc        1 N8E      0.038700
     29 H022       -0.3880    0.1700    0.5160 hc        1 N8E      0.038700
     30 H031        0.4900    1.1900    2.6440 hc        1 N8E      0.039700
     31 H032        1.2650    2.5130    1.6900 hc        1 N8E      0.039700
     32 H041        2.6260    0.8070    0.4310 hc        1 N8E      0.039200
     33 H042        1.8510   -0.5150    1.3850 hc        1 N8E      0.039200
     34 H051        3.5060    1.8270    2.5600 hc        1 N8E      0.041700
     35 H052        2.7310    0.5050    3.5140 hc        1 N8E      0.041700
     36 H061        4.0910   -1.2010    2.2550 hc        1 N8E      0.040200
     37 H062        4.8660    0.1220    1.3000 hc        1 N8E      0.040200
     38 H071        5.7540    1.1400    3.4340 hc        1 N8E      0.054700
     39 H072        4.9800   -0.1820    4.3880 hc        1 N8E      0.054700
     40 H081        7.1350   -0.5610    2.1750 h1        1 N8E      0.025700
     41 H082        6.3500   -1.9010    3.1380 h1        1 N8E      0.025700
     42 H101        9.3190   -0.9780    3.2120 h1        1 N8E      0.042200
     43 H102        8.4990   -2.4250    3.9820 h1        1 N8E      0.042200
     44 H111       10.5970   -0.8230    5.1440 h1        1 N8E      0.043200
     45 H112        9.0660   -0.2840    5.9990 h1        1 N8E      0.043200
     46 H131       11.1090   -1.7370    7.3430 h1        1 N8E      0.043700
     47 H132        9.4190   -1.5570    8.0350 h1        1 N8E      0.043700
     48 H141        9.7960   -3.6200    9.0430 h1        1 N8E      0.043700
     49 H142        9.5690   -4.3290    7.3660 h1        1 N8E      0.043700
     50 H161       11.3220   -6.0010    7.5310 h1        1 N8E      0.043700
     51 H162       11.2400   -5.5610    9.3100 h1        1 N8E      0.043700
     52 H171       13.5590   -6.4960    7.9390 h1        1 N8E      0.044200
     53 H172       13.8060   -4.6780    7.9920 h1        1 N8E      0.044200
     54 H191       15.4420   -6.4650    9.4850 h1        1 N8E      0.043200
     55 H192       15.3880   -4.6640    9.8330 h1        1 N8E      0.043200
     56 H201       15.8760   -5.2500   12.0320 h1        1 N8E      0.045200
     57 H202       14.1330   -5.8150   12.1230 h1        1 N8E      0.045200
     58 H221       16.2570   -7.0580   13.6640 h1        1 N8E      0.039200
     59 H222       14.5610   -7.7320   13.4790 h1        1 N8E      0.039200
     60 H231       16.1710   -9.5820   14.0560 h1        1 N8E      0.053200
     61 H232       15.5430   -9.7920   12.3400 h1        1 N8E      0.053200
     62 H24        17.5450   -8.7350   11.7400 ho        1 N8E      0.412000
@<TRIPOS>BOND
     1    1    2 1   
     2    1   25 1   
     3    1   26 1   
     4    1   27 1   
     5    2    3 1   
     6    2   28 1   
     7    2   29 1   
     8    3    4 1   
     9    3   30 1   
    10    3   31 1   
    11    4    5 1   
    12    4   32 1   
    13    4   33 1   
    14    5    6 1   
    15    5   34 1   
    16    5   35 1   
    17    6    7 1   
    18    6   36 1   
    19    6   37 1   
    20    7    8 1   
    21    7   38 1   
    22    7   39 1   
    23    8    9 1   
    24    8   40 1   
    25    8   41 1   
    26    9   10 1   
    27   10   11 1   
    28   10   42 1   
    29   10   43 1   
    30   11   12 1   
    31   11   44 1   
    32   11   45 1   
    33   12   13 1   
    34   13   14 1   
    35   13   46 1   
    36   13   47 1   
    37   14   15 1   
    38   14   48 1   
    39   14   49 1   
    40   15   16 1   
    41   16   17 1   
    42   16   50 1   
    43   16   51 1   
    44   17   18 1   
    45   17   52 1   
    46   17   53 1   
    47   18   19 1   
    48   19   20 1   
    49   19   54 1   
    50   19   55 1   
    51   20   21 1   
    52   20   56 1   
    53   20   57 1   
    54   21   22 1   
    55   22   23 1   
    56   22   58 1   
    57   22   59 1   
    58   23   24 1   
    59   23   60 1   
    60   23   61 1   
    61   24   62 1   
@<TRIPOS>SUBSTRUCTURE
     1 N8E         1 TEMP              0 ****  ****    0 ROOT
