@<TRIPOS>MOLECULE
N8M
   43    45     1     0     0
SMALL
bcc


@<TRIPOS>ATOM
      1 CG          0.5730    0.3090    0.6400 c3        1 N8M      0.080100
      2 N2          2.0270    0.0460    0.4850 n4        1 N8M     -0.671400
      3 CE          2.6890   -0.0510    1.8150 c3        1 N8M      0.080100
      4 C5'         2.2660   -1.1870   -0.3380 c3        1 N8M      0.096800
      5 C4'         3.5430   -1.0890   -1.1830 c3        1 N8M      0.079100
      6 O4'         4.6490   -0.8500   -0.3240 os        1 N8M     -0.455600
      7 C1'         5.7640   -1.7390   -0.6280 c3        1 N8M      0.231800
      8 N9          6.2310   -2.3750    0.5650 na        1 N8M     -0.294000
      9 C4          7.2310   -1.7940    1.3820 ca        1 N8M      0.471800
     10 N3          8.0680   -0.7470    1.1400 nb        1 N8M     -0.749000
     11 C2          8.9320   -0.5220    2.1660 ca        1 N8M      0.704900
     12 N1          9.0650   -1.1670    3.3490 nb        1 N8M     -0.777000
     13 C6          8.2160   -2.2250    3.6050 ca        1 N8M      0.772200
     14 N6          8.2770   -2.9060    4.7860 nh        1 N8M     -0.940500
     15 C5          7.2430   -2.5760    2.6060 ca        1 N8M     -0.243200
     16 N7          6.2590   -3.5710    2.5510 nc        1 N8M     -0.511100
     17 C8          5.6570   -3.4310    1.3570 cd        1 N8M      0.382800
     18 C2'         5.2960   -2.6840   -1.7800 c3        1 N8M      0.086100
     19 O2'         5.9620   -2.2900   -2.9610 oh        1 N8M     -0.592800
     20 C3'         3.7910   -2.3920   -1.9790 c3        1 N8M      0.135100
     21 O3'         3.3840   -2.2500   -3.3110 oh        1 N8M     -0.571800
     22 C9          4.5720   -4.3180    0.8620 c3        1 N8M     -0.110400
     23 HG          0.1120    0.4830   -0.3690 hx        1 N8M      0.108200
     24 HGA         0.0830   -0.5730    1.1320 hx        1 N8M      0.108200
     25 HGB         0.4280    1.2220    1.2800 hx        1 N8M      0.108200
     26 HE          2.2200   -0.8780    2.4100 hx        1 N8M      0.108200
     27 HEA         3.7850   -0.2650    1.6630 hx        1 N8M      0.108200
     28 HEB         2.5650    0.9230    2.3590 hx        1 N8M      0.108200
     29 H5'         1.3960   -1.3300   -1.0420 hx        1 N8M      0.111200
     30 H5'A        2.3230   -2.0680    0.3620 hx        1 N8M      0.111200
     31 H4'         3.4760   -0.2170   -1.8950 h1        1 N8M      0.088700
     32 H1'         6.5820   -1.0500   -1.0130 h2        1 N8M      0.144700
     33 H2          9.6420    0.3220    2.0110 h5        1 N8M      0.066100
     34 HN6         8.9900   -2.7070    5.4460 hn        1 N8M      0.456800
     35 HN6A        7.7200   -3.7170    4.9020 hn        1 N8M      0.456800
     36 H2'         5.4680   -3.7670   -1.5490 h1        1 N8M      0.092700
     37 HO2'        6.7290   -2.8670   -3.0770 ho        1 N8M      0.445000
     38 H3'         3.1680   -3.2410   -1.5780 h1        1 N8M      0.091700
     39 HO3'        4.0900   -1.8200   -3.8190 ho        1 N8M      0.446000
     40 H9          4.1100   -4.8750    1.7170 hc        1 N8M      0.059367
     41 H9A         3.7780   -3.7220    0.3500 hc        1 N8M      0.059367
     42 H9B         4.9910   -5.0690    0.1450 hc        1 N8M      0.059367
     43 H21         2.4520    0.8410   -0.0150 hn        1 N8M      0.456800
@<TRIPOS>BOND
     1    1    2 1   
     2    1   23 1   
     3    1   24 1   
     4    1   25 1   
     5    2    3 1   
     6    2    4 1   
     7    2   43 1   
     8    3   26 1   
     9    3   27 1   
    10    3   28 1   
    11    4    5 1   
    12    4   29 1   
    13    4   30 1   
    14    5    6 1   
    15    5   20 1   
    16    5   31 1   
    17    6    7 1   
    18    7    8 1   
    19    7   18 1   
    20    7   32 1   
    21    8    9 1   
    22    8   17 1   
    23    9   10 ar  
    24    9   15 ar  
    25   10   11 ar  
    26   11   12 ar  
    27   11   33 1   
    28   12   13 ar  
    29   13   14 1   
    30   13   15 ar  
    31   14   34 1   
    32   14   35 1   
    33   15   16 1   
    34   16   17 2   
    35   17   22 1   
    36   18   19 1   
    37   18   20 1   
    38   18   36 1   
    39   19   37 1   
    40   20   21 1   
    41   20   38 1   
    42   21   39 1   
    43   22   40 1   
    44   22   41 1   
    45   22   42 1   
@<TRIPOS>SUBSTRUCTURE
     1 N8M         1 TEMP              0 ****  ****    0 ROOT
