@<TRIPOS>MOLECULE
N8M
   44    46     1     0     0
SMALL
bcc


@<TRIPOS>ATOM
      1 CG         -0.0010    0.0680    0.0800 c3        1 N8M      0.079100
      2 N2          1.4870    0.1350    0.1010 n4        1 N8M     -0.675400
      3 CE          1.9790    0.4200    1.4760 c3        1 N8M      0.079100
      4 C5'         2.0780   -1.1290   -0.4480 c3        1 N8M      0.103800
      5 C4'         3.5170   -0.9610   -0.9430 c3        1 N8M      0.111100
      6 O4'         4.3960   -0.9560    0.1860 os        1 N8M     -0.446600
      7 C1'         5.6620   -1.5670   -0.1900 c3        1 N8M      0.219800
      8 N9          6.2470   -2.2130    0.9550 na        1 N8M     -0.267000
      9 C4          7.4510   -1.7990    1.5590 ca        1 N8M      0.466800
     10 N3          8.2830   -0.7610    1.3010 nb        1 N8M     -0.627000
     11 C2          9.3770   -0.7150    2.1070 ca        1 N8M      0.687900
     12 N1          9.7270   -1.5680    3.1120 nb        1 N8M     -0.663000
     13 C6          8.8860   -2.6030    3.3620 ca        1 N8M      0.532200
     14 N6          9.2280   -3.5690    4.4220 n4        1 N8M     -0.817300
     15 C5          7.7000   -2.7890    2.6250 ca        1 N8M     -0.127200
     16 N7          6.6700   -3.7300    2.6590 nc        1 N8M     -0.572100
     17 C8          5.8200   -3.3750    1.6670 cd        1 N8M      0.510800
     18 C2'         5.3660   -2.5040   -1.4100 c3        1 N8M      0.084100
     19 O2'         6.3230   -2.3290   -2.4160 oh        1 N8M     -0.549800
     20 C3'         3.9410   -2.1230   -1.8680 c3        1 N8M      0.089100
     21 O3'         3.9490   -1.6010   -3.1780 oh        1 N8M     -0.586800
     22 C9          4.5750   -4.1170    1.3270 c3        1 N8M     -0.134400
     23 HG         -0.4180    1.0130    0.5240 hx        1 N8M      0.112200
     24 HGA        -0.3460   -0.8130    0.6840 hx        1 N8M      0.112200
     25 HGB        -0.3580   -0.0360   -0.9800 hx        1 N8M      0.112200
     26 HE          1.5930   -0.3620    2.1820 hx        1 N8M      0.112200
     27 HEA         1.6090    1.4310    1.7980 hx        1 N8M      0.112200
     28 HEB         3.1040    0.4070    1.4760 hx        1 N8M      0.112200
     29 H5'         2.0340   -1.9150    0.3590 hx        1 N8M      0.118200
     30 H5'A        1.4450   -1.4550   -1.3250 hx        1 N8M      0.118200
     31 H4'         3.6550    0.0170   -1.4930 h1        1 N8M      0.102700
     32 H1'         6.3480   -0.7210   -0.5090 h2        1 N8M      0.131700
     33 H2         10.0890    0.1270    1.9250 h5        1 N8M      0.112100
     34 HN6         9.4910   -4.4610    3.9830 hn        1 N8M      0.484467
     35 HN6A        8.4010   -3.7150    5.0160 hn        1 N8M      0.484467
     36 H2'         5.4320   -3.5940   -1.1380 h1        1 N8M      0.116700
     37 HO2'        6.1980   -1.4560   -2.8230 ho        1 N8M      0.433000
     38 H3'         3.2460   -3.0000   -1.7890 h1        1 N8M      0.077700
     39 HO3'        4.1910   -2.3210   -3.7810 ho        1 N8M      0.455000
     40 H9          4.0660   -4.4580    2.2650 hc        1 N8M      0.085367
     41 H9A         3.8720   -3.4730    0.7420 hc        1 N8M      0.085367
     42 H9B         4.8390   -5.0240    0.7220 hc        1 N8M      0.085367
     43 H21         1.7800    0.9140   -0.5080 hn        1 N8M      0.457800
     44 H63        10.0130   -3.2280    4.9970 hn        1 N8M      0.484467
@<TRIPOS>BOND
     1    1    2 1   
     2    1   23 1   
     3    1   24 1   
     4    1   25 1   
     5    2    3 1   
     6    2    4 1   
     7    2   43 1   
     8    3   26 1   
     9    3   27 1   
    10    3   28 1   
    11    4    5 1   
    12    4   29 1   
    13    4   30 1   
    14    5    6 1   
    15    5   20 1   
    16    5   31 1   
    17    6    7 1   
    18    7    8 1   
    19    7   18 1   
    20    7   32 1   
    21    8    9 1   
    22    8   17 1   
    23    9   10 ar  
    24    9   15 ar  
    25   10   11 ar  
    26   11   12 ar  
    27   11   33 1   
    28   12   13 ar  
    29   13   14 1   
    30   13   15 ar  
    31   14   34 1   
    32   14   35 1   
    33   14   44 1   
    34   15   16 1   
    35   16   17 2   
    36   17   22 1   
    37   18   19 1   
    38   18   20 1   
    39   18   36 1   
    40   19   37 1   
    41   20   21 1   
    42   20   38 1   
    43   21   39 1   
    44   22   40 1   
    45   22   41 1   
    46   22   42 1   
@<TRIPOS>SUBSTRUCTURE
     1 N8M         1 TEMP              0 ****  ****    0 ROOT
