@<TRIPOS>MOLECULE
N8M
   43    45     1     0     0
SMALL
bcc


@<TRIPOS>ATOM
      1 CG          0.5820    0.3300    0.6390 c3        1 N8M      0.080100
      2 N2          2.0340    0.0600    0.4870 nx        1 N8M     -0.671400
      3 CE          2.6930   -0.0490    1.8180 c3        1 N8M      0.080100
      4 C5'         2.2690   -1.1700   -0.3430 c3        1 N8M      0.096800
      5 C4'         3.5500   -1.0740   -1.1830 c3        1 N8M      0.079100
      6 O4'         4.6540   -0.8460   -0.3200 os        1 N8M     -0.455600
      7 C1'         5.7650   -1.7380   -0.6270 c3        1 N8M      0.231800
      8 N9          6.2270   -2.3820    0.5640 na        1 N8M     -0.294000
      9 C4          7.2280   -1.8110    1.3870 ca        1 N8M      0.471800
     10 N3          8.0710   -0.7670    1.1520 nb        1 N8M     -0.749000
     11 C2          8.9330   -0.5530    2.1810 ca        1 N8M      0.704900
     12 N1          9.0610   -1.2050    3.3610 nb        1 N8M     -0.777000
     13 C6          8.2050   -2.2590    3.6100 ca        1 N8M      0.772200
     14 N6          8.2590   -2.9460    4.7880 nv        1 N8M     -0.940500
     15 C5          7.2330   -2.5990    2.6070 ca        1 N8M     -0.243200
     16 N7          6.2440   -3.5890    2.5440 nc        1 N8M     -0.511100
     17 C8          5.6450   -3.4390    1.3490 cd        1 N8M      0.382800
     18 C2'         5.2960   -2.6750   -1.7840 c3        1 N8M      0.086100
     19 O2'         5.9670   -2.2780   -2.9620 oh        1 N8M     -0.592800
     20 C3'         3.7930   -2.3740   -1.9860 c3        1 N8M      0.135100
     21 O3'         3.3900   -2.2230   -3.3180 oh        1 N8M     -0.571800
     22 C9          4.5570   -4.3190    0.8470 c3        1 N8M     -0.109400
     23 HG          0.4400    1.2400    1.2840 hx        1 N8M      0.108200
     24 HGA         0.1250    0.5120   -0.3700 hx        1 N8M      0.108200
     25 HGB         0.0850   -0.5520    1.1240 hx        1 N8M      0.108200
     26 HE          2.2180   -0.8760    2.4070 hx        1 N8M      0.108200
     27 HEA         2.5720    0.9230    2.3670 hx        1 N8M      0.108200
     28 HEB         3.7880   -0.2680    1.6680 hx        1 N8M      0.108200
     29 H5'         2.3200   -2.0550    0.3520 hx        1 N8M      0.111200
     30 H5'A        1.4010   -1.3040   -1.0500 hx        1 N8M      0.111200
     31 H4'         3.4890   -0.1970   -1.8910 h1        1 N8M      0.088700
     32 H1'         6.5880   -1.0500   -1.0060 h2        1 N8M      0.144700
     33 H2          9.6480    0.2880    2.0320 h5        1 N8M      0.066100
     34 HN6         8.9720   -2.7550    5.4500 hn        1 N8M      0.456800
     35 HN6A        7.6970   -3.7550    4.8980 hn        1 N8M      0.456800
     36 H2'         5.4620   -3.7600   -1.5590 h1        1 N8M      0.092700
     37 HO2'        6.7310   -2.8580   -3.0790 ho        1 N8M      0.445000
     38 H3'         3.1650   -3.2210   -1.5910 h1        1 N8M      0.091700
     39 HO3'        4.0990   -1.7930   -3.8220 ho        1 N8M      0.446000
     40 H9          3.7670   -3.7160    0.3360 hc        1 N8M      0.059367
     41 H9A         4.0890   -4.8770    1.6980 hc        1 N8M      0.059367
     42 H9B         4.9730   -5.0690    0.1280 hc        1 N8M      0.059367
     43 H21         2.4660    0.8550   -0.0080 hn        1 N8M      0.456800
@<TRIPOS>BOND
     1    1    2 1   
     2    1   23 1   
     3    1   24 1   
     4    1   25 1   
     5    2    3 1   
     6    2    4 1   
     7    2   43 1   
     8    3   26 1   
     9    3   27 1   
    10    3   28 1   
    11    4    5 1   
    12    4   29 1   
    13    4   30 1   
    14    5    6 1   
    15    5   20 1   
    16    5   31 1   
    17    6    7 1   
    18    7    8 1   
    19    7   18 1   
    20    7   32 1   
    21    8    9 1   
    22    8   17 1   
    23    9   10 ar  
    24    9   15 ar  
    25   10   11 ar  
    26   11   12 ar  
    27   11   33 1   
    28   12   13 ar  
    29   13   14 1   
    30   13   15 ar  
    31   14   34 1   
    32   14   35 1   
    33   15   16 1   
    34   16   17 2   
    35   17   22 1   
    36   18   19 1   
    37   18   20 1   
    38   18   36 1   
    39   19   37 1   
    40   20   21 1   
    41   20   38 1   
    42   21   39 1   
    43   22   40 1   
    44   22   41 1   
    45   22   42 1   
@<TRIPOS>SUBSTRUCTURE
     1 N8M         1 TEMP              0 ****  ****    0 ROOT
