@<TRIPOS>MOLECULE
N8M
   42    44     1     0     0
SMALL
bcc


@<TRIPOS>ATOM
      1 CG          5.1120    2.2570    0.3210 c3        1 N8M      0.154600
      2 N2          4.0430    1.4100    0.8030 n3        1 N8M     -0.739600
      3 CE          3.1120    2.1120    1.6570 c3        1 N8M      0.154600
      4 C5'         3.4050    0.6610   -0.2670 c3        1 N8M      0.170800
      5 C4'         2.6300   -0.5690    0.2340 c3        1 N8M      0.106100
      6 O4'         1.3390   -0.1480    0.6940 os        1 N8M     -0.422600
      7 C1'         0.2950   -1.0160    0.2130 c3        1 N8M      0.255800
      8 N9         -0.8190   -0.2360   -0.2640 na        1 N8M     -0.271000
      9 C4         -2.0860   -0.2250    0.3490 ca        1 N8M      0.469800
     10 N3         -2.5850   -0.9620    1.3870 nb        1 N8M     -0.732000
     11 C2         -3.8750   -0.6630    1.6660 ca        1 N8M      0.686900
     12 N1         -4.7160    0.2300    1.0800 nb        1 N8M     -0.794000
     13 C6         -4.2250    0.9680    0.0280 ca        1 N8M      0.758200
     14 N6         -5.0240    1.8560   -0.6450 nh        1 N8M     -0.957500
     15 C5         -2.8620    0.7690   -0.3770 ca        1 N8M     -0.226200
     16 N7         -2.0760    1.3580   -1.3740 nc        1 N8M     -0.548100
     17 C8         -0.8680    0.7650   -1.2840 cd        1 N8M      0.416800
     18 C2'         0.9260   -1.9610   -0.8560 c3        1 N8M      0.069100
     19 O2'         0.7260   -3.2780   -0.3790 oh        1 N8M     -0.586800
     20 C3'         2.4310   -1.6160   -0.8780 c3        1 N8M      0.081100
     21 O3'         3.2180   -2.7690   -0.6840 oh        1 N8M     -0.585800
     22 C9          0.2940    1.1090   -2.1460 c3        1 N8M     -0.109400
     23 HG          4.7600    3.0560   -0.3880 h1        1 N8M      0.035700
     24 HGA         5.6010    2.7530    1.2000 h1        1 N8M      0.035700
     25 HGB         5.8750    1.6250   -0.2040 h1        1 N8M      0.035700
     26 HE          2.5810    2.9530    1.1320 h1        1 N8M      0.035700
     27 HEA         2.3420    1.3870    2.0350 h1        1 N8M      0.035700
     28 HEB         3.6750    2.5340    2.5300 h1        1 N8M      0.035700
     29 H5'         2.6970    1.3050   -0.8670 h1        1 N8M      0.041200
     30 H5'A        4.2120    0.2840   -0.9580 h1        1 N8M      0.041200
     31 H4'         3.1480   -1.0370    1.1190 h1        1 N8M      0.085700
     32 H1'        -0.0550   -1.6260    1.1030 h2        1 N8M      0.131700
     33 H2         -4.3220   -1.2350    2.5080 h5        1 N8M      0.052100
     34 HN6        -5.9350    2.0580   -0.3160 hn        1 N8M      0.446300
     35 HN6A       -4.6080    2.4460   -1.3220 hn        1 N8M      0.446300
     36 H2'         0.4640   -1.8420   -1.8700 h1        1 N8M      0.071700
     37 HO2'        1.1180   -3.8730   -1.0340 ho        1 N8M      0.422000
     38 H3'         2.7480   -1.2280   -1.8840 h1        1 N8M      0.092700
     39 HO3'        2.9950   -3.1360    0.1840 ho        1 N8M      0.419000
     40 H9          1.1140    0.3570   -2.0430 hc        1 N8M      0.061033
     41 H9A        -0.0270    1.1550   -3.2170 hc        1 N8M      0.061033
     42 H9B         0.6890    2.1130   -1.8460 hc        1 N8M      0.061033
@<TRIPOS>BOND
     1    1    2 1   
     2    1   23 1   
     3    1   24 1   
     4    1   25 1   
     5    2    3 1   
     6    2    4 1   
     7    3   26 1   
     8    3   27 1   
     9    3   28 1   
    10    4    5 1   
    11    4   29 1   
    12    4   30 1   
    13    5    6 1   
    14    5   20 1   
    15    5   31 1   
    16    6    7 1   
    17    7    8 1   
    18    7   18 1   
    19    7   32 1   
    20    8    9 1   
    21    8   17 1   
    22    9   10 ar  
    23    9   15 ar  
    24   10   11 ar  
    25   11   12 ar  
    26   11   33 1   
    27   12   13 ar  
    28   13   14 1   
    29   13   15 ar  
    30   14   34 1   
    31   14   35 1   
    32   15   16 1   
    33   16   17 2   
    34   17   22 1   
    35   18   19 1   
    36   18   20 1   
    37   18   36 1   
    38   19   37 1   
    39   20   21 1   
    40   20   38 1   
    41   21   39 1   
    42   22   40 1   
    43   22   41 1   
    44   22   42 1   
@<TRIPOS>SUBSTRUCTURE
     1 N8M         1 TEMP              0 ****  ****    0 ROOT
