@<TRIPOS>MOLECULE
N8N
   30    32     1     0     0
SMALL
bcc


@<TRIPOS>ATOM
      1 CAJ        -0.1620    0.2530   -0.2320 ca        1 N8N     -0.150000
      2 CAO         1.1980    0.2170   -0.5400 ca        1 N8N      0.030400
      3 Cl          1.7040    0.6640   -2.1030 cl        1 N8N     -0.096400
      4 CAG         2.1460   -0.1800    0.4060 ca        1 N8N     -0.136000
      5 CAE         1.7150   -0.5440    1.6790 ca        1 N8N     -0.107000
      6 CAH         0.3660   -0.5080    2.0180 ca        1 N8N     -0.126000
      7 CAP        -0.5940   -0.1080    1.0640 ca        1 N8N      0.079600
      8 NAS        -1.9760   -0.0850    1.3720 n         1 N8N     -0.375000
      9 CAN        -2.5790   -0.9480    2.3040 c         1 N8N      0.718500
     10 OAA        -1.9920   -1.8910    2.8520 o         1 N8N     -0.591500
     11 CAK        -4.0460   -0.6500    2.5320 c3        1 N8N     -0.093300
     12 SAM        -4.4960    0.7040    1.4880 ss        1 N8N     -0.276200
     13 CAR        -2.7830    1.0380    0.9490 c3        1 N8N      0.155500
     14 CAQ        -2.3820    2.3960    1.4830 ca        1 N8N      0.381600
     15 CAI        -2.5120    3.5070    0.6240 ca        1 N8N     -0.227300
     16 CAD        -2.1760    4.7730    1.1090 ca        1 N8N     -0.089000
     17 CAC        -1.7180    4.8960    2.4200 ca        1 N8N     -0.237300
     18 CAF        -1.6150    3.7290    3.2020 ca        1 N8N      0.402200
     19 NAL        -1.9370    2.5010    2.7600 nb        1 N8N     -0.649000
     20 HAJ        -0.8830    0.5580   -1.0040 ha        1 N8N      0.146000
     21 HAG         3.2160   -0.2080    0.1490 ha        1 N8N      0.149000
     22 HAE         2.4510   -0.8640    2.4330 ha        1 N8N      0.142000
     23 HAH         0.0510   -0.8090    3.0310 ha        1 N8N      0.165000
     24 HAR        -2.8000    1.0810   -0.1760 h2        1 N8N      0.095700
     25 HAK1       -4.6540   -1.5520    2.2810 h1        1 N8N      0.111700
     26 HAK2       -4.2060   -0.3990    3.6090 h1        1 N8N      0.111700
     27 HAI        -2.8720    3.3800   -0.4060 ha        1 N8N      0.146000
     28 HAD        -2.2700    5.6580    0.4630 ha        1 N8N      0.143000
     29 HAC        -1.4410    5.8720    2.8400 ha        1 N8N      0.148000
     30 HAF        -1.2550    3.7760    4.2460 h4        1 N8N      0.027100
@<TRIPOS>BOND
     1    1    2 ar  
     2    1    7 ar  
     3    1   20 1   
     4    2    3 1   
     5    2    4 ar  
     6    4    5 ar  
     7    4   21 1   
     8    5    6 ar  
     9    5   22 1   
    10    6    7 ar  
    11    6   23 1   
    12    7    8 1   
    13    8    9 1   
    14    8   13 1   
    15    9   10 2   
    16    9   11 1   
    17   11   12 1   
    18   11   25 1   
    19   11   26 1   
    20   12   13 1   
    21   13   14 1   
    22   13   24 1   
    23   14   15 ar  
    24   14   19 ar  
    25   15   16 ar  
    26   15   27 1   
    27   16   17 ar  
    28   16   28 1   
    29   17   18 ar  
    30   17   29 1   
    31   18   19 ar  
    32   18   30 1   
@<TRIPOS>SUBSTRUCTURE
     1 N8N         1 TEMP              0 ****  ****    0 ROOT
