@<TRIPOS>MOLECULE
N8N
   30    32     1     0     0
SMALL
bcc


@<TRIPOS>ATOM
      1 CAJ        -0.1560    0.2370   -0.2200 ca        1 N8N     -0.150000
      2 CAO         1.2060    0.1890   -0.5170 ca        1 N8N      0.030400
      3 CL          1.7280    0.6240   -2.0780 cl        1 N8N     -0.096400
      4 CAG         2.1440   -0.2110    0.4390 ca        1 N8N     -0.136000
      5 CAE         1.7000   -0.5650    1.7100 ca        1 N8N     -0.107000
      6 CAH         0.3480   -0.5170    2.0380 ca        1 N8N     -0.126000
      7 CAP        -0.6010   -0.1150    1.0740 ca        1 N8N      0.079600
      8 NAS        -1.9850   -0.0800    1.3710 n         1 N8N     -0.375000
      9 CAN        -2.6020   -0.9340    2.3020 c         1 N8N      0.718500
     10 OAA        -2.0270   -1.8790    2.8580 o         1 N8N     -0.591500
     11 CAK        -4.0690   -0.6240    2.5160 c3        1 N8N     -0.093300
     12 SAM        -4.5000    0.7290    1.4630 ss        1 N8N     -0.276200
     13 CAR        -2.7800    1.0480    0.9370 c3        1 N8N      0.155500
     14 CAQ        -2.3730    2.4040    1.4690 ca        1 N8N      0.381600
     15 CAI        -2.4860    3.5140    0.6050 ca        1 N8N     -0.227300
     16 CAD        -2.1450    4.7790    1.0890 ca        1 N8N     -0.089000
     17 CAC        -1.6980    4.9020    2.4040 ca        1 N8N     -0.237300
     18 CAF        -1.6130    3.7380    3.1910 ca        1 N8N      0.402200
     19 NAL        -1.9390    2.5110    2.7500 nb        1 N8N     -0.649000
     20 HAJ        -0.8690    0.5430   -1.0000 ha        1 N8N      0.146000
     21 HAG         3.2150   -0.2470    0.1910 ha        1 N8N      0.149000
     22 HAE         2.4280   -0.8860    2.4710 ha        1 N8N      0.142000
     23 HAH         0.0220   -0.8100    3.0500 ha        1 N8N      0.165000
     24 HAR        -2.7870    1.0870   -0.1890 h2        1 N8N      0.095700
     25 HAK1       -4.2350   -0.3670    3.5910 h1        1 N8N      0.111700
     26 HAK2       -4.6810   -1.5230    2.2640 h1        1 N8N      0.111700
     27 HAI        -2.8380    3.3850   -0.4270 ha        1 N8N      0.146000
     28 HAD        -2.2260    5.6610    0.4380 ha        1 N8N      0.143000
     29 HAC        -1.4180    5.8780    2.8220 ha        1 N8N      0.148000
     30 HAF        -1.2610    3.7870    4.2380 h4        1 N8N      0.027100
@<TRIPOS>BOND
     1    1    2 ar  
     2    1    7 ar  
     3    1   20 1   
     4    2    3 1   
     5    2    4 ar  
     6    4    5 ar  
     7    4   21 1   
     8    5    6 ar  
     9    5   22 1   
    10    6    7 ar  
    11    6   23 1   
    12    7    8 1   
    13    8    9 1   
    14    8   13 1   
    15    9   10 2   
    16    9   11 1   
    17   11   12 1   
    18   11   25 1   
    19   11   26 1   
    20   12   13 1   
    21   13   14 1   
    22   13   24 1   
    23   14   15 ar  
    24   14   19 ar  
    25   15   16 ar  
    26   15   27 1   
    27   16   17 ar  
    28   16   28 1   
    29   17   18 ar  
    30   17   29 1   
    31   18   19 ar  
    32   18   30 1   
@<TRIPOS>SUBSTRUCTURE
     1 N8N         1 TEMP              0 ****  ****    0 ROOT
