@<TRIPOS>MOLECULE
N8P
   21    21     1     0     0
SMALL
bcc


@<TRIPOS>ATOM
      1 C7          1.5360   -0.8290   -0.4150 c         1 N8P      0.680100
      2 O9          1.2450   -1.8450   -1.0800 o         1 N8P     -0.619100
      3 C8          2.7970   -0.8160    0.4210 c3        1 N8P     -0.178100
      4 N           0.7900    0.3390   -0.5090 n         1 N8P     -0.427800
      5 CA         -0.6740    0.3020   -0.6100 c3        1 N8P     -0.040300
      6 CB         -1.1210    1.7790   -0.5630 c3        1 N8P     -0.071400
      7 CG          0.0200    2.5360    0.1110 c3        1 N8P     -0.080400
      8 CD          1.1890    1.5370    0.2110 c3        1 N8P      0.083000
      9 C          -1.4170   -0.4670    0.5390 c         1 N8P      0.909600
     10 O          -0.7630   -0.8560    1.5440 o         1 N8P     -0.834300
     11 OXT        -2.6590   -0.6140    0.3800 o         1 N8P     -0.834300
     12 H81         3.4450    0.0580    0.1740 hc        1 N8P      0.050033
     13 H82         2.5080   -0.7670    1.5000 hc        1 N8P      0.050033
     14 H83         3.3670   -1.7580    0.2380 hc        1 N8P      0.050033
     15 HA         -0.9450   -0.1850   -1.5830 h1        1 N8P      0.067700
     16 HB2        -1.2960    2.1690   -1.5950 hc        1 N8P      0.044200
     17 HB3        -2.0760    1.8630    0.0100 hc        1 N8P      0.044200
     18 HG2         0.3220    3.4310   -0.4840 hc        1 N8P      0.028700
     19 HG3        -0.2760    2.8800    1.1310 hc        1 N8P      0.028700
     20 HD2         1.4170    1.3180    1.2920 h1        1 N8P      0.023700
     21 HD3         2.1180    1.9560   -0.2640 h1        1 N8P      0.023700
@<TRIPOS>BOND
     1    1    2 2   
     2    1    3 1   
     3    1    4 1   
     4    3   12 1   
     5    3   13 1   
     6    3   14 1   
     7    4    5 1   
     8    4    8 1   
     9    5    6 1   
    10    5    9 1   
    11    5   15 1   
    12    6    7 1   
    13    6   16 1   
    14    6   17 1   
    15    7    8 1   
    16    7   18 1   
    17    7   19 1   
    18    8   20 1   
    19    8   21 1   
    20    9   10 1   
    21    9   11 1   
@<TRIPOS>SUBSTRUCTURE
     1 N8P         1 TEMP              0 ****  ****    0 ROOT
