@<TRIPOS>MOLECULE
N8T
   79    84     1     0     0
SMALL
bcc


@<TRIPOS>ATOM
      1 CBD         0.7130    0.5440   -0.3080 c3        1 N8T     -0.132700
      2 CBE         2.0960    1.1530   -0.2810 c3        1 N8T     -0.079400
      3 CAQ         2.6160    1.1950    1.1360 c3        1 N8T     -0.080400
      4 CAP         1.7510    2.0790    2.0070 c3        1 N8T     -0.024100
      5 CAO         0.2870    1.9330    1.7880 ca        1 N8T     -0.166600
      6 CBC        -0.2350    1.2260    0.6440 ca        1 N8T      0.444600
      7 NBB        -1.5330    1.1230    0.3770 nb        1 N8T     -0.675000
      8 CBA        -2.4380    1.7020    1.2370 ca        1 N8T      0.405600
      9 CAZ        -3.8390    1.5870    0.9490 ca        1 N8T     -0.163300
     10 CAY        -4.7680    2.1380    1.7920 ca        1 N8T     -0.127000
     11 CAK        -4.3610    2.8230    2.9600 ca        1 N8T     -0.127000
     12 CAL        -3.0270    2.9550    3.2590 ca        1 N8T     -0.121000
     13 CAM        -2.0310    2.4100    2.4060 ca        1 N8T     -0.169300
     14 CAN        -0.6180    2.5340    2.6650 ca        1 N8T      0.121600
     15 NAA        -0.1360    3.3150    3.7570 nh        1 N8T     -0.713600
     16 CAB         0.0200    2.5740    4.9990 c3        1 N8T      0.165800
     17 CAC         0.4930    3.4570    6.1520 c3        1 N8T     -0.084400
     18 CAD         0.6790    2.6200    7.4000 c3        1 N8T     -0.079400
     19 CAE         1.1420    3.4730    8.5630 c3        1 N8T     -0.078400
     20 CAF         1.3330    2.6380    9.8110 c3        1 N8T     -0.079400
     21 CAG         1.7920    3.4910   10.9740 c3        1 N8T     -0.077400
     22 CAH         1.9850    2.6520   12.2210 c3        1 N8T     -0.071400
     23 CAI         2.4550    3.5030   13.3750 c3        1 N8T     -0.029300
     24 SAJ         2.4640    2.4540   14.8050 ss        1 N8T     -0.216000
     25 CAU         3.7060    3.0310   15.8290 ca        1 N8T      0.024900
     26 CAV         3.8440    4.3430   16.2520 ca        1 N8T     -0.160600
     27 CAW         2.9160    5.3940   15.7610 c3        1 N8T     -0.044100
     28 CAX         2.9100    6.6490   16.6070 c3        1 N8T     -0.076400
     29 CBL         4.3270    7.1030   16.8700 c3        1 N8T     -0.080400
     30 CBK         5.0690    6.0730   17.6900 c3        1 N8T     -0.132700
     31 CBJ         4.9060    4.6640   17.1780 ca        1 N8T      0.439600
     32 NBI         5.7510    3.7550   17.6520 nb        1 N8T     -0.663000
     33 CBH         5.6110    2.4440   17.2560 ca        1 N8T      0.398600
     34 CAT         4.5980    2.0350   16.3380 ca        1 N8T     -0.123300
     35 CAS         4.5130    0.6680   15.9650 ca        1 N8T     -0.111000
     36 CAR         5.3850   -0.2560   16.4850 ca        1 N8T     -0.128000
     37 CBF         6.3860    0.1420   17.4000 ca        1 N8T     -0.125000
     38 CBG         6.5060    1.4540   17.7800 ca        1 N8T     -0.167300
     39 HBD1        0.7720   -0.5400   -0.0120 hc        1 N8T      0.065200
     40 HBD2        0.3100    0.5810   -1.3560 hc        1 N8T      0.065200
     41 HBE1        2.0670    2.1900   -0.7070 hc        1 N8T      0.046700
     42 HBE2        2.7810    0.5420   -0.9250 hc        1 N8T      0.046700
     43 HAQ1        2.6410    0.1540    1.5550 hc        1 N8T      0.042700
     44 HAQ2        3.6680    1.5840    1.1470 hc        1 N8T      0.042700
     45 HAP1        2.0000    1.8650    3.0820 hc        1 N8T      0.059200
     46 HAP2        2.0170    3.1580    1.8210 hc        1 N8T      0.059200
     47 HAZ        -4.1500    1.0480    0.0400 ha        1 N8T      0.150000
     48 HAY        -5.8420    2.0500    1.5710 ha        1 N8T      0.135000
     49 HAK        -5.1280    3.2470    3.6260 ha        1 N8T      0.133000
     50 HAL        -2.7360    3.4820    4.1810 ha        1 N8T      0.126000
     51 HAA        -0.7250    4.1170    3.8970 hn        1 N8T      0.373800
     52 HAB1       -0.9430    2.0680    5.3070 h1        1 N8T      0.037700
     53 HAB2        0.7800    1.7610    4.8210 h1        1 N8T      0.037700
     54 HAC1       -0.2560    4.2670    6.3500 hc        1 N8T      0.047700
     55 HAC2        1.4610    3.9540    5.8820 hc        1 N8T      0.047700
     56 HAD1       -0.2880    2.1160    7.6660 hc        1 N8T      0.042700
     57 HAD2        1.4310    1.8120    7.2040 hc        1 N8T      0.042700
     58 HAE1        2.1070    3.9800    8.2970 hc        1 N8T      0.041700
     59 HAE2        0.3880    4.2800    8.7610 hc        1 N8T      0.041700
     60 HAF1        0.3690    2.1290   10.0750 hc        1 N8T      0.042700
     61 HAF2        2.0900    1.8340    9.6130 hc        1 N8T      0.042700
     62 HAG1        1.0350    4.2950   11.1730 hc        1 N8T      0.041700
     63 HAG2        2.7560    4.0010   10.7110 hc        1 N8T      0.041700
     64 HAH1        2.7340    1.8420   12.0170 hc        1 N8T      0.055200
     65 HAH2        1.0160    2.1510   12.4890 hc        1 N8T      0.055200
     66 HAI1        3.4700    3.9190   13.1720 h1        1 N8T      0.067700
     67 HAI2        1.7560    4.3610   13.5310 h1        1 N8T      0.067700
     68 HAW1        3.2130    5.6700   14.7100 hc        1 N8T      0.057200
     69 HAW2        1.8730    4.9710   15.7160 hc        1 N8T      0.057200
     70 HAX1        2.3400    7.4520   16.0730 hc        1 N8T      0.047700
     71 HAX2        2.3880    6.4530   17.5800 hc        1 N8T      0.047700
     72 HBL1        4.8570    7.2730   15.8960 hc        1 N8T      0.046700
     73 HBL2        4.3220    8.0780   17.4240 hc        1 N8T      0.046700
     74 HBK1        6.1590    6.3440   17.7260 hc        1 N8T      0.066200
     75 HBK2        4.6860    6.0950   18.7480 hc        1 N8T      0.066200
     76 HAS         3.7330    0.3660   15.2450 ha        1 N8T      0.154000
     77 HAR         5.3150   -1.3150   16.1940 ha        1 N8T      0.134000
     78 HBF         7.0720   -0.6180   17.8050 ha        1 N8T      0.134000
     79 HBG         7.2870    1.7670   18.4910 ha        1 N8T      0.149000
@<TRIPOS>BOND
     1    1    2 1   
     2    1    6 1   
     3    1   39 1   
     4    1   40 1   
     5    2    3 1   
     6    2   41 1   
     7    2   42 1   
     8    3    4 1   
     9    3   43 1   
    10    3   44 1   
    11    4    5 1   
    12    4   45 1   
    13    4   46 1   
    14    5    6 ar  
    15    5   14 ar  
    16    6    7 ar  
    17    7    8 ar  
    18    8    9 ar  
    19    8   13 ar  
    20    9   10 ar  
    21    9   47 1   
    22   10   11 ar  
    23   10   48 1   
    24   11   12 ar  
    25   11   49 1   
    26   12   13 ar  
    27   12   50 1   
    28   13   14 ar  
    29   14   15 1   
    30   15   16 1   
    31   15   51 1   
    32   16   17 1   
    33   16   52 1   
    34   16   53 1   
    35   17   18 1   
    36   17   54 1   
    37   17   55 1   
    38   18   19 1   
    39   18   56 1   
    40   18   57 1   
    41   19   20 1   
    42   19   58 1   
    43   19   59 1   
    44   20   21 1   
    45   20   60 1   
    46   20   61 1   
    47   21   22 1   
    48   21   62 1   
    49   21   63 1   
    50   22   23 1   
    51   22   64 1   
    52   22   65 1   
    53   23   24 1   
    54   23   66 1   
    55   23   67 1   
    56   24   25 1   
    57   25   26 ar  
    58   25   34 ar  
    59   26   27 1   
    60   26   31 ar  
    61   27   28 1   
    62   27   68 1   
    63   27   69 1   
    64   28   29 1   
    65   28   70 1   
    66   28   71 1   
    67   29   30 1   
    68   29   72 1   
    69   29   73 1   
    70   30   31 1   
    71   30   74 1   
    72   30   75 1   
    73   31   32 ar  
    74   32   33 ar  
    75   33   34 ar  
    76   33   38 ar  
    77   34   35 ar  
    78   35   36 ar  
    79   35   76 1   
    80   36   37 ar  
    81   36   77 1   
    82   37   38 ar  
    83   37   78 1   
    84   38   79 1   
@<TRIPOS>SUBSTRUCTURE
     1 N8T         1 TEMP              0 ****  ****    0 ROOT
