@<TRIPOS>MOLECULE
N8T
   79    78     1     0     0
SMALL
bcc


@<TRIPOS>ATOM
      1 CBD        -5.5830    1.9120   -8.4500 c3        1 N8T     -0.118000
      2 CBE        -6.2990    2.4730   -7.4030 c3        1 N8T     -0.157000
      3 CAQ        -5.5340    3.1350   -6.3540 c3        1 N8T     -0.154000
      4 CAP        -4.4690    2.3770   -5.7440 c3        1 N8T     -0.112000
      5 CAO        -3.6470    1.4350   -6.6990 c2        1 N8T     -0.169000
      6 CBC        -4.1530    1.2500   -8.0780 c2        1 N8T      0.035000
      7 NBB        -3.4740    0.4360   -8.9530 n1        1 N8T     -0.157000
      8 CBA        -2.2720   -0.2370   -8.5270 c1        1 N8T      0.017000
      9 CAZ        -1.5450   -1.0510   -9.4330 c2        1 N8T     -0.108000
     10 CAY        -0.3390   -1.6830   -9.0100 c1        1 N8T     -0.120000
     11 CAK         0.1290   -1.5010   -7.7000 c1        1 N8T     -0.123000
     12 CAL        -0.5900   -0.6930   -6.7960 c1        1 N8T     -0.123000
     13 CAM        -1.7930   -0.0580   -7.2070 c1        1 N8T     -0.081000
     14 CAN        -2.4960    0.7880   -6.2960 c2        1 N8T      0.076000
     15 NAA        -1.9670    1.2550   -5.0310 n3        1 N8T     -0.280000
     16 CAB        -1.8750    0.3760   -3.9340 c3        1 N8T     -0.063000
     17 CAC        -1.0620    1.0360   -2.8180 c3        1 N8T     -0.163000
     18 CAD        -1.3920    0.3320   -1.4470 c3        1 N8T     -0.158000
     19 CAE        -0.3110    0.7170   -0.3740 c3        1 N8T     -0.157000
     20 CAF        -0.6110   -0.0330    0.9370 c3        1 N8T     -0.158000
     21 CAG         0.3010    0.4920    2.0510 c3        1 N8T     -0.157000
     22 CAH         0.0720   -0.3650    3.3620 c3        1 N8T     -0.151000
     23 CAI         1.2990   -0.2150    4.3060 c3        1 N8T     -0.285000
     24 SAJ         1.3330   -1.5620    5.4350 ss        1 N8T      0.169000
     25 CAU         2.9330   -1.5880    6.3090 c2        1 N8T     -0.209000
     26 CAV         2.9560   -0.9650    7.5580 c2        1 N8T     -0.062000
     27 CAW         1.6340   -0.4480    8.2720 c3        1 N8T     -0.124000
     28 CAX         1.7510   -0.0760    9.6690 c3        1 N8T     -0.157000
     29 CBL         2.9630    0.5660   10.0700 c3        1 N8T     -0.159000
     30 CBK         4.1830   -0.0900    9.7310 c3        1 N8T     -0.117000
     31 CBJ         4.2170   -0.8570    8.2970 c2        1 N8T      0.011000
     32 NBI         5.3740   -1.3680    7.7600 n2        1 N8T     -0.133000
     33 CBH         5.3510   -2.0130    6.4660 c1        1 N8T      0.002000
     34 CAT         4.1460   -2.1200    5.7530 c1        1 N8T     -0.060000
     35 CAS         4.1300   -2.7600    4.4820 c1        1 N8T     -0.124000
     36 CAR         5.3170   -3.2860    3.9420 c1        1 N8T     -0.123000
     37 CBF         6.5110   -3.1820    4.6470 c1        1 N8T     -0.123000
     38 CBG         6.5330   -2.5390    5.9240 c1        1 N8T     -0.097000
     39 HBD1       -5.4190    2.6680   -9.1800 hc        1 N8T      0.105000
     40 HBD2       -6.1200    1.2420   -8.8380 hc        1 N8T      0.105000
     41 HBE1       -6.8900    3.1010   -7.7670 hc        1 N8T      0.086500
     42 HBE2       -6.7930    1.8080   -7.0140 hc        1 N8T      0.086500
     43 HAQ1       -6.1340    3.3850   -5.6770 hc        1 N8T      0.083500
     44 HAQ2       -5.1600    3.9220   -6.7180 hc        1 N8T      0.083500
     45 HAP1       -3.7990    3.0530   -5.2990 hc        1 N8T      0.083500
     46 HAP2       -4.8780    1.7970   -5.0050 hc        1 N8T      0.083500
     47 HAZ        -1.8770   -1.1810  -10.3620 ha        1 N8T      0.149000
     48 HAY         0.1570   -2.2380   -9.6260 ha        1 N8T      0.134000
     49 HAK         0.9870   -1.9510   -7.4030 ha        1 N8T      0.136750
     50 HAL        -0.2620   -0.5700   -5.8960 ha        1 N8T      0.136750
     51 HAA        -1.7370    2.1190   -4.9330 hn        1 N8T      0.176000
     52 HAB1       -1.3900   -0.5300   -4.2390 h1        1 N8T      0.079500
     53 HAB2       -2.7410    0.1780   -3.6170 h1        1 N8T      0.079500
     54 HAC1       -0.0690    0.9400   -3.0190 hc        1 N8T      0.087500
     55 HAC2       -1.2840    1.9470   -2.7650 hc        1 N8T      0.087500
     56 HAD1       -1.3910   -0.6450   -1.5740 hc        1 N8T      0.082000
     57 HAD2       -2.3160    0.6320   -1.1240 hc        1 N8T      0.082000
     58 HAE1        0.5090    0.4810   -0.6750 hc        1 N8T      0.081000
     59 HAE2       -0.3350    1.6990   -0.2100 hc        1 N8T      0.081000
     60 HAF1       -0.4500   -0.9880    0.8070 hc        1 N8T      0.081500
     61 HAF2       -1.5850    0.1150    1.1970 hc        1 N8T      0.081500
     62 HAG1        1.2840    0.4120    1.7550 hc        1 N8T      0.082000
     63 HAG2        0.0890    1.4280    2.2330 hc        1 N8T      0.082000
     64 HAH1       -0.0470   -1.3730    3.1040 hc        1 N8T      0.092000
     65 HAH2       -0.7560   -0.0400    3.8350 hc        1 N8T      0.092000
     66 HAI1        1.2290    0.6060    4.7910 h1        1 N8T      0.112000
     67 HAI2        2.1500   -0.2120    3.7580 h1        1 N8T      0.112000
     68 HAW1        0.9380   -1.1710    8.2000 hc        1 N8T      0.104500
     69 HAW2        1.3070    0.3520    7.7700 hc        1 N8T      0.104500
     70 HAX1        1.6420   -0.9020   10.2210 hc        1 N8T      0.085000
     71 HAX2        0.9630    0.5660    9.8920 hc        1 N8T      0.085000
     72 HBL1        2.9790    1.5060    9.6420 hc        1 N8T      0.086500
     73 HBL2        2.9370    0.6810   11.0930 hc        1 N8T      0.086500
     74 HBK1        4.8780    0.5580    9.7360 hc        1 N8T      0.105500
     75 HBK2        4.3710   -0.7280   10.4090 hc        1 N8T      0.105500
     76 HAS         3.2790   -2.8380    3.9750 ha        1 N8T      0.144000
     77 HAR         5.3000   -3.7060    3.1120 ha        1 N8T      0.136750
     78 HBF         7.3350   -3.5490    4.2700 ha        1 N8T      0.136750
     79 HBG         7.3780   -2.4660    6.4220 ha        1 N8T      0.150000
@<TRIPOS>BOND
     1    1    2 1   
     2    1    6 1   
     3    1   39 1   
     4    1   40 1   
     5    2    3 1   
     6    2   41 1   
     7    2   42 1   
     8    3    4 1   
     9    3   43 1   
    10    3   44 1   
    11    4    5 1   
    12    4   45 1   
    13    4   46 1   
    14    5    6 1   
    15    5   14 1   
    16    6    7 1   
    17    8    9 1   
    18    8   13 1   
    19    9   10 1   
    20    9   47 1   
    21   10   48 1   
    22   11   12 1   
    23   11   49 1   
    24   12   50 1   
    25   13   14 1   
    26   14   15 1   
    27   15   16 1   
    28   15   51 1   
    29   16   17 1   
    30   16   52 1   
    31   16   53 1   
    32   17   18 1   
    33   17   54 1   
    34   17   55 1   
    35   18   19 1   
    36   18   56 1   
    37   18   57 1   
    38   19   20 1   
    39   19   58 1   
    40   19   59 1   
    41   20   21 1   
    42   20   60 1   
    43   20   61 1   
    44   21   22 1   
    45   21   62 1   
    46   21   63 1   
    47   22   23 1   
    48   22   64 1   
    49   22   65 1   
    50   23   24 1   
    51   23   66 1   
    52   23   67 1   
    53   24   25 1   
    54   25   26 1   
    55   25   34 1   
    56   26   27 1   
    57   26   31 1   
    58   27   28 1   
    59   27   68 1   
    60   27   69 1   
    61   28   29 1   
    62   28   70 1   
    63   28   71 1   
    64   29   30 1   
    65   29   72 1   
    66   29   73 1   
    67   30   31 1   
    68   30   74 1   
    69   30   75 1   
    70   31   32 1   
    71   32   33 1   
    72   33   38 1   
    73   34   35 1   
    74   35   76 1   
    75   36   37 1   
    76   36   77 1   
    77   37   78 1   
    78   38   79 1   
@<TRIPOS>SUBSTRUCTURE
     1 N8T         1 TEMP              0 ****  ****    0 ROOT
