@<TRIPOS>MOLECULE
N8T
   79    84     1     0     0
SMALL
bcc


@<TRIPOS>ATOM
      1 CBD         9.5550    2.6740   -0.4090 c3        1 N8T     -0.132700
      2 CBE         9.0040    3.2890   -1.6750 c3        1 N8T     -0.079400
      3 CAQ         7.4970    3.3510   -1.6080 c3        1 N8T     -0.080400
      4 CAP         6.8990    1.9640   -1.5200 c3        1 N8T     -0.024100
      5 CAO         7.6160    1.0290   -0.6120 ca        1 N8T     -0.166600
      6 CBC         8.9270    1.3390   -0.0970 ca        1 N8T      0.444600
      7 NBB         9.6280    0.5090    0.6680 nb        1 N8T     -0.675000
      8 CBA         9.0810   -0.7070    1.0060 ca        1 N8T      0.405600
      9 CAZ         9.8390   -1.6010    1.8340 ca        1 N8T     -0.163300
     10 CAY         9.3180   -2.8130    2.2040 ca        1 N8T     -0.127000
     11 CAK         8.0250   -3.2000    1.7790 ca        1 N8T     -0.127000
     12 CAL         7.2790   -2.3680    0.9810 ca        1 N8T     -0.121000
     13 CAM         7.7860   -1.1080    0.5650 ca        1 N8T     -0.169300
     14 CAN         7.0510   -0.2050   -0.2860 ca        1 N8T      0.121600
     15 NAA         5.7950   -0.5820   -0.8480 nh        1 N8T     -0.713600
     16 CAB         4.6450   -0.2430   -0.0230 c3        1 N8T      0.165800
     17 CAC         3.3260   -0.6980   -0.6450 c3        1 N8T     -0.084400
     18 CAD         2.1690   -0.2820    0.2380 c3        1 N8T     -0.079400
     19 CAE         0.8470   -0.7210   -0.3560 c3        1 N8T     -0.078400
     20 CAF        -0.3130   -0.3070    0.5250 c3        1 N8T     -0.079400
     21 CAG        -1.6350   -0.7430   -0.0700 c3        1 N8T     -0.077400
     22 CAH        -2.7920   -0.3300    0.8160 c3        1 N8T     -0.071400
     23 CAI        -4.1090   -0.7480    0.2110 c3        1 N8T     -0.029300
     24 SAJ        -5.3580   -0.3880    1.4170 ss        1 N8T     -0.216000
     25 CAU        -6.7860   -0.0210    0.5510 ca        1 N8T      0.024900
     26 CAV        -7.3480   -0.8170   -0.4320 ca        1 N8T     -0.160600
     27 CAW        -6.6730   -2.0680   -0.8660 c3        1 N8T     -0.044100
     28 CAX        -7.5790   -3.0260   -1.6070 c3        1 N8T     -0.076400
     29 CBL        -8.3400   -2.2910   -2.6860 c3        1 N8T     -0.080400
     30 CBK        -9.2630   -1.2640   -2.0740 c3        1 N8T     -0.132700
     31 CBJ        -8.6000   -0.4070   -1.0250 ca        1 N8T      0.439600
     32 NBI        -9.2460    0.6970   -0.6610 nb        1 N8T     -0.663000
     33 CBH        -8.7080    1.4860    0.3320 ca        1 N8T      0.398600
     34 CAT        -7.4710    1.1650    0.9670 ca        1 N8T     -0.123300
     35 CAS        -6.9690    2.0250    1.9780 ca        1 N8T     -0.111000
     36 CAR        -7.6640    3.1490    2.3520 ca        1 N8T     -0.128000
     37 CBF        -8.8940    3.4680    1.7310 ca        1 N8T     -0.125000
     38 CBG        -9.4090    2.6660    0.7440 ca        1 N8T     -0.167300
     39 HBD1       10.6700    2.5700   -0.5000 hc        1 N8T      0.065200
     40 HBD2        9.3530    3.3570    0.4610 hc        1 N8T      0.065200
     41 HBE1        9.3210    2.6840   -2.5650 hc        1 N8T      0.046700
     42 HBE2        9.4270    4.3200   -1.7990 hc        1 N8T      0.046700
     43 HAQ1        7.0930    3.8680   -2.5170 hc        1 N8T      0.042700
     44 HAQ2        7.1880    3.9570   -0.7150 hc        1 N8T      0.042700
     45 HAP1        6.8860    1.5000   -2.5460 hc        1 N8T      0.059200
     46 HAP2        5.8260    2.0640   -1.1970 hc        1 N8T      0.059200
     47 HAZ        10.8430   -1.2930    2.1660 ha        1 N8T      0.150000
     48 HAY         9.8990   -3.5000    2.8380 ha        1 N8T      0.135000
     49 HAK         7.6260   -4.1740    2.0980 ha        1 N8T      0.133000
     50 HAL         6.2710   -2.6850    0.6740 ha        1 N8T      0.126000
     51 HAA         5.7940   -1.5620   -1.0690 hn        1 N8T      0.373800
     52 HAB1        4.6280    0.8770    0.1000 h1        1 N8T      0.037700
     53 HAB2        4.7270   -0.6920    1.0110 h1        1 N8T      0.037700
     54 HAC1        3.3220   -1.8120   -0.7710 hc        1 N8T      0.048200
     55 HAC2        3.2060   -0.2450   -1.6650 hc        1 N8T      0.048200
     56 HAD1        2.1720    0.8320    0.3650 hc        1 N8T      0.042700
     57 HAD2        2.2900   -0.7320    1.2580 hc        1 N8T      0.042700
     58 HAE1        0.8430   -1.8350   -0.4840 hc        1 N8T      0.041700
     59 HAE2        0.7240   -0.2700   -1.3760 hc        1 N8T      0.041700
     60 HAF1       -0.1910   -0.7590    1.5450 hc        1 N8T      0.042700
     61 HAF2       -0.3080    0.8080    0.6550 hc        1 N8T      0.042700
     62 HAG1       -1.7590   -0.2870   -1.0870 hc        1 N8T      0.041700
     63 HAG2       -1.6390   -1.8570   -0.2020 hc        1 N8T      0.041700
     64 HAH1       -2.6750   -0.8000    1.8300 hc        1 N8T      0.055200
     65 HAH2       -2.7770    0.7830    0.9610 hc        1 N8T      0.055200
     66 HAI1       -4.2980   -0.1990   -0.7430 h1        1 N8T      0.067700
     67 HAI2       -4.0990   -1.8410   -0.0180 h1        1 N8T      0.067700
     68 HAW1       -5.8120   -1.7940   -1.5370 hc        1 N8T      0.057200
     69 HAW2       -6.2440   -2.5850    0.0380 hc        1 N8T      0.057200
     70 HAX1       -6.9610   -3.8450   -2.0600 hc        1 N8T      0.047700
     71 HAX2       -8.2990   -3.5040   -0.8930 hc        1 N8T      0.047700
     72 HBL1       -7.6180   -1.7920   -3.3850 hc        1 N8T      0.046700
     73 HBL2       -8.9460   -3.0150   -3.2910 hc        1 N8T      0.046700
     74 HBK1       -9.6850   -0.6140   -2.8880 hc        1 N8T      0.066200
     75 HBK2      -10.1310   -1.7880   -1.5850 hc        1 N8T      0.066200
     76 HAS        -6.0050    1.7730    2.4540 ha        1 N8T      0.154000
     77 HAR        -7.2720    3.8130    3.1360 ha        1 N8T      0.134000
     78 HBF        -9.4330    4.3730    2.0490 ha        1 N8T      0.134000
     79 HBG       -10.3650    2.9140    0.2570 ha        1 N8T      0.149000
@<TRIPOS>BOND
     1    1    2 1   
     2    1    6 1   
     3    1   39 1   
     4    1   40 1   
     5    2    3 1   
     6    2   41 1   
     7    2   42 1   
     8    3    4 1   
     9    3   43 1   
    10    3   44 1   
    11    4    5 1   
    12    4   45 1   
    13    4   46 1   
    14    5    6 ar  
    15    5   14 ar  
    16    6    7 ar  
    17    7    8 ar  
    18    8    9 ar  
    19    8   13 ar  
    20    9   10 ar  
    21    9   47 1   
    22   10   11 ar  
    23   10   48 1   
    24   11   12 ar  
    25   11   49 1   
    26   12   13 ar  
    27   12   50 1   
    28   13   14 ar  
    29   14   15 1   
    30   15   16 1   
    31   15   51 1   
    32   16   17 1   
    33   16   52 1   
    34   16   53 1   
    35   17   18 1   
    36   17   54 1   
    37   17   55 1   
    38   18   19 1   
    39   18   56 1   
    40   18   57 1   
    41   19   20 1   
    42   19   58 1   
    43   19   59 1   
    44   20   21 1   
    45   20   60 1   
    46   20   61 1   
    47   21   22 1   
    48   21   62 1   
    49   21   63 1   
    50   22   23 1   
    51   22   64 1   
    52   22   65 1   
    53   23   24 1   
    54   23   66 1   
    55   23   67 1   
    56   24   25 1   
    57   25   26 ar  
    58   25   34 ar  
    59   26   27 1   
    60   26   31 ar  
    61   27   28 1   
    62   27   68 1   
    63   27   69 1   
    64   28   29 1   
    65   28   70 1   
    66   28   71 1   
    67   29   30 1   
    68   29   72 1   
    69   29   73 1   
    70   30   31 1   
    71   30   74 1   
    72   30   75 1   
    73   31   32 ar  
    74   32   33 ar  
    75   33   34 ar  
    76   33   38 ar  
    77   34   35 ar  
    78   35   36 ar  
    79   35   76 1   
    80   36   37 ar  
    81   36   77 1   
    82   37   38 ar  
    83   37   78 1   
    84   38   79 1   
@<TRIPOS>SUBSTRUCTURE
     1 N8T         1 TEMP              0 ****  ****    0 ROOT
