@<TRIPOS>MOLECULE
N8T
   80    85     1     0     0
SMALL
bcc


@<TRIPOS>ATOM
      1 CBD         0.7720    0.4770   -0.3140 c3        1 N8T     -0.140700
      2 CBE         2.1370    1.1240   -0.3530 c3        1 N8T     -0.086400
      3 CAQ         2.7020    1.2370    1.0420 c3        1 N8T     -0.077400
      4 CAP         1.8460    2.1480    1.8980 c3        1 N8T     -0.057100
      5 CAO         0.3810    1.9320    1.7510 ca        1 N8T     -0.119600
      6 CBC        -0.1610    1.1450    0.6630 ca        1 N8T      0.449600
      7 NBB        -1.4640    0.9610    0.4890 nb        1 N8T     -0.611000
      8 CBA        -2.3580    1.5200    1.3690 ca        1 N8T      0.412600
      9 CAZ        -3.7610    1.3000    1.1630 ca        1 N8T     -0.134300
     10 CAY        -4.6810    1.8410    2.0240 ca        1 N8T     -0.111000
     11 CAK        -4.2620    2.6180    3.1290 ca        1 N8T     -0.067000
     12 CAL        -2.9250    2.8480    3.3560 ca        1 N8T     -0.170000
     13 CAM        -1.9420    2.3150    2.4840 ca        1 N8T     -0.134300
     14 CAN        -0.5290    2.5150    2.6290 ca        1 N8T     -0.028400
     15 NAA        -0.0560    3.3750    3.7210 n4        1 N8T     -0.633400
     16 CAB         0.0800    2.6270    5.0130 c3        1 N8T      0.102800
     17 CAC         0.5470    3.5230    6.1520 c3        1 N8T     -0.111400
     18 CAD         0.6620    2.6970    7.4200 c3        1 N8T     -0.078400
     19 CAE         1.1270    3.5560    8.5770 c3        1 N8T     -0.079400
     20 CAF         1.2480    2.7330    9.8430 c3        1 N8T     -0.079400
     21 CAG         1.7190    3.5850   11.0030 c3        1 N8T     -0.078400
     22 CAH         1.8430    2.7550   12.2650 c3        1 N8T     -0.070400
     23 CAI         2.3350    3.5940   13.4180 c3        1 N8T     -0.034300
     24 SAJ         2.2910    2.5640   14.8590 ss        1 N8T     -0.214000
     25 CAU         3.6110    3.0550   15.8300 ca        1 N8T      0.018900
     26 CAV         3.8350    4.3540   16.2540 ca        1 N8T     -0.153600
     27 CAW         2.9410    5.4560   15.8130 c3        1 N8T     -0.043100
     28 CAX         3.0320    6.6970   16.6730 c3        1 N8T     -0.076400
     29 CBL         4.4790    7.0810   16.8780 c3        1 N8T     -0.080400
     30 CBK         5.2080    6.0060   17.6500 c3        1 N8T     -0.134700
     31 CBJ         4.9550    4.6140   17.1310 ca        1 N8T      0.438600
     32 NBI         5.7770    3.6590   17.5530 nb        1 N8T     -0.656000
     33 CBH         5.5510    2.3590   17.1560 ca        1 N8T      0.398600
     34 CAT         4.4730    2.0100   16.2880 ca        1 N8T     -0.122300
     35 CAS         4.2960    0.6510   15.9170 ca        1 N8T     -0.117000
     36 CAR         5.1450   -0.3200   16.3880 ca        1 N8T     -0.124000
     37 CBF         6.2130    0.0200   17.2500 ca        1 N8T     -0.124000
     38 CBG         6.4210    1.3220   17.6270 ca        1 N8T     -0.163300
     39 HBD1        0.8700   -0.6020   -0.0090 hc        1 N8T      0.088200
     40 HBD2        0.3230    0.4890   -1.3460 hc        1 N8T      0.088200
     41 HBE1        2.0730    2.1380   -0.8270 hc        1 N8T      0.066700
     42 HBE2        2.8180    0.4990   -0.9900 hc        1 N8T      0.066700
     43 HAQ1        3.7450    1.6480    1.0030 hc        1 N8T      0.065700
     44 HAQ2        2.7590    0.2190    1.5100 hc        1 N8T      0.065700
     45 HAP1        2.1540    1.9990    2.9700 hc        1 N8T      0.053700
     46 HAP2        2.0720    3.2170    1.6180 hc        1 N8T      0.053700
     47 HAZ        -4.0820    0.6900    0.3000 ha        1 N8T      0.178000
     48 HAY        -5.7600    1.6740    1.8650 ha        1 N8T      0.166000
     49 HAK        -5.0230    3.0350    3.8100 ha        1 N8T      0.159000
     50 HAL        -2.6420    3.4460    4.2350 ha        1 N8T      0.118000
     51 HAA        -0.7250    4.1470    3.8440 hn        1 N8T      0.454300
     52 HAB1       -0.9270    2.1770    5.2520 hx        1 N8T      0.111700
     53 HAB2        0.8140    1.7870    4.8460 hx        1 N8T      0.111700
     54 HAC1       -0.1810    4.3610    6.3190 hc        1 N8T      0.064200
     55 HAC2        1.5440    3.9780    5.9130 hc        1 N8T      0.064200
     56 HAD1       -0.3330    2.2400    7.6660 hc        1 N8T      0.056200
     57 HAD2        1.3870    1.8560    7.2600 hc        1 N8T      0.056200
     58 HAE1        0.4020    4.3960    8.7410 hc        1 N8T      0.047700
     59 HAE2        2.1210    4.0160    8.3320 hc        1 N8T      0.047700
     60 HAF1        0.2540    2.2760   10.0920 hc        1 N8T      0.047700
     61 HAF2        1.9700    1.8910    9.6780 hc        1 N8T      0.047700
     62 HAG1        2.7120    4.0440   10.7560 hc        1 N8T      0.044700
     63 HAG2        0.9960    4.4250   11.1730 hc        1 N8T      0.044700
     64 HAH1        2.5530    1.9030   12.0870 hc        1 N8T      0.056700
     65 HAH2        0.8450    2.3090   12.5210 hc        1 N8T      0.056700
     66 HAI1        1.6710    4.4820   13.5630 h1        1 N8T      0.069200
     67 HAI2        3.3680    3.9690   13.2210 h1        1 N8T      0.069200
     68 HAW1        1.8770    5.0850   15.8030 hc        1 N8T      0.054700
     69 HAW2        3.2100    5.7300   14.7540 hc        1 N8T      0.054700
     70 HAX1        2.4760    7.5340   16.1760 hc        1 N8T      0.049200
     71 HAX2        2.5440    6.5110   17.6660 hc        1 N8T      0.049200
     72 HBL1        4.5430    8.0460   17.4450 hc        1 N8T      0.047200
     73 HBL2        4.9720    7.2420   15.8840 hc        1 N8T      0.047200
     74 HBK1        4.8760    6.0310   18.7260 hc        1 N8T      0.069700
     75 HBK2        6.3100    6.2250   17.6390 hc        1 N8T      0.069700
     76 HAS         3.4620    0.3940   15.2430 ha        1 N8T      0.150000
     77 HAR         5.0030   -1.3730   16.1020 ha        1 N8T      0.135000
     78 HBF         6.8780   -0.7770   17.6160 ha        1 N8T      0.138000
     79 HBG         7.2530    1.5900   18.2990 ha        1 N8T      0.153000
     80 HAA2        0.8540    3.7810    3.4670 hn        1 N8T      0.454300
@<TRIPOS>BOND
     1    1    2 1   
     2    1    6 1   
     3    1   39 1   
     4    1   40 1   
     5    2    3 1   
     6    2   41 1   
     7    2   42 1   
     8    3    4 1   
     9    3   43 1   
    10    3   44 1   
    11    4    5 1   
    12    4   45 1   
    13    4   46 1   
    14    5    6 ar  
    15    5   14 ar  
    16    6    7 ar  
    17    7    8 ar  
    18    8    9 ar  
    19    8   13 ar  
    20    9   10 ar  
    21    9   47 1   
    22   10   11 ar  
    23   10   48 1   
    24   11   12 ar  
    25   11   49 1   
    26   12   13 ar  
    27   12   50 1   
    28   13   14 ar  
    29   14   15 1   
    30   15   16 1   
    31   15   51 1   
    32   15   80 1   
    33   16   17 1   
    34   16   52 1   
    35   16   53 1   
    36   17   18 1   
    37   17   54 1   
    38   17   55 1   
    39   18   19 1   
    40   18   56 1   
    41   18   57 1   
    42   19   20 1   
    43   19   58 1   
    44   19   59 1   
    45   20   21 1   
    46   20   60 1   
    47   20   61 1   
    48   21   22 1   
    49   21   62 1   
    50   21   63 1   
    51   22   23 1   
    52   22   64 1   
    53   22   65 1   
    54   23   24 1   
    55   23   66 1   
    56   23   67 1   
    57   24   25 1   
    58   25   26 ar  
    59   25   34 ar  
    60   26   27 1   
    61   26   31 ar  
    62   27   28 1   
    63   27   68 1   
    64   27   69 1   
    65   28   29 1   
    66   28   70 1   
    67   28   71 1   
    68   29   30 1   
    69   29   72 1   
    70   29   73 1   
    71   30   31 1   
    72   30   74 1   
    73   30   75 1   
    74   31   32 ar  
    75   32   33 ar  
    76   33   34 ar  
    77   33   38 ar  
    78   34   35 ar  
    79   35   36 ar  
    80   35   76 1   
    81   36   37 ar  
    82   36   77 1   
    83   37   38 ar  
    84   37   78 1   
    85   38   79 1   
@<TRIPOS>SUBSTRUCTURE
     1 N8T         1 TEMP              0 ****  ****    0 ROOT
