@<TRIPOS>MOLECULE
N8T
   79    84     1     0     0
SMALL
bcc


@<TRIPOS>ATOM
      1 CBD         0.7440    0.5760   -0.3110 c3        1 N8T     -0.132700
      2 CBE         2.1190    1.2020   -0.2790 c3        1 N8T     -0.079400
      3 CAQ         2.6350    1.2450    1.1390 c3        1 N8T     -0.080400
      4 CAP         1.7570    2.1150    2.0120 c3        1 N8T     -0.024100
      5 CAO         0.2950    1.9520    1.7880 ca        1 N8T     -0.166600
      6 CBC        -0.2150    1.2440    0.6410 ca        1 N8T      0.444600
      7 NBB        -1.5110    1.1250    0.3710 nb        1 N8T     -0.675000
      8 CBA        -2.4250    1.6900    1.2300 ca        1 N8T      0.405600
      9 CAZ        -3.8240    1.5590    0.9380 ca        1 N8T     -0.163300
     10 CAY        -4.7610    2.0960    1.7810 ca        1 N8T     -0.127000
     11 CAK        -4.3660    2.7820    2.9530 ca        1 N8T     -0.127000
     12 CAL        -3.0340    2.9290    3.2560 ca        1 N8T     -0.121000
     13 CAM        -2.0300    2.3990    2.4030 ca        1 N8T     -0.169300
     14 CAN        -0.6190    2.5390    2.6660 ca        1 N8T      0.121600
     15 NAA        -0.1490    3.3220    3.7620 nu        1 N8T     -0.713600
     16 CAB         0.0130    2.5780    5.0010 c3        1 N8T      0.165800
     17 CAC         0.4790    3.4610    6.1570 c3        1 N8T     -0.084400
     18 CAD         0.6670    2.6240    7.4040 c3        1 N8T     -0.079400
     19 CAE         1.1270    3.4760    8.5680 c3        1 N8T     -0.078400
     20 CAF         1.3180    2.6410    9.8160 c3        1 N8T     -0.079400
     21 CAG         1.7790    3.4940   10.9790 c3        1 N8T     -0.077400
     22 CAH         1.9670    2.6560   12.2270 c3        1 N8T     -0.071400
     23 CAI         2.4450    3.5050   13.3790 c3        1 N8T     -0.029300
     24 SAJ         2.4440    2.4610   14.8120 ss        1 N8T     -0.216000
     25 CAU         3.6950    3.0260   15.8320 ca        1 N8T      0.024900
     26 CAV         3.8510    4.3370   16.2480 ca        1 N8T     -0.160600
     27 CAW         2.9370    5.4000   15.7540 c3        1 N8T     -0.044100
     28 CAX         2.9500    6.6570   16.5940 c3        1 N8T     -0.076400
     29 CBL         4.3730    7.0940   16.8530 c3        1 N8T     -0.080400
     30 CBK         5.1020    6.0580   17.6770 c3        1 N8T     -0.132700
     31 CBJ         4.9190    4.6490   17.1710 ca        1 N8T      0.439600
     32 NBI         5.7520    3.7300   17.6490 nb        1 N8T     -0.663000
     33 CBH         5.5930    2.4190   17.2600 ca        1 N8T      0.398600
     34 CAT         4.5730    2.0200   16.3450 ca        1 N8T     -0.123300
     35 CAS         4.4690    0.6520   15.9780 ca        1 N8T     -0.111000
     36 CAR         5.3290   -0.2810   16.5010 ca        1 N8T     -0.128000
     37 CBF         6.3370    0.1070   17.4140 ca        1 N8T     -0.125000
     38 CBG         6.4760    1.4200   17.7870 ca        1 N8T     -0.167300
     39 HBD1        0.8150   -0.5080   -0.0190 hc        1 N8T      0.065200
     40 HBD2        0.3430    0.6130   -1.3600 hc        1 N8T      0.065200
     41 HBE1        2.8130    0.6020   -0.9240 hc        1 N8T      0.046700
     42 HBE2        2.0790    2.2400   -0.7020 hc        1 N8T      0.046700
     43 HAQ1        3.6820    1.6470    1.1550 hc        1 N8T      0.042700
     44 HAQ2        2.6720    0.2030    1.5550 hc        1 N8T      0.042700
     45 HAP1        2.0060    1.9000    3.0870 hc        1 N8T      0.059200
     46 HAP2        2.0100    3.1980    1.8310 hc        1 N8T      0.059200
     47 HAZ        -4.1270    1.0200    0.0270 ha        1 N8T      0.150000
     48 HAY        -5.8340    1.9960    1.5580 ha        1 N8T      0.135000
     49 HAK        -5.1390    3.1940    3.6180 ha        1 N8T      0.133000
     50 HAL        -2.7520    3.4550    4.1790 ha        1 N8T      0.126000
     51 HAA        -0.7480    4.1160    3.9030 hn        1 N8T      0.373800
     52 HAB1        0.7810    1.7720    4.8210 h1        1 N8T      0.037700
     53 HAB2       -0.9460    2.0630    5.3080 h1        1 N8T      0.037700
     54 HAC1       -0.2760    4.2670    6.3560 hc        1 N8T      0.047700
     55 HAC2        1.4440    3.9660    5.8900 hc        1 N8T      0.047700
     56 HAD1       -0.2970    2.1150    7.6690 hc        1 N8T      0.042700
     57 HAD2        1.4230    1.8180    7.2070 hc        1 N8T      0.042700
     58 HAE1        2.0920    3.9850    8.3030 hc        1 N8T      0.041700
     59 HAE2        0.3720    4.2820    8.7660 hc        1 N8T      0.041700
     60 HAF1        0.3540    2.1330   10.0810 hc        1 N8T      0.042700
     61 HAF2        2.0730    1.8350    9.6170 hc        1 N8T      0.042700
     62 HAG1        2.7460    3.9990   10.7160 hc        1 N8T      0.041700
     63 HAG2        1.0260    4.3010   11.1760 hc        1 N8T      0.041700
     64 HAH1        2.7100    1.8390   12.0230 hc        1 N8T      0.055200
     65 HAH2        0.9950    2.1620   12.4970 hc        1 N8T      0.055200
     66 HAI1        3.4650    3.9100   13.1740 h1        1 N8T      0.067700
     67 HAI2        1.7560    4.3710   13.5320 h1        1 N8T      0.067700
     68 HAW1        3.2360    5.6660   14.7020 hc        1 N8T      0.057200
     69 HAW2        1.8880    4.9900   15.7120 hc        1 N8T      0.057200
     70 HAX1        2.3890    7.4660   16.0580 hc        1 N8T      0.047700
     71 HAX2        2.4260    6.4730   17.5690 hc        1 N8T      0.047700
     72 HBL1        4.3820    8.0720   17.4020 hc        1 N8T      0.046700
     73 HBL2        4.9040    7.2520   15.8770 hc        1 N8T      0.046700
     74 HBK1        6.1960    6.3140   17.7090 hc        1 N8T      0.066200
     75 HBK2        4.7210    6.0900   18.7350 hc        1 N8T      0.066200
     76 HAS         3.6840    0.3580   15.2610 ha        1 N8T      0.154000
     77 HAR         5.2440   -1.3400   16.2160 ha        1 N8T      0.134000
     78 HBF         7.0130   -0.6600   17.8210 ha        1 N8T      0.134000
     79 HBG         7.2620    1.7250   18.4950 ha        1 N8T      0.149000
@<TRIPOS>BOND
     1    1    2 1   
     2    1    6 1   
     3    1   39 1   
     4    1   40 1   
     5    2    3 1   
     6    2   41 1   
     7    2   42 1   
     8    3    4 1   
     9    3   43 1   
    10    3   44 1   
    11    4    5 1   
    12    4   45 1   
    13    4   46 1   
    14    5    6 ar  
    15    5   14 ar  
    16    6    7 ar  
    17    7    8 ar  
    18    8    9 ar  
    19    8   13 ar  
    20    9   10 ar  
    21    9   47 1   
    22   10   11 ar  
    23   10   48 1   
    24   11   12 ar  
    25   11   49 1   
    26   12   13 ar  
    27   12   50 1   
    28   13   14 ar  
    29   14   15 1   
    30   15   16 1   
    31   15   51 1   
    32   16   17 1   
    33   16   52 1   
    34   16   53 1   
    35   17   18 1   
    36   17   54 1   
    37   17   55 1   
    38   18   19 1   
    39   18   56 1   
    40   18   57 1   
    41   19   20 1   
    42   19   58 1   
    43   19   59 1   
    44   20   21 1   
    45   20   60 1   
    46   20   61 1   
    47   21   22 1   
    48   21   62 1   
    49   21   63 1   
    50   22   23 1   
    51   22   64 1   
    52   22   65 1   
    53   23   24 1   
    54   23   66 1   
    55   23   67 1   
    56   24   25 1   
    57   25   26 ar  
    58   25   34 ar  
    59   26   27 1   
    60   26   31 ar  
    61   27   28 1   
    62   27   68 1   
    63   27   69 1   
    64   28   29 1   
    65   28   70 1   
    66   28   71 1   
    67   29   30 1   
    68   29   72 1   
    69   29   73 1   
    70   30   31 1   
    71   30   74 1   
    72   30   75 1   
    73   31   32 ar  
    74   32   33 ar  
    75   33   34 ar  
    76   33   38 ar  
    77   34   35 ar  
    78   35   36 ar  
    79   35   76 1   
    80   36   37 ar  
    81   36   77 1   
    82   37   38 ar  
    83   37   78 1   
    84   38   79 1   
@<TRIPOS>SUBSTRUCTURE
     1 N8T         1 TEMP              0 ****  ****    0 ROOT
