@<TRIPOS>MOLECULE
N8V
   50    50     1     0     0
SMALL
bcc


@<TRIPOS>ATOM
      1 O2          0.1010   -0.1260   -0.0950 oh        1 N8V     -0.624800
      2 C2          1.5100   -0.0910    0.0090 c3        1 N8V      0.124100
      3 C3          1.9960   -0.0110    1.4640 c3        1 N8V      0.078100
      4 O3          1.4540   -1.1530    2.1070 oh        1 N8V     -0.599800
      5 C4          3.5350   -0.0790    1.4850 c3        1 N8V      0.138300
      6 O4          3.9920   -1.3780    1.1430 oh        1 N8V     -0.583800
      7 C1          1.9690    1.1950   -0.7230 c3        1 N8V      0.177700
      8 C7          3.4270    1.4340   -0.5130 c2        1 N8V     -0.240200
      9 C5          4.1300    0.8720    0.4800 c2        1 N8V     -0.018400
     10 C6          5.5900    1.1280    0.6800 c3        1 N8V      0.155600
     11 O6          6.0590    1.9710   -0.3600 oh        1 N8V     -0.611800
     12 N8          1.6140    1.0910   -2.1870 ny        1 N8V     -0.760000
     13 C9          1.5530    2.4190   -2.8630 c3        1 N8V      0.101800
     14 C10         1.2510    2.2990   -4.3510 c3        1 N8V     -0.109400
     15 C11         1.1970    3.6850   -4.9650 c3        1 N8V     -0.078400
     16 C12         0.9000    3.6010   -6.4470 c3        1 N8V     -0.079400
     17 C13         0.8440    4.9820   -7.0660 c3        1 N8V     -0.079400
     18 C14         0.5480    4.9020   -8.5490 c3        1 N8V     -0.079400
     19 C15         0.4900    6.2820   -9.1710 c3        1 N8V     -0.079400
     20 C16         0.1970    6.2080  -10.6470 c3        1 N8V     -0.095100
     21 H1         -0.2220   -0.7810    0.5430 ho        1 N8V      0.462000
     22 H2          1.9500   -1.0160   -0.4650 h1        1 N8V      0.087700
     23 H3          1.6350    0.9350    1.9510 h1        1 N8V      0.074700
     24 H4          1.4400   -0.9740    3.0560 ho        1 N8V      0.436000
     25 H5          3.9000    0.1820    2.5210 h1        1 N8V      0.070700
     26 H6          3.4990   -2.0060    1.6930 ho        1 N8V      0.434000
     27 H7          1.3740    2.0710   -0.3140 hx        1 N8V      0.119700
     28 H8          3.9200    2.1540   -1.1920 ha        1 N8V      0.175000
     29 H9          5.7520    1.6250    1.6780 h1        1 N8V      0.067700
     30 H10         6.1300    0.1390    0.6640 h1        1 N8V      0.067700
     31 H11         7.0140    2.0520   -0.2390 ho        1 N8V      0.430000
     32 H12         0.6950    0.6320   -2.2550 hn        1 N8V      0.458800
     33 H13         0.7510    3.0290   -2.3550 hx        1 N8V      0.106200
     34 H14         2.5450    2.9340   -2.7110 hx        1 N8V      0.106200
     35 H15         0.2670    1.7820   -4.5120 hc        1 N8V      0.066700
     36 H16         2.0440    1.6940   -4.8660 hc        1 N8V      0.066700
     37 H17         0.4040    4.2950   -4.4560 hc        1 N8V      0.054700
     38 H18         2.1770    4.2080   -4.8060 hc        1 N8V      0.054700
     39 H19         1.6920    2.9920   -6.9580 hc        1 N8V      0.047700
     40 H20        -0.0790    3.0770   -6.6080 hc        1 N8V      0.047700
     41 H21         0.0510    5.5920   -6.5570 hc        1 N8V      0.044700
     42 H22         1.8220    5.5080   -6.9060 hc        1 N8V      0.044700
     43 H23         1.3400    4.2930   -9.0590 hc        1 N8V      0.042700
     44 H24        -0.4300    4.3770   -8.7110 hc        1 N8V      0.042700
     45 H25         1.4680    6.8070   -9.0070 hc        1 N8V      0.040700
     46 H26        -0.3020    6.8900   -8.6590 hc        1 N8V      0.040700
     47 H27        -0.7860    5.7100  -10.8300 hc        1 N8V      0.038033
     48 H28         0.1580    7.2340  -11.0850 hc        1 N8V      0.038033
     49 H29         0.9880    5.6270  -11.1790 hc        1 N8V      0.038033
     50 H82         2.3080    0.5000   -2.6580 hn        1 N8V      0.458800
@<TRIPOS>BOND
     1    1    2 1   
     2    1   21 1   
     3    2    3 1   
     4    2    7 1   
     5    2   22 1   
     6    3    4 1   
     7    3    5 1   
     8    3   23 1   
     9    4   24 1   
    10    5    6 1   
    11    5    9 1   
    12    5   25 1   
    13    6   26 1   
    14    7    8 1   
    15    7   12 1   
    16    7   27 1   
    17    8    9 2   
    18    8   28 1   
    19    9   10 1   
    20   10   11 1   
    21   10   29 1   
    22   10   30 1   
    23   11   31 1   
    24   12   13 1   
    25   12   32 1   
    26   12   50 1   
    27   13   14 1   
    28   13   33 1   
    29   13   34 1   
    30   14   15 1   
    31   14   35 1   
    32   14   36 1   
    33   15   16 1   
    34   15   37 1   
    35   15   38 1   
    36   16   17 1   
    37   16   39 1   
    38   16   40 1   
    39   17   18 1   
    40   17   41 1   
    41   17   42 1   
    42   18   19 1   
    43   18   43 1   
    44   18   44 1   
    45   19   20 1   
    46   19   45 1   
    47   19   46 1   
    48   20   47 1   
    49   20   48 1   
    50   20   49 1   
@<TRIPOS>SUBSTRUCTURE
     1 N8V         1 TEMP              0 ****  ****    0 ROOT
