@<TRIPOS>MOLECULE
N8V
   50    50     1     0     0
SMALL
bcc


@<TRIPOS>ATOM
      1 O2          0.1000   -0.1240   -0.0980 oh        1 N8V     -0.624800
      2 C2          1.5100   -0.0930    0.0040 c3        1 N8V      0.124100
      3 C3          1.9980   -0.0140    1.4590 c3        1 N8V      0.078100
      4 O3          1.4550   -1.1560    2.1010 oh        1 N8V     -0.599800
      5 C4          3.5380   -0.0850    1.4770 c3        1 N8V      0.138300
      6 O4          3.9910   -1.3850    1.1340 oh        1 N8V     -0.583800
      7 C1          1.9700    1.1930   -0.7280 c3        1 N8V      0.177700
      8 C7          3.4290    1.4290   -0.5200 c2        1 N8V     -0.240200
      9 C5          4.1330    0.8650    0.4720 c2        1 N8V     -0.018400
     10 C6          5.5930    1.1190    0.6710 c3        1 N8V      0.155600
     11 O6          6.0620    1.9620   -0.3690 oh        1 N8V     -0.611800
     12 N8          1.6140    1.0900   -2.1910 n4        1 N8V     -0.760000
     13 C9          1.5540    2.4200   -2.8660 c3        1 N8V      0.101800
     14 C10         1.2500    2.3000   -4.3550 c3        1 N8V     -0.109400
     15 C11         1.1990    3.6870   -4.9670 c3        1 N8V     -0.078400
     16 C12         0.8990    3.6050   -6.4500 c3        1 N8V     -0.079400
     17 C13         0.8460    4.9860   -7.0680 c3        1 N8V     -0.079400
     18 C14         0.5470    4.9070   -8.5500 c3        1 N8V     -0.079400
     19 C15         0.4930    6.2870   -9.1720 c3        1 N8V     -0.079400
     20 C16         0.1960    6.2150  -10.6470 c3        1 N8V     -0.095100
     21 H1         -0.2230   -0.7800    0.5400 ho        1 N8V      0.462000
     22 H2          1.9480   -1.0180   -0.4710 h1        1 N8V      0.087700
     23 H3          1.6390    0.9320    1.9460 h1        1 N8V      0.074700
     24 H4          1.4430   -0.9770    3.0510 ho        1 N8V      0.436000
     25 H5          3.9050    0.1740    2.5130 h1        1 N8V      0.070700
     26 H6          3.4980   -2.0130    1.6830 ho        1 N8V      0.434000
     27 H7          1.3770    2.0700   -0.3180 hx        1 N8V      0.119700
     28 H8          3.9220    2.1490   -1.1990 ha        1 N8V      0.175000
     29 H9          6.1310    0.1290    0.6520 h1        1 N8V      0.067700
     30 H10         5.7580    1.6140    1.6680 h1        1 N8V      0.067700
     31 H11         7.0170    2.0410   -0.2500 ho        1 N8V      0.430000
     32 H12         2.3050    0.4990   -2.6640 hn        1 N8V      0.458800
     33 H13         2.5480    2.9320   -2.7160 hx        1 N8V      0.106200
     34 H14         0.7540    3.0310   -2.3570 hx        1 N8V      0.106200
     35 H15         2.0410    1.6940   -4.8700 hc        1 N8V      0.066700
     36 H16         0.2650    1.7860   -4.5140 hc        1 N8V      0.066700
     37 H17         0.4080    4.2990   -4.4570 hc        1 N8V      0.054700
     38 H18         2.1800    4.2080   -4.8110 hc        1 N8V      0.054700
     39 H19         1.6890    2.9940   -6.9620 hc        1 N8V      0.047700
     40 H20        -0.0820    3.0830   -6.6090 hc        1 N8V      0.047700
     41 H21         1.8260    5.5080   -6.9090 hc        1 N8V      0.044700
     42 H22         0.0570    5.5980   -6.5570 hc        1 N8V      0.044700
     43 H23         1.3370    4.2960   -9.0620 hc        1 N8V      0.042700
     44 H24        -0.4320    4.3850   -8.7100 hc        1 N8V      0.042700
     45 H25         1.4730    6.8090   -9.0090 hc        1 N8V      0.040700
     46 H26        -0.2960    6.8980   -8.6580 hc        1 N8V      0.040700
     47 H27         0.9850    5.6310  -11.1810 hc        1 N8V      0.038033
     48 H28         0.1600    7.2410  -11.0850 hc        1 N8V      0.038033
     49 H29        -0.7880    5.7200  -10.8290 hc        1 N8V      0.038033
     50 H82         0.6930    0.6340   -2.2590 hn        1 N8V      0.458800
@<TRIPOS>BOND
     1    1    2 1   
     2    1   21 1   
     3    2    3 1   
     4    2    7 1   
     5    2   22 1   
     6    3    4 1   
     7    3    5 1   
     8    3   23 1   
     9    4   24 1   
    10    5    6 1   
    11    5    9 1   
    12    5   25 1   
    13    6   26 1   
    14    7    8 1   
    15    7   12 1   
    16    7   27 1   
    17    8    9 2   
    18    8   28 1   
    19    9   10 1   
    20   10   11 1   
    21   10   29 1   
    22   10   30 1   
    23   11   31 1   
    24   12   13 1   
    25   12   32 1   
    26   12   50 1   
    27   13   14 1   
    28   13   33 1   
    29   13   34 1   
    30   14   15 1   
    31   14   35 1   
    32   14   36 1   
    33   15   16 1   
    34   15   37 1   
    35   15   38 1   
    36   16   17 1   
    37   16   39 1   
    38   16   40 1   
    39   17   18 1   
    40   17   41 1   
    41   17   42 1   
    42   18   19 1   
    43   18   43 1   
    44   18   44 1   
    45   19   20 1   
    46   19   45 1   
    47   19   46 1   
    48   20   47 1   
    49   20   48 1   
    50   20   49 1   
@<TRIPOS>SUBSTRUCTURE
     1 N8V         1 TEMP              0 ****  ****    0 ROOT
