@<TRIPOS>MOLECULE
N8V
   50    50     1     0     0
SMALL
bcc


@<TRIPOS>ATOM
      1 O2          0.0920   -0.1210   -0.0940 oh        1 N8V     -0.624800
      2 C2          1.5020   -0.0920    0.0080 c3        1 N8V      0.124100
      3 C3          1.9900   -0.0130    1.4630 c3        1 N8V      0.078100
      4 O3          1.4440   -1.1530    2.1070 oh        1 N8V     -0.599800
      5 C4          3.5290   -0.0880    1.4820 c3        1 N8V      0.138300
      6 O4          3.9800   -1.3890    1.1400 oh        1 N8V     -0.583800
      7 C1          1.9660    1.1920   -0.7240 c3        1 N8V      0.177700
      8 C7          3.4250    1.4250   -0.5160 c2        1 N8V     -0.240200
      9 C5          4.1270    0.8600    0.4760 c2        1 N8V     -0.018400
     10 C6          5.5880    1.1100    0.6750 c3        1 N8V      0.155600
     11 O6          6.0600    1.9500   -0.3660 oh        1 N8V     -0.611800
     12 N8          1.6090    1.0890   -2.1880 n4        1 N8V     -0.760000
     13 C9          1.5530    2.4180   -2.8640 c3        1 N8V      0.101800
     14 C10         1.2480    2.2980   -4.3520 c3        1 N8V     -0.109400
     15 C11         1.2000    3.6840   -4.9660 c3        1 N8V     -0.078400
     16 C12         0.8990    3.6010   -6.4480 c3        1 N8V     -0.079400
     17 C13         0.8500    4.9820   -7.0680 c3        1 N8V     -0.079400
     18 C14         0.5490    4.9040   -8.5490 c3        1 N8V     -0.079400
     19 C15         0.4980    6.2830   -9.1720 c3        1 N8V     -0.079400
     20 C16         0.1990    6.2100  -10.6470 c3        1 N8V     -0.095100
     21 H1         -0.2330   -0.7750    0.5440 ho        1 N8V      0.462000
     22 H2          1.9380   -1.0190   -0.4660 h1        1 N8V      0.087700
     23 H3          1.6330    0.9340    1.9500 h1        1 N8V      0.074700
     24 H4          1.4320   -0.9730    3.0560 ho        1 N8V      0.436000
     25 H5          3.8960    0.1710    2.5180 h1        1 N8V      0.070700
     26 H6          3.4850   -2.0150    1.6900 ho        1 N8V      0.434000
     27 H7          1.3750    2.0700   -0.3150 hx        1 N8V      0.119700
     28 H8          3.9200    2.1420   -1.1960 ha        1 N8V      0.175000
     29 H9          5.7530    1.6060    1.6720 h1        1 N8V      0.067700
     30 H10         6.1240    0.1180    0.6580 h1        1 N8V      0.067700
     31 H11         7.0150    2.0270   -0.2460 ho        1 N8V      0.430000
     32 H12         2.3000    0.4950   -2.6600 hn        1 N8V      0.458800
     33 H13         2.5480    2.9280   -2.7140 hx        1 N8V      0.106200
     34 H14         0.7550    3.0310   -2.3560 hx        1 N8V      0.106200
     35 H15         0.2610    1.7860   -4.5110 hc        1 N8V      0.066700
     36 H16         2.0370    1.6890   -4.8680 hc        1 N8V      0.066700
     37 H17         2.1830    4.2020   -4.8110 hc        1 N8V      0.054700
     38 H18         0.4120    4.2980   -4.4560 hc        1 N8V      0.054700
     39 H19         1.6860    2.9870   -6.9600 hc        1 N8V      0.047700
     40 H20        -0.0840    3.0830   -6.6060 hc        1 N8V      0.047700
     41 H21         1.8310    5.5020   -6.9100 hc        1 N8V      0.044700
     42 H22         0.0630    5.5970   -6.5560 hc        1 N8V      0.044700
     43 H23        -0.4330    4.3850   -8.7080 hc        1 N8V      0.042700
     44 H24         1.3350    4.2890   -9.0620 hc        1 N8V      0.042700
     45 H25        -0.2870    6.8970   -8.6580 hc        1 N8V      0.040700
     46 H26         1.4810    6.8020   -9.0110 hc        1 N8V      0.040700
     47 H27         0.1670    7.2370  -11.0860 hc        1 N8V      0.038033
     48 H28         0.9850    5.6230  -11.1810 hc        1 N8V      0.038033
     49 H29        -0.7870    5.7190  -10.8260 hc        1 N8V      0.038033
     50 H82         0.6870    0.6340   -2.2550 hn        1 N8V      0.458800
@<TRIPOS>BOND
     1    1    2 1   
     2    1   21 1   
     3    2    3 1   
     4    2    7 1   
     5    2   22 1   
     6    3    4 1   
     7    3    5 1   
     8    3   23 1   
     9    4   24 1   
    10    5    6 1   
    11    5    9 1   
    12    5   25 1   
    13    6   26 1   
    14    7    8 1   
    15    7   12 1   
    16    7   27 1   
    17    8    9 2   
    18    8   28 1   
    19    9   10 1   
    20   10   11 1   
    21   10   29 1   
    22   10   30 1   
    23   11   31 1   
    24   12   13 1   
    25   12   32 1   
    26   12   50 1   
    27   13   14 1   
    28   13   33 1   
    29   13   34 1   
    30   14   15 1   
    31   14   35 1   
    32   14   36 1   
    33   15   16 1   
    34   15   37 1   
    35   15   38 1   
    36   16   17 1   
    37   16   39 1   
    38   16   40 1   
    39   17   18 1   
    40   17   41 1   
    41   17   42 1   
    42   18   19 1   
    43   18   43 1   
    44   18   44 1   
    45   19   20 1   
    46   19   45 1   
    47   19   46 1   
    48   20   47 1   
    49   20   48 1   
    50   20   49 1   
@<TRIPOS>SUBSTRUCTURE
     1 N8V         1 TEMP              0 ****  ****    0 ROOT
