@<TRIPOS>MOLECULE
N9H
   52    54     1     0     0
SMALL
bcc


@<TRIPOS>ATOM
      1 C1         -4.6930   -1.1140   -0.7140 ca        1 N9H      0.109900
      2 C2         -3.2970   -1.1150   -0.5740 ca        1 N9H     -0.133000
      3 C3         -2.6160    0.0660   -0.2590 ca        1 N9H     -0.109900
      4 C4         -3.3560    1.2580   -0.0830 ca        1 N9H      0.139900
      5 C5         -4.7590    1.2500   -0.2260 ca        1 N9H     -0.147000
      6 C6         -5.4260    0.0760   -0.5400 ca        1 N9H     -0.133000
      7 C10        -1.1680    0.0270   -0.1130 ce        1 N9H      0.335900
      8 N1         -0.3280    0.9570   -0.5420 n2        1 N9H     -0.408300
      9 N12         0.9480    0.5870   -0.3130 n         1 N9H     -0.240800
     10 C13         1.0420   -0.7090    0.4660 c3        1 N9H      0.159700
     11 C14        -0.4670   -1.1470    0.5510 c3        1 N9H     -0.154700
     12 C17         1.8080   -1.7460   -0.3270 ca        1 N9H     -0.078300
     13 C19         1.4060   -2.0270   -1.6420 ca        1 N9H     -0.108500
     14 C20         2.0670   -2.9920   -2.3970 ca        1 N9H     -0.134500
     15 C21         3.1410   -3.6950   -1.8490 ca        1 N9H     -0.122000
     16 C22         3.5480   -3.4210   -0.5460 ca        1 N9H     -0.134500
     17 C23         2.8890   -2.4510    0.2110 ca        1 N9H     -0.108500
     18 C29         2.0340    1.5290   -0.3150 c         1 N9H      0.783100
     19 N30         1.8060    2.8600   -0.6810 n         1 N9H     -0.524900
     20 C31         2.9290    3.6780   -1.0690 c3        1 N9H      0.076000
     21 O39         3.1670    1.1300    0.0350 o         1 N9H     -0.614100
     22 F40        -2.7450    2.4210    0.2370 f         1 N9H     -0.121900
     23 F41        -5.3400   -2.2640   -1.0200 f         1 N9H     -0.134900
     24 C7          1.6160   -0.5280    1.8770 c3        1 N9H     -0.095400
     25 C8          0.9490    0.5650    2.6860 c3        1 N9H     -0.087400
     26 C9          3.2090    3.7360   -2.5630 c3        1 N9H     -0.129100
     27 C11         1.4040    0.4720    4.1440 c3        1 N9H      0.161800
     28 N2          0.8760    1.5280    4.9750 n3        1 N9H     -0.914800
     29 H2         -2.7400   -2.0540   -0.7200 ha        1 N9H      0.157000
     30 H5         -5.3160    2.1880   -0.0860 ha        1 N9H      0.158000
     31 H6         -6.5200    0.0650   -0.6550 ha        1 N9H      0.157000
     32 H141       -0.8030   -1.2810    1.6050 hc        1 N9H      0.078200
     33 H142       -0.6430   -2.0950   -0.0120 hc        1 N9H      0.078200
     34 H19         0.5630   -1.4770   -2.0890 ha        1 N9H      0.136500
     35 H20         1.7430   -3.1970   -3.4280 ha        1 N9H      0.132000
     36 H21         3.6640   -4.4570   -2.4450 ha        1 N9H      0.132000
     37 H22         4.3970   -3.9660   -0.1090 ha        1 N9H      0.132000
     38 H23         3.2500   -2.2510    1.2310 ha        1 N9H      0.136500
     39 HN30        0.9460    3.0890   -1.1290 hn        1 N9H      0.314500
     40 H311        3.8510    3.3080   -0.5340 h1        1 N9H      0.068200
     41 H312        2.7030    4.7200   -0.6990 h1        1 N9H      0.068200
     42 H71         1.5050   -1.5110    2.4080 hc        1 N9H      0.069700
     43 H72         2.7120   -0.2900    1.7970 hc        1 N9H      0.069700
     44 H81         1.2290    1.5690    2.2710 hc        1 N9H      0.053200
     45 H82        -0.1670    0.4770    2.6290 hc        1 N9H      0.053200
     46 H91         3.4840    2.7290   -2.9580 hc        1 N9H      0.043367
     47 H92         2.3220    4.1100   -3.1290 hc        1 N9H      0.043367
     48 H93         4.0630    4.4320   -2.7430 hc        1 N9H      0.043367
     49 H111        1.1320   -0.5560    4.5300 h1        1 N9H      0.024200
     50 H112        2.5280    0.5510    4.1770 h1        1 N9H      0.024200
     51 HN21       -0.1140    1.6180    4.8620 hn        1 N9H      0.348800
     52 HN22        1.0850    1.3510    5.9360 hn        1 N9H      0.348800
@<TRIPOS>BOND
     1    1    2 ar  
     2    1    6 ar  
     3    1   23 1   
     4    2    3 ar  
     5    2   29 1   
     6    3    4 ar  
     7    3    7 1   
     8    4    5 ar  
     9    4   22 1   
    10    5    6 ar  
    11    5   30 1   
    12    6   31 1   
    13    7    8 2   
    14    7   11 1   
    15    8    9 1   
    16    9   10 1   
    17    9   18 1   
    18   10   11 1   
    19   10   12 1   
    20   10   24 1   
    21   11   32 1   
    22   11   33 1   
    23   12   13 ar  
    24   12   17 ar  
    25   13   14 ar  
    26   13   34 1   
    27   14   15 ar  
    28   14   35 1   
    29   15   16 ar  
    30   15   36 1   
    31   16   17 ar  
    32   16   37 1   
    33   17   38 1   
    34   18   19 1   
    35   18   21 2   
    36   19   20 1   
    37   19   39 1   
    38   20   26 1   
    39   20   40 1   
    40   20   41 1   
    41   24   25 1   
    42   24   42 1   
    43   24   43 1   
    44   25   27 1   
    45   25   44 1   
    46   25   45 1   
    47   26   46 1   
    48   26   47 1   
    49   26   48 1   
    50   27   28 1   
    51   27   49 1   
    52   27   50 1   
    53   28   51 1   
    54   28   52 1   
@<TRIPOS>SUBSTRUCTURE
     1 N9H         1 TEMP              0 ****  ****    0 ROOT
