@<TRIPOS>MOLECULE
N9H
   54    56     1     0     0
SMALL
bcc


@<TRIPOS>ATOM
      1 C1          0.0360   -0.0830    0.1330 ca        1 N9H      0.131900
      2 C2          1.4250   -0.2410    0.2180 ca        1 N9H     -0.130000
      3 C3          2.0990   -0.0180    1.4320 ca        1 N9H     -0.190900
      4 C4          1.3470    0.3830    2.5620 ca        1 N9H      0.169900
      5 C5         -0.0540    0.5450    2.4640 ca        1 N9H     -0.137000
      6 C6         -0.7080    0.3130    1.2680 ca        1 N9H     -0.084000
      7 C10         3.5410   -0.1980    1.4630 ce        1 N9H      0.493900
      8 N1          4.2840   -0.3450    2.5500 n2        1 N9H     -0.535300
      9 N12         5.5950   -0.5570    2.2090 n         1 N9H     -0.191800
     10 C13         5.8320   -0.3460    0.7100 c3        1 N9H      0.156700
     11 C14         4.3610   -0.2400    0.1770 c3        1 N9H     -0.175700
     12 C17         6.5580    0.9500    0.4360 ca        1 N9H     -0.168300
     13 C19         5.9210    2.1590    0.7670 ca        1 N9H     -0.119500
     14 C20         6.5340    3.3810    0.5050 ca        1 N9H     -0.115000
     15 C21         7.7950    3.4180   -0.0930 ca        1 N9H     -0.083000
     16 C22         8.4350    2.2250   -0.4220 ca        1 N9H     -0.115000
     17 C23         7.8230    0.9980   -0.1580 ca        1 N9H     -0.119500
     18 C29         6.6200   -0.2110    3.1050 c         1 N9H      0.651100
     19 N30         6.2330    0.3870    4.4560 ny        1 N9H     -0.653800
     20 C31         7.4270    0.6660    5.3170 c3        1 N9H      0.116800
     21 O39         7.8110   -0.4810    2.9460 o         1 N9H     -0.473100
     22 F40         1.9380    0.6370    3.7500 f         1 N9H     -0.124900
     23 F41        -0.5920   -0.3110   -1.0410 f         1 N9H     -0.107900
     24 C7          6.5830   -1.5430    0.1140 c3        1 N9H     -0.079400
     25 C8          5.9450   -2.9020    0.3330 c3        1 N9H     -0.103400
     26 C9          7.0400    1.2730    6.6470 c3        1 N9H     -0.140100
     27 C11         6.7850   -3.9470   -0.4000 c3        1 N9H      0.095800
     28 N2          6.2470   -5.3320   -0.2680 nz        1 N9H     -0.837600
     29 H2          1.9790   -0.5390   -0.6850 ha        1 N9H      0.152000
     30 H5         -0.6180    0.8610    3.3590 ha        1 N9H      0.183000
     31 H6         -1.8010    0.4370    1.1860 ha        1 N9H      0.188000
     32 H141        4.2070    0.6880   -0.4290 hc        1 N9H      0.106200
     33 H142        4.0870   -1.1210   -0.4490 hc        1 N9H      0.106200
     34 H19         4.9170    2.1540    1.2200 ha        1 N9H      0.132000
     35 H20         6.0170    4.3210    0.7590 ha        1 N9H      0.161500
     36 H21         8.2770    4.3860   -0.3090 ha        1 N9H      0.168000
     37 H22         9.4300    2.2450   -0.8970 ha        1 N9H      0.161500
     38 H23         8.3670    0.0820   -0.4320 ha        1 N9H      0.132000
     39 HN30        5.7190    1.2620    4.2970 hn        1 N9H      0.467300
     40 H311        8.1050    1.3620    4.7420 hx        1 N9H      0.114700
     41 H312        7.9740   -0.3090    5.4670 hx        1 N9H      0.114700
     42 H71         6.6750   -1.3450   -0.9890 hc        1 N9H      0.085700
     43 H72         7.6180   -1.5650    0.5580 hc        1 N9H      0.085700
     44 H81         4.8930   -2.9160   -0.0560 hc        1 N9H      0.073200
     45 H82         5.9070   -3.1390    1.4300 hc        1 N9H      0.073200
     46 H91         7.9820    1.4510    7.2290 hc        1 N9H      0.084700
     47 H92         6.5200    2.2550    6.5240 hc        1 N9H      0.084700
     48 H93         6.3890    0.5890    7.2450 hc        1 N9H      0.084700
     49 H111        7.8380   -3.9490    0.0090 hx        1 N9H      0.119200
     50 H112        6.8290   -3.7030   -1.5030 hx        1 N9H      0.119200
     51 HN21        5.2990   -5.3860   -0.6560 hn        1 N9H      0.468133
     52 HN22        6.2120   -5.6090    0.7190 hn        1 N9H      0.468133
     53 H302        5.6020   -0.2590    4.9470 hn        1 N9H      0.467300
     54 H231        6.8520   -5.9900   -0.7750 hn        1 N9H      0.468133
@<TRIPOS>BOND
     1    1    2 ar  
     2    1    6 ar  
     3    1   23 1   
     4    2    3 ar  
     5    2   29 1   
     6    3    4 ar  
     7    3    7 1   
     8    4    5 ar  
     9    4   22 1   
    10    5    6 ar  
    11    5   30 1   
    12    6   31 1   
    13    7    8 2   
    14    7   11 1   
    15    8    9 1   
    16    9   10 1   
    17    9   18 1   
    18   10   11 1   
    19   10   12 1   
    20   10   24 1   
    21   11   32 1   
    22   11   33 1   
    23   12   13 ar  
    24   12   17 ar  
    25   13   14 ar  
    26   13   34 1   
    27   14   15 ar  
    28   14   35 1   
    29   15   16 ar  
    30   15   36 1   
    31   16   17 ar  
    32   16   37 1   
    33   17   38 1   
    34   18   19 1   
    35   18   21 2   
    36   19   20 1   
    37   19   39 1   
    38   19   53 1   
    39   20   26 1   
    40   20   40 1   
    41   20   41 1   
    42   24   25 1   
    43   24   42 1   
    44   24   43 1   
    45   25   27 1   
    46   25   44 1   
    47   25   45 1   
    48   26   46 1   
    49   26   47 1   
    50   26   48 1   
    51   27   28 1   
    52   27   49 1   
    53   27   50 1   
    54   28   51 1   
    55   28   52 1   
    56   28   54 1   
@<TRIPOS>SUBSTRUCTURE
     1 N9H         1 TEMP              0 ****  ****    0 ROOT
