@<TRIPOS>MOLECULE
N9H
   54    56     1     0     0
SMALL
bcc


@<TRIPOS>ATOM
      1 C1          0.0310   -0.1030    0.1530 ca        1 N9H      0.131900
      2 C2          1.4200   -0.2560    0.2330 ca        1 N9H     -0.130000
      3 C3          2.0980   -0.0300    1.4440 ca        1 N9H     -0.190900
      4 C4          1.3480    0.3690    2.5760 ca        1 N9H      0.169900
      5 C5         -0.0530    0.5250    2.4840 ca        1 N9H     -0.137000
      6 C6         -0.7110    0.2910    1.2900 ca        1 N9H     -0.084000
      7 C10         3.5400   -0.2040    1.4690 ce        1 N9H      0.493900
      8 N1          4.2880   -0.3470    2.5540 n2        1 N9H     -0.535300
      9 N12         5.5990   -0.5540    2.2080 n         1 N9H     -0.191800
     10 C13         5.8290   -0.3460    0.7080 c3        1 N9H      0.156700
     11 C14         4.3560   -0.2450    0.1810 c3        1 N9H     -0.175700
     12 C17         6.5490    0.9530    0.4290 ca        1 N9H     -0.168300
     13 C19         5.9100    2.1600    0.7610 ca        1 N9H     -0.119500
     14 C20         6.5170    3.3840    0.4940 ca        1 N9H     -0.115000
     15 C21         7.7760    3.4240   -0.1100 ca        1 N9H     -0.083000
     16 C22         8.4190    2.2320   -0.4390 ca        1 N9H     -0.115000
     17 C23         7.8120    1.0040   -0.1700 ca        1 N9H     -0.119500
     18 C29         6.6260   -0.2030    3.1000 c         1 N9H      0.651100
     19 N30         6.2420    0.3960    4.4510 n4        1 N9H     -0.653800
     20 C31         7.4380    0.6810    5.3070 c3        1 N9H      0.116800
     21 O39         7.8180   -0.4690    2.9360 o         1 N9H     -0.473100
     22 F40         1.9430    0.6260    3.7620 f         1 N9H     -0.124900
     23 F41        -0.6020   -0.3340   -1.0190 f         1 N9H     -0.107900
     24 C7          6.5820   -1.5410    0.1110 c3        1 N9H     -0.079400
     25 C8          5.9490   -2.9020    0.3360 c3        1 N9H     -0.103400
     26 C9          7.0540    1.2890    6.6380 c3        1 N9H     -0.140100
     27 C11         6.7890   -3.9450   -0.4010 c3        1 N9H      0.095800
     28 N2          6.2570   -5.3320   -0.2630 n4        1 N9H     -0.837600
     29 H2          1.9720   -0.5520   -0.6720 ha        1 N9H      0.152000
     30 H5         -0.6150    0.8390    3.3810 ha        1 N9H      0.183000
     31 H6         -1.8050    0.4100    1.2120 ha        1 N9H      0.188000
     32 H141        4.1960    0.6810   -0.4260 hc        1 N9H      0.106200
     33 H142        4.0820   -1.1290   -0.4430 hc        1 N9H      0.106200
     34 H19         4.9070    2.1520    1.2170 ha        1 N9H      0.132000
     35 H20         5.9980    4.3220    0.7490 ha        1 N9H      0.161500
     36 H21         8.2540    4.3930   -0.3300 ha        1 N9H      0.168000
     37 H22         9.4110    2.2560   -0.9180 ha        1 N9H      0.161500
     38 H23         8.3580    0.0890   -0.4460 ha        1 N9H      0.132000
     39 HN30        5.7240    1.2690    4.2920 hn        1 N9H      0.467300
     40 H311        7.9900   -0.2910    5.4560 hx        1 N9H      0.114700
     41 H312        8.1120    1.3790    4.7280 hx        1 N9H      0.114700
     42 H71         7.6190   -1.5580    0.5510 hc        1 N9H      0.085700
     43 H72         6.6680   -1.3450   -0.9930 hc        1 N9H      0.085700
     44 H81         4.8950   -2.9190   -0.0480 hc        1 N9H      0.073200
     45 H82         5.9180   -3.1370    1.4330 hc        1 N9H      0.073200
     46 H91         6.5300    2.2690    6.5140 hc        1 N9H      0.084700
     47 H92         6.4080    0.6040    7.2390 hc        1 N9H      0.084700
     48 H93         7.9980    1.4720    7.2150 hc        1 N9H      0.084700
     49 H111        6.8250   -3.7030   -1.5040 hx        1 N9H      0.119200
     50 H112        7.8450   -3.9430    0.0020 hx        1 N9H      0.119200
     51 HN21        6.8600   -5.9880   -0.7730 hn        1 N9H      0.468133
     52 HN22        6.2280   -5.6070    0.7250 hn        1 N9H      0.468133
     53 H302        5.6150   -0.2510    4.9460 hn        1 N9H      0.467300
     54 H231        5.3060   -5.3900   -0.6460 hn        1 N9H      0.468133
@<TRIPOS>BOND
     1    1    2 ar  
     2    1    6 ar  
     3    1   23 1   
     4    2    3 ar  
     5    2   29 1   
     6    3    4 ar  
     7    3    7 1   
     8    4    5 ar  
     9    4   22 1   
    10    5    6 ar  
    11    5   30 1   
    12    6   31 1   
    13    7    8 2   
    14    7   11 1   
    15    8    9 1   
    16    9   10 1   
    17    9   18 1   
    18   10   11 1   
    19   10   12 1   
    20   10   24 1   
    21   11   32 1   
    22   11   33 1   
    23   12   13 ar  
    24   12   17 ar  
    25   13   14 ar  
    26   13   34 1   
    27   14   15 ar  
    28   14   35 1   
    29   15   16 ar  
    30   15   36 1   
    31   16   17 ar  
    32   16   37 1   
    33   17   38 1   
    34   18   19 1   
    35   18   21 2   
    36   19   20 1   
    37   19   39 1   
    38   19   53 1   
    39   20   26 1   
    40   20   40 1   
    41   20   41 1   
    42   24   25 1   
    43   24   42 1   
    44   24   43 1   
    45   25   27 1   
    46   25   44 1   
    47   25   45 1   
    48   26   46 1   
    49   26   47 1   
    50   26   48 1   
    51   27   28 1   
    52   27   49 1   
    53   27   50 1   
    54   28   51 1   
    55   28   52 1   
    56   28   54 1   
@<TRIPOS>SUBSTRUCTURE
     1 N9H         1 TEMP              0 ****  ****    0 ROOT
