@<TRIPOS>MOLECULE
N9H
   54    56     1     0     0
SMALL
bcc


@<TRIPOS>ATOM
      1 C1          0.0370   -0.0730    0.1260 ca        1 N9H      0.131900
      2 C2          1.4250   -0.2350    0.2130 ca        1 N9H     -0.130000
      3 C3          2.0980   -0.0110    1.4260 ca        1 N9H     -0.190900
      4 C4          1.3470    0.3950    2.5550 ca        1 N9H      0.169900
      5 C5         -0.0540    0.5600    2.4560 ca        1 N9H     -0.137000
      6 C6         -0.7070    0.3270    1.2600 ca        1 N9H     -0.084000
      7 C10         3.5400   -0.1940    1.4590 ce        1 N9H      0.493900
      8 N1          4.2810   -0.3410    2.5470 n2        1 N9H     -0.535300
      9 N12         5.5930   -0.5560    2.2070 n         1 N9H     -0.191800
     10 C13         5.8310   -0.3480    0.7080 c3        1 N9H      0.156700
     11 C14         4.3620   -0.2390    0.1740 c3        1 N9H     -0.175700
     12 C17         6.5600    0.9460    0.4330 ca        1 N9H     -0.168300
     13 C19         5.9260    2.1570    0.7620 ca        1 N9H     -0.119500
     14 C20         6.5420    3.3770    0.4990 ca        1 N9H     -0.115000
     15 C21         7.8040    3.4100   -0.0980 ca        1 N9H     -0.083000
     16 C22         8.4420    2.2150   -0.4240 ca        1 N9H     -0.115000
     17 C23         7.8260    0.9900   -0.1590 ca        1 N9H     -0.119500
     18 C29         6.6170   -0.2110    3.1040 c         1 N9H      0.651100
     19 N30         6.2300    0.3890    4.4540 n4        1 N9H     -0.653800
     20 C31         7.4240    0.6660    5.3160 c3        1 N9H      0.116800
     21 O39         7.8080   -0.4840    2.9460 o         1 N9H     -0.473100
     22 F40         1.9380    0.6510    3.7420 f         1 N9H     -0.124900
     23 F41        -0.5920   -0.3020   -1.0480 f         1 N9H     -0.107900
     24 C7          6.5800   -1.5470    0.1140 c3        1 N9H     -0.079400
     25 C8          5.9390   -2.9050    0.3350 c3        1 N9H     -0.103400
     26 C9          7.0370    1.2750    6.6450 c3        1 N9H     -0.140100
     27 C11         6.7770   -3.9520   -0.3970 c3        1 N9H      0.095800
     28 N2          6.2360   -5.3360   -0.2630 n4        1 N9H     -0.837600
     29 H2          1.9790   -0.5360   -0.6890 ha        1 N9H      0.152000
     30 H5         -0.6170    0.8790    3.3490 ha        1 N9H      0.183000
     31 H6         -1.8000    0.4530    1.1770 ha        1 N9H      0.188000
     32 H141        4.0850   -1.1210   -0.4520 hc        1 N9H      0.106200
     33 H142        4.2100    0.6890   -0.4340 hc        1 N9H      0.106200
     34 H19         4.9210    2.1540    1.2140 ha        1 N9H      0.132000
     35 H20         6.0270    4.3190    0.7520 ha        1 N9H      0.161500
     36 H21         8.2890    4.3770   -0.3150 ha        1 N9H      0.168000
     37 H22         9.4370    2.2330   -0.8980 ha        1 N9H      0.161500
     38 H23         8.3690    0.0730   -0.4320 ha        1 N9H      0.132000
     39 HN30        5.5970   -0.2550    4.9450 hn        1 N9H      0.467300
     40 H311        7.9690   -0.3100    5.4670 hx        1 N9H      0.114700
     41 H312        8.1050    1.3600    4.7410 hx        1 N9H      0.114700
     42 H71         7.6150   -1.5710    0.5600 hc        1 N9H      0.085700
     43 H72         6.6730   -1.3510   -0.9890 hc        1 N9H      0.085700
     44 H81         4.8870   -2.9160   -0.0550 hc        1 N9H      0.073200
     45 H82         5.8990   -3.1400    1.4310 hc        1 N9H      0.073200
     46 H91         6.5200    2.2580    6.5200 hc        1 N9H      0.084700
     47 H92         7.9800    1.4520    7.2270 hc        1 N9H      0.084700
     48 H93         6.3840    0.5940    7.2430 hc        1 N9H      0.084700
     49 H111        7.8300   -3.9560    0.0130 hx        1 N9H      0.119200
     50 H112        6.8220   -3.7100   -1.5000 hx        1 N9H      0.119200
     51 HN21        6.8390   -5.9960   -0.7700 hn        1 N9H      0.468133
     52 HN22        6.1990   -5.6120    0.7240 hn        1 N9H      0.468133
     53 H302        5.7190    1.2650    4.2930 hn        1 N9H      0.467300
     54 H231        5.2880   -5.3880   -0.6520 hn        1 N9H      0.468133
@<TRIPOS>BOND
     1    1    2 ar  
     2    1    6 ar  
     3    1   23 1   
     4    2    3 ar  
     5    2   29 1   
     6    3    4 ar  
     7    3    7 1   
     8    4    5 ar  
     9    4   22 1   
    10    5    6 ar  
    11    5   30 1   
    12    6   31 1   
    13    7    8 2   
    14    7   11 1   
    15    8    9 1   
    16    9   10 1   
    17    9   18 1   
    18   10   11 1   
    19   10   12 1   
    20   10   24 1   
    21   11   32 1   
    22   11   33 1   
    23   12   13 ar  
    24   12   17 ar  
    25   13   14 ar  
    26   13   34 1   
    27   14   15 ar  
    28   14   35 1   
    29   15   16 ar  
    30   15   36 1   
    31   16   17 ar  
    32   16   37 1   
    33   17   38 1   
    34   18   19 1   
    35   18   21 2   
    36   19   20 1   
    37   19   39 1   
    38   19   53 1   
    39   20   26 1   
    40   20   40 1   
    41   20   41 1   
    42   24   25 1   
    43   24   42 1   
    44   24   43 1   
    45   25   27 1   
    46   25   44 1   
    47   25   45 1   
    48   26   46 1   
    49   26   47 1   
    50   26   48 1   
    51   27   28 1   
    52   27   49 1   
    53   27   50 1   
    54   28   51 1   
    55   28   52 1   
    56   28   54 1   
@<TRIPOS>SUBSTRUCTURE
     1 N9H         1 TEMP              0 ****  ****    0 ROOT
