@<TRIPOS>MOLECULE
NA1
   34    34     1     0     0
SMALL
bcc


@<TRIPOS>ATOM
      1 C1          0.0230    0.2140    0.0180 c3        1 NA1      0.330900
      2 C2          1.5660    0.0430   -0.0400 c3        1 NA1      0.059500
      3 C3          2.0800    0.0260    1.4220 c3        1 NA1      0.101100
      4 C4          1.3420   -1.0300    2.2710 c3        1 NA1      0.108100
      5 C5         -0.1820   -0.9760    2.0920 c3        1 NA1      0.136100
      6 C6         -0.8060    0.1400    2.9380 c3        1 NA1      0.101400
      7 C7          3.3370   -1.2030   -1.3470 c         1 NA1      0.568100
      8 C8          3.7330   -2.4620   -2.0420 c3        1 NA1     -0.189100
      9 N2          1.9350   -1.2040   -0.7830 ny        1 NA1     -0.669800
     10 O1         -0.4870    0.0430   -1.2800 oh        1 NA1     -0.616800
     11 O3          3.4450   -0.3380    1.4520 oh        1 NA1     -0.600800
     12 O4          1.7680   -2.3250    1.8740 oh        1 NA1     -0.620800
     13 O5         -0.5790   -0.8510    0.7280 os        1 NA1     -0.444600
     14 O6         -0.4670   -0.1450    4.2880 os        1 NA1     -0.428600
     15 C9         -1.2910    0.5380    5.2250 c3        1 NA1      0.113700
     16 O7          4.0070   -0.1950   -1.1840 o         1 NA1     -0.423100
     17 H1C1       -0.2330    1.2210    0.4470 h2        1 NA1      0.090700
     18 H2          2.0130    0.9180   -0.5980 hx        1 NA1      0.130700
     19 H3          1.9100    1.0510    1.8540 h1        1 NA1      0.092700
     20 H4          1.5800   -0.8520    3.3600 h1        1 NA1      0.118700
     21 H5         -0.6180   -1.9760    2.3930 h1        1 NA1      0.135700
     22 H6C1       -1.9190    0.1440    2.7900 h1        1 NA1      0.045700
     23 H6C2       -0.3900    1.1450    2.6600 h1        1 NA1      0.045700
     24 H8C1        4.7600   -2.3240   -2.4720 hc        1 NA1      0.113367
     25 H8C2        3.7600   -3.3170   -1.3180 hc        1 NA1      0.113367
     26 H8C3        3.0250   -2.7060   -2.8740 hc        1 NA1      0.113367
     27 HA          1.8400   -2.0080   -0.1350 hn        1 NA1      0.484800
     28 HO1        -1.4360   -0.1480   -1.2100 ho        1 NA1      0.467000
     29 HB          3.9700    0.4460    1.2340 ho        1 NA1      0.442000
     30 HC          2.6050   -2.4990    2.3280 ho        1 NA1      0.443000
     31 H9C1       -1.1950    1.6430    5.0940 h1        1 NA1      0.050700
     32 H9C2       -0.8880    0.2190    6.2200 h1        1 NA1      0.050700
     33 H9C3       -2.3570    0.2230    5.1100 h1        1 NA1      0.050700
     34 H22         1.2590   -1.3250   -1.5530 hn        1 NA1      0.484800
@<TRIPOS>BOND
     1    1    2 1   
     2    1   10 1   
     3    1   13 1   
     4    1   17 1   
     5    2    3 1   
     6    2    9 1   
     7    2   18 1   
     8    3    4 1   
     9    3   11 1   
    10    3   19 1   
    11    4    5 1   
    12    4   12 1   
    13    4   20 1   
    14    5    6 1   
    15    5   13 1   
    16    5   21 1   
    17    6   14 1   
    18    6   22 1   
    19    6   23 1   
    20    7    8 1   
    21    7    9 1   
    22    7   16 2   
    23    8   24 1   
    24    8   25 1   
    25    8   26 1   
    26    9   27 1   
    27    9   34 1   
    28   10   28 1   
    29   11   29 1   
    30   12   30 1   
    31   14   15 1   
    32   15   31 1   
    33   15   32 1   
    34   15   33 1   
@<TRIPOS>SUBSTRUCTURE
     1 NA1         1 TEMP              0 ****  ****    0 ROOT
