@<TRIPOS>MOLECULE
NA1
   34    34     1     0     0
SMALL
bcc


@<TRIPOS>ATOM
      1 C1          0.0290    0.2430    0.0300 c3        1 NA1      0.330900
      2 C2          1.5700    0.0520   -0.0340 c3        1 NA1      0.059500
      3 C3          2.0870    0.0100    1.4260 c3        1 NA1      0.101100
      4 C4          1.3370   -1.0460    2.2640 c3        1 NA1      0.108100
      5 C5         -0.1860   -0.9700    2.0900 c3        1 NA1      0.136100
      6 C6         -0.7930    0.1430    2.9520 c3        1 NA1      0.101400
      7 C7          3.3210   -1.2000   -1.3610 c         1 NA1      0.568100
      8 C8          3.6980   -2.4560   -2.0730 c3        1 NA1     -0.189100
      9 N2          1.9200   -1.1910   -0.7930 n4        1 NA1     -0.669800
     10 O1         -0.4860    0.0940   -1.2680 oh        1 NA1     -0.616800
     11 O3          3.4470   -0.3710    1.4480 oh        1 NA1     -0.600800
     12 O4          1.7450   -2.3420    1.8500 oh        1 NA1     -0.620800
     13 O5         -0.5850   -0.8230    0.7290 os        1 NA1     -0.444600
     14 O6         -0.4540   -0.1640    4.2970 os        1 NA1     -0.428600
     15 C9         -1.2670    0.5180    5.2450 c3        1 NA1      0.113700
     16 O7          4.0050   -0.2040   -1.1870 o         1 NA1     -0.423100
     17 H1C1       -0.2130    1.2470    0.4720 h2        1 NA1      0.090700
     18 H2          2.0260    0.9280   -0.5820 hx        1 NA1      0.130700
     19 H3          1.9320    1.0320    1.8710 h1        1 NA1      0.092700
     20 H4          1.5810   -0.8850    3.3550 h1        1 NA1      0.118700
     21 H5         -0.6340   -1.9680    2.3800 h1        1 NA1      0.135700
     22 H6C1       -0.3650    1.1460    2.6860 h1        1 NA1      0.045700
     23 H6C2       -1.9060    0.1640    2.8070 h1        1 NA1      0.045700
     24 H8C1        2.9850   -2.6800   -2.9060 hc        1 NA1      0.113367
     25 H8C2        3.7160   -3.3200   -1.3600 hc        1 NA1      0.113367
     26 H8C3        4.7260   -2.3250   -2.5040 hc        1 NA1      0.113367
     27 HA          1.2410   -1.2930   -1.5630 hn        1 NA1      0.484800
     28 HO1        -1.4380   -0.0850   -1.1980 ho        1 NA1      0.467000
     29 HB          3.9820    0.4080    1.2380 ho        1 NA1      0.442000
     30 HC          2.5810   -2.5320    2.2990 ho        1 NA1      0.443000
     31 H9C1       -2.3370    0.2190    5.1290 h1        1 NA1      0.050700
     32 H9C2       -1.1570    1.6240    5.1280 h1        1 NA1      0.050700
     33 H9C3       -0.8660    0.1820    6.2340 h1        1 NA1      0.050700
     34 H22         1.8170   -2.0010   -0.1550 hn        1 NA1      0.484800
@<TRIPOS>BOND
     1    1    2 1   
     2    1   10 1   
     3    1   13 1   
     4    1   17 1   
     5    2    3 1   
     6    2    9 1   
     7    2   18 1   
     8    3    4 1   
     9    3   11 1   
    10    3   19 1   
    11    4    5 1   
    12    4   12 1   
    13    4   20 1   
    14    5    6 1   
    15    5   13 1   
    16    5   21 1   
    17    6   14 1   
    18    6   22 1   
    19    6   23 1   
    20    7    8 1   
    21    7    9 1   
    22    7   16 2   
    23    8   24 1   
    24    8   25 1   
    25    8   26 1   
    26    9   27 1   
    27    9   34 1   
    28   10   28 1   
    29   11   29 1   
    30   12   30 1   
    31   14   15 1   
    32   15   31 1   
    33   15   32 1   
    34   15   33 1   
@<TRIPOS>SUBSTRUCTURE
     1 NA1         1 TEMP              0 ****  ****    0 ROOT
