@<TRIPOS>MOLECULE
NA1
   34    34     1     0     0
SMALL
bcc


@<TRIPOS>ATOM
      1 C1          0.0140    0.2110    0.0250 c3        1 NA1      0.330900
      2 C2          1.5570    0.0400   -0.0400 c3        1 NA1      0.059500
      3 C3          2.0780    0.0230    1.4190 c3        1 NA1      0.101100
      4 C4          1.3440   -1.0330    2.2720 c3        1 NA1      0.108100
      5 C5         -0.1810   -0.9790    2.1000 c3        1 NA1      0.136100
      6 C6         -0.8010    0.1360    2.9490 c3        1 NA1      0.101400
      7 C7          3.3210   -1.2030   -1.3580 c         1 NA1      0.567100
      8 C8          3.7130   -2.4600   -2.0600 c3        1 NA1     -0.189100
      9 N2          1.9230   -1.2060   -0.7860 n4        1 NA1     -0.669800
     10 O1         -0.5010    0.0400   -1.2700 oh        1 NA1     -0.616800
     11 O3          3.4430   -0.3400    1.4430 oh        1 NA1     -0.600800
     12 O4          1.7690   -2.3280    1.8720 oh        1 NA1     -0.620800
     13 O5         -0.5840   -0.8540    0.7380 os        1 NA1     -0.444600
     14 O6         -0.4550   -0.1500    4.2970 os        1 NA1     -0.428600
     15 C9         -1.2750    0.5330    5.2380 c3        1 NA1      0.113700
     16 O7          3.9930   -0.1960   -1.1960 o         1 NA1     -0.423100
     17 H1C1       -0.2400    1.2180    0.4550 h2        1 NA1      0.090700
     18 H2          2.0010    0.9160   -0.6000 hx        1 NA1      0.130700
     19 H3          1.9100    1.0480    1.8520 h1        1 NA1      0.092700
     20 H4          1.5880   -0.8550    3.3590 h1        1 NA1      0.118700
     21 H5         -0.6150   -1.9800    2.4020 h1        1 NA1      0.135700
     22 H6C1       -1.9140    0.1400    2.8060 h1        1 NA1      0.045700
     23 H6C2       -0.3870    1.1410    2.6700 h1        1 NA1      0.045700
     24 H8C1        4.7400   -2.3220   -2.4920 hc        1 NA1      0.113367
     25 H8C2        3.0020   -2.6980   -2.8910 hc        1 NA1      0.113367
     26 H8C3        3.7400   -3.3180   -1.3400 hc        1 NA1      0.113367
     27 HA          1.2430   -1.3280   -1.5520 hn        1 NA1      0.484800
     28 HO1        -1.4510   -0.1510   -1.1970 ho        1 NA1      0.467000
     29 HB          3.9670    0.4440    1.2220 ho        1 NA1      0.442000
     30 HC          2.6080   -2.5010    2.3220 ho        1 NA1      0.443000
     31 H9C1       -2.3420    0.2190    5.1280 h1        1 NA1      0.050700
     32 H9C2       -0.8680    0.2140    6.2310 h1        1 NA1      0.050700
     33 H9C3       -1.1800    1.6390    5.1070 h1        1 NA1      0.050700
     34 H22         1.8330   -2.0100   -0.1370 hn        1 NA1      0.484800
@<TRIPOS>BOND
     1    1    2 1   
     2    1   10 1   
     3    1   13 1   
     4    1   17 1   
     5    2    3 1   
     6    2    9 1   
     7    2   18 1   
     8    3    4 1   
     9    3   11 1   
    10    3   19 1   
    11    4    5 1   
    12    4   12 1   
    13    4   20 1   
    14    5    6 1   
    15    5   13 1   
    16    5   21 1   
    17    6   14 1   
    18    6   22 1   
    19    6   23 1   
    20    7    8 1   
    21    7    9 1   
    22    7   16 2   
    23    8   24 1   
    24    8   25 1   
    25    8   26 1   
    26    9   27 1   
    27    9   34 1   
    28   10   28 1   
    29   11   29 1   
    30   12   30 1   
    31   14   15 1   
    32   15   31 1   
    33   15   32 1   
    34   15   33 1   
@<TRIPOS>SUBSTRUCTURE
     1 NA1         1 TEMP              0 ****  ****    0 ROOT
