@<TRIPOS>MOLECULE
NA1
   33    33     1     0     0
SMALL
bcc


@<TRIPOS>ATOM
      1 C1          1.9710   -0.8540    1.4600 c3        1 NA1      0.324900
      2 C2          0.7130   -0.1030    1.9830 c3        1 NA1      0.020700
      3 C3         -0.3490   -0.2590    0.8620 c3        1 NA1      0.134100
      4 C4         -0.6050   -1.7380    0.5240 c3        1 NA1      0.075100
      5 C5          0.6940   -2.5320    0.3210 c3        1 NA1      0.122100
      6 C6          1.2460   -2.3270   -1.0950 c3        1 NA1      0.096400
      7 C7          0.1420    0.2590    4.3650 c         1 NA1      0.658100
      8 C8         -0.4430   -0.3510    5.6160 c3        1 NA1     -0.174100
      9 N2          0.2770   -0.5750    3.2670 n         1 NA1     -0.572900
     10 O1          3.0540   -0.8740    2.3380 oh        1 NA1     -0.570800
     11 O3         -1.5520    0.4090    1.1570 oh        1 NA1     -0.576800
     12 O4         -1.3690   -2.2770    1.5960 oh        1 NA1     -0.614800
     13 O5          1.6980   -2.2440    1.2820 os        1 NA1     -0.443600
     14 O6          0.3930   -3.0650   -1.9660 os        1 NA1     -0.427600
     15 C9          0.8590   -3.0690   -3.3060 c3        1 NA1      0.116700
     16 O7          0.5140    1.4470    4.3290 o         1 NA1     -0.598100
     17 H1C1        2.3410   -0.3800    0.5090 h2        1 NA1      0.075700
     18 H2          0.9760    0.9940    2.0780 h1        1 NA1      0.118700
     19 H3          0.0390    0.2600   -0.0620 h1        1 NA1      0.083700
     20 H4         -1.2080   -1.7980   -0.4280 h1        1 NA1      0.074700
     21 H5          0.4890   -3.6320    0.4810 h1        1 NA1      0.091700
     22 H6C1        2.2970   -2.7180   -1.1530 h1        1 NA1      0.042700
     23 H6C2        1.2350   -1.2440   -1.3860 h1        1 NA1      0.042700
     24 H8C1       -0.4790    0.4330    6.4120 hc        1 NA1      0.066700
     25 H8C2       -1.4770   -0.7240    5.4240 hc        1 NA1      0.066700
     26 H8C3        0.1910   -1.1990    5.9710 hc        1 NA1      0.066700
     27 HA         -0.1260   -1.4850    3.2890 hn        1 NA1      0.325500
     28 HO1         2.8100   -1.3990    3.1120 ho        1 NA1      0.425000
     29 HB         -1.9810   -0.0620    1.8840 ho        1 NA1      0.418000
     30 HC         -1.6420   -3.1630    1.3300 ho        1 NA1      0.417000
     31 H9C1        0.9050   -2.0270   -3.7090 h1        1 NA1      0.038033
     32 H9C2        0.0980   -3.6730   -3.8610 h1        1 NA1      0.038033
     33 H9C3        1.8660   -3.5490   -3.3710 h1        1 NA1      0.038033
@<TRIPOS>BOND
     1    1    2 1   
     2    1   10 1   
     3    1   13 1   
     4    1   17 1   
     5    2    3 1   
     6    2    9 1   
     7    2   18 1   
     8    3    4 1   
     9    3   11 1   
    10    3   19 1   
    11    4    5 1   
    12    4   12 1   
    13    4   20 1   
    14    5    6 1   
    15    5   13 1   
    16    5   21 1   
    17    6   14 1   
    18    6   22 1   
    19    6   23 1   
    20    7    8 1   
    21    7    9 1   
    22    7   16 2   
    23    8   24 1   
    24    8   25 1   
    25    8   26 1   
    26    9   27 1   
    27   10   28 1   
    28   11   29 1   
    29   12   30 1   
    30   14   15 1   
    31   15   31 1   
    32   15   32 1   
    33   15   33 1   
@<TRIPOS>SUBSTRUCTURE
     1 NA1         1 TEMP              0 ****  ****    0 ROOT
