@<TRIPOS>MOLECULE
NA3
   25    25     1     0     0
SMALL
bcc


@<TRIPOS>ATOM
      1 C7         -1.5300   -0.5230   -0.0360 ca        1 NA3     -0.026000
      2 C8         -2.6270    0.2080    0.4330 ca        1 NA3     -0.176200
      3 C9         -2.3890    1.4660    1.0230 ca        1 NA3      0.427200
      4 N2         -1.1630    2.0030    1.1550 nb        1 NA3     -0.673000
      5 C10        -0.1080    1.2950    0.7070 ca        1 NA3      0.444200
      6 C6         -0.2510    0.0210    0.1110 ca        1 NA3     -0.253900
      7 BR1        -4.3660   -0.4560    0.2830 br        1 NA3     -0.103100
      8 C5          0.9280   -0.7340   -0.4070 c         1 NA3      0.666700
      9 O4          0.8550   -1.3620   -1.4870 o         1 NA3     -0.630100
     10 N1          2.0500   -0.7630    0.3980 n         1 NA3     -0.501900
     11 C3          3.3490   -1.0450   -0.1800 c3        1 NA3     -0.002300
     12 C2          4.4410   -0.0900    0.3280 c3        1 NA3     -0.218400
     13 C4          3.8460   -2.4600    0.0660 c         1 NA3      0.565900
     14 O3          3.3390   -3.3070    0.8000 o         1 NA3     -0.541100
     15 C1          4.0190    1.3900    0.2360 c         1 NA3      0.915600
     16 O2          4.6660    2.1410   -0.5370 o         1 NA3     -0.840300
     17 O1          3.0540    1.7790    0.9650 o         1 NA3     -0.840300
     18 H7         -1.6510   -1.5050   -0.5220 ha        1 NA3      0.164000
     19 H9         -3.2240    2.0800    1.4090 h4        1 NA3      0.021100
     20 H10         0.8970    1.7760    0.8220 h4        1 NA3      0.109100
     21 HN1         2.0870   -0.0810    1.1410 hn        1 NA3      0.346500
     22 H3          3.2750   -0.9370   -1.3090 h1        1 NA3      0.083700
     23 H21         5.3610   -0.2480   -0.2870 hc        1 NA3      0.043700
     24 H22         4.6780   -0.3160    1.3970 hc        1 NA3      0.043700
     25 H4          4.7810   -2.6820   -0.5020 h4        1 NA3     -0.025800
@<TRIPOS>BOND
     1    1    2 ar  
     2    1    6 ar  
     3    1   18 1   
     4    2    3 ar  
     5    2    7 1   
     6    3    4 ar  
     7    3   19 1   
     8    4    5 ar  
     9    5    6 ar  
    10    5   20 1   
    11    6    8 1   
    12    8    9 2   
    13    8   10 1   
    14   10   11 1   
    15   10   21 1   
    16   11   12 1   
    17   11   13 1   
    18   11   22 1   
    19   12   15 1   
    20   12   23 1   
    21   12   24 1   
    22   13   14 2   
    23   13   25 1   
    24   15   16 1   
    25   15   17 1   
@<TRIPOS>SUBSTRUCTURE
     1 NA3         1 TEMP              0 ****  ****    0 ROOT
