@<TRIPOS>MOLECULE
NA3
   26    26     1     0     0
SMALL
bcc


@<TRIPOS>ATOM
      1 C7          0.2130   -0.4850    0.3290 ca        1 NA3     -0.012000
      2 C8          1.5350   -0.1310    0.0470 ca        1 NA3     -0.163200
      3 C9          2.1970    0.7480    0.9340 ca        1 NA3      0.449200
      4 N2          1.6200    1.2550    2.0380 nb        1 NA3     -0.661000
      5 C10         0.3440    0.9120    2.2980 ca        1 NA3      0.438200
      6 C6         -0.4030    0.0520    1.4690 ca        1 NA3     -0.265900
      7 BR1         2.4130   -0.7980   -1.4530 br        1 NA3     -0.046100
      8 C5         -1.8060   -0.3380    1.7610 c         1 NA3      0.690700
      9 O4         -2.2680   -1.4410    1.3910 o         1 NA3     -0.633100
     10 N1         -2.6010    0.5520    2.4520 n         1 NA3     -0.563900
     11 C3         -3.9930    0.2620    2.6980 c3        1 NA3     -0.007300
     12 C2         -4.2120   -0.8800    3.7140 c3        1 NA3     -0.193400
     13 C4         -4.7890    1.4740    3.1730 c         1 NA3      0.560900
     14 O3         -4.3020    2.5910    3.3340 o         1 NA3     -0.509100
     15 C1         -5.2780   -1.8150    3.2210 c         1 NA3      0.624100
     16 O2         -6.4010   -1.9570    3.7070 o         1 NA3     -0.494000
     17 O1         -5.0280   -2.6010    2.1400 oh        1 NA3     -0.580100
     18 H7         -0.3520   -1.1800   -0.3170 ha        1 NA3      0.178000
     19 H9          3.2440    1.0600    0.7550 h4        1 NA3      0.045100
     20 H10        -0.0760    1.3440    3.2260 h4        1 NA3      0.032100
     21 HN1        -4.1230   -2.4500    1.8130 ho        1 NA3      0.458000
     22 H3         -4.4540   -0.0590    1.7070 h1        1 NA3      0.089700
     23 H21        -3.2670   -1.4720    3.8590 hc        1 NA3      0.093200
     24 H22        -4.5140   -0.4690    4.7120 hc        1 NA3      0.093200
     25 H4         -5.8620    1.2480    3.3600 h4        1 NA3      0.036200
     26 H12        -2.2670    1.4540    2.7030 hn        1 NA3      0.339500
@<TRIPOS>BOND
     1    1    2 ar  
     2    1    6 ar  
     3    1   18 1   
     4    2    3 ar  
     5    2    7 1   
     6    3    4 ar  
     7    3   19 1   
     8    4    5 ar  
     9    5    6 ar  
    10    5   20 1   
    11    6    8 1   
    12    8    9 2   
    13    8   10 1   
    14   10   11 1   
    15   10   26 1   
    16   11   12 1   
    17   11   13 1   
    18   11   22 1   
    19   12   15 1   
    20   12   23 1   
    21   12   24 1   
    22   13   14 2   
    23   13   25 1   
    24   15   16 2   
    25   15   17 1   
    26   17   21 1   
@<TRIPOS>SUBSTRUCTURE
     1 NA3         1 TEMP              0 ****  ****    0 ROOT
