@<TRIPOS>MOLECULE
NA3
   26    26     1     0     0
SMALL
bcc


@<TRIPOS>ATOM
      1 C7          0.1880   -0.4720    0.2940 ca        1 NA3     -0.012000
      2 C8          1.5060   -0.1160   -0.0040 ca        1 NA3     -0.163200
      3 C9          2.1790    0.7580    0.8800 ca        1 NA3      0.449200
      4 N2          1.6180    1.2570    1.9950 nb        1 NA3     -0.661000
      5 C10         0.3460    0.9120    2.2710 ca        1 NA3      0.438200
      6 C6         -0.4130    0.0570    1.4470 ca        1 NA3     -0.265900
      7 Br1         2.3630   -0.7720   -1.5200 br        1 NA3     -0.046100
      8 C5         -1.8110   -0.3350    1.7550 c         1 NA3      0.690700
      9 O4         -2.2790   -1.4350    1.3840 o         1 NA3     -0.633100
     10 N1         -2.5960    0.5490    2.4640 ns        1 NA3     -0.563900
     11 C3         -3.9850    0.2580    2.7280 c3        1 NA3     -0.007300
     12 C2         -4.1890   -0.8930    3.7370 c3        1 NA3     -0.193400
     13 C4         -4.7740    1.4660    3.2240 c         1 NA3      0.560900
     14 O3         -4.2850    2.5810    3.3870 o         1 NA3     -0.509100
     15 C1         -5.2620   -1.8240    3.2530 c         1 NA3      0.624100
     16 O2         -6.3780   -1.9700    3.7530 o         1 NA3     -0.494000
     17 O1         -5.0270   -2.6020    2.1620 oh        1 NA3     -0.580100
     18 H7         -0.3860   -1.1620   -0.3480 ha        1 NA3      0.178000
     19 H9          3.2240    1.0710    0.6890 h4        1 NA3      0.045100
     20 H10        -0.0610    1.3370    3.2080 h4        1 NA3      0.032100
     21 HN1        -4.1280   -2.4480    1.8230 ho        1 NA3      0.458000
     22 H3         -4.4590   -0.0560    1.7410 h1        1 NA3      0.089700
     23 H21        -4.4770   -0.4890    4.7430 hc        1 NA3      0.093200
     24 H22        -3.2420   -1.4850    3.8640 hc        1 NA3      0.093200
     25 H4         -5.8440    1.2380    3.4230 h4        1 NA3      0.036200
     26 H12        -2.2590    1.4490    2.7180 hn        1 NA3      0.339500
@<TRIPOS>BOND
     1    1    2 ar  
     2    1    6 ar  
     3    1   18 1   
     4    2    3 ar  
     5    2    7 1   
     6    3    4 ar  
     7    3   19 1   
     8    4    5 ar  
     9    5    6 ar  
    10    5   20 1   
    11    6    8 1   
    12    8    9 2   
    13    8   10 1   
    14   10   11 1   
    15   10   26 1   
    16   11   12 1   
    17   11   13 1   
    18   11   22 1   
    19   12   15 1   
    20   12   23 1   
    21   12   24 1   
    22   13   14 2   
    23   13   25 1   
    24   15   16 2   
    25   15   17 1   
    26   17   21 1   
@<TRIPOS>SUBSTRUCTURE
     1 NA3         1 TEMP              0 ****  ****    0 ROOT
