@<TRIPOS>MOLECULE
NA3
   26    26     1     0     0
SMALL
bcc


@<TRIPOS>ATOM
      1 C7          0.1790   -0.4960    0.2880 ca        1 NA3     -0.012000
      2 C8          1.4960   -0.1440   -0.0200 ca        1 NA3     -0.163200
      3 C9          2.1750    0.7380    0.8510 ca        1 NA3      0.449200
      4 N2          1.6190    1.2500    1.9630 nb        1 NA3     -0.661000
      5 C10         0.3480    0.9100    2.2480 ca        1 NA3      0.438200
      6 C6         -0.4150    0.0470    1.4370 ca        1 NA3     -0.265900
      7 BR1         2.3450   -0.8190   -1.5330 br        1 NA3     -0.046100
      8 C5         -1.8130   -0.3400    1.7570 c         1 NA3      0.690700
      9 O4         -2.2830   -1.4430    1.4000 o         1 NA3     -0.633100
     10 N1         -2.5940    0.5540    2.4590 n         1 NA3     -0.563900
     11 C3         -3.9810    0.2670    2.7320 c3        1 NA3     -0.007300
     12 C2         -4.1820   -0.8710    3.7560 c3        1 NA3     -0.193400
     13 C4         -4.7670    1.4820    3.2170 c         1 NA3      0.560900
     14 O3         -4.2760    2.5980    3.3650 o         1 NA3     -0.509100
     15 C1         -5.2590   -1.8070    3.2880 c         1 NA3      0.624100
     16 O2         -6.3730   -1.9450    3.7940 o         1 NA3     -0.494000
     17 O1         -5.0300   -2.5970    2.2040 oh        1 NA3     -0.580100
     18 H7         -0.3990   -1.1920   -0.3440 ha        1 NA3      0.178000
     19 H9          3.2190    1.0480    0.6510 h4        1 NA3      0.045100
     20 H10        -0.0540    1.3460    3.1820 h4        1 NA3      0.032100
     21 HN1        -4.1320   -2.4490    1.8600 ho        1 NA3      0.458000
     22 H3         -4.4610   -0.0570    1.7510 h1        1 NA3      0.089700
     23 H21        -4.4650   -0.4560    4.7580 hc        1 NA3      0.093200
     24 H22        -3.2360   -1.4630    3.8850 hc        1 NA3      0.093200
     25 H4         -5.8370    1.2580    3.4240 h4        1 NA3      0.036200
     26 H12        -2.2540    1.4560    2.7000 hn        1 NA3      0.339500
@<TRIPOS>BOND
     1    1    2 ar  
     2    1    6 ar  
     3    1   18 1   
     4    2    3 ar  
     5    2    7 1   
     6    3    4 ar  
     7    3   19 1   
     8    4    5 ar  
     9    5    6 ar  
    10    5   20 1   
    11    6    8 1   
    12    8    9 2   
    13    8   10 1   
    14   10   11 1   
    15   10   26 1   
    16   11   12 1   
    17   11   13 1   
    18   11   22 1   
    19   12   15 1   
    20   12   23 1   
    21   12   24 1   
    22   13   14 2   
    23   13   25 1   
    24   15   16 2   
    25   15   17 1   
    26   17   21 1   
@<TRIPOS>SUBSTRUCTURE
     1 NA3         1 TEMP              0 ****  ****    0 ROOT
