@<TRIPOS>MOLECULE
NA3
   25    22     1     0     0
SMALL
bcc


@<TRIPOS>ATOM
      1 C7          2.4790    0.0840   -1.9280 c1        1 NA3      0.034500
      2 C8          3.7950    0.4720   -1.9320 c1        1 NA3     -0.004200
      3 C9          4.4120    0.8470   -0.7490 c1        1 NA3      0.017500
      4 N2          3.6970    0.8290    0.4360 n1        1 NA3     -0.472800
      5 C10         2.3820    0.4420    0.4400 c1        1 NA3      0.346300
      6 C6          1.7660    0.0670   -0.7460 cg        1 NA3     -0.127200
      7 BR1         4.8050    0.4310   -3.5870 br        1 NA3     -0.176800
      8 C5          0.2790   -0.2010   -0.7730 c         1 NA3      0.614300
      9 O4         -0.2600   -0.3940   -1.7930 o         1 NA3     -0.609100
     10 N1         -0.5090   -0.2690    0.5310 n         1 NA3     -0.526900
     11 C3         -1.9050    0.0360    0.5480 c3        1 NA3     -0.016300
     12 C2         -2.6870   -1.2180    0.9470 c3        1 NA3     -0.208400
     13 C4         -2.1660    1.1420    1.5560 c         1 NA3      0.555900
     14 O3         -1.7260    1.0450    2.6980 o         1 NA3     -0.604100
     15 C1         -4.1850   -0.9800    0.7490 c         1 NA3      0.914600
     16 O2         -4.6900   -1.1050   -0.3890 o         1 NA3     -0.837300
     17 O1         -4.9210   -0.7630    1.7400 o         1 NA3     -0.837300
     18 H7          2.0390   -0.1870   -2.7770 ha        1 NA3      0.116500
     19 H9          5.3570    1.0090   -0.7340 ha        1 NA3      0.107500
     20 H10         1.8920    0.4300    1.2530 ha        1 NA3      0.124500
     21 HN1        -0.0980   -0.5820    1.3010 hn        1 NA3      0.301500
     22 H3         -2.1940    0.3370   -0.3580 h1        1 NA3      0.123700
     23 H21        -2.5060   -1.4290    1.9080 hc        1 NA3      0.040700
     24 H22        -2.3930   -1.9920    0.3750 hc        1 NA3      0.040700
     25 H4         -2.6630    1.9490    1.2860 h4        1 NA3      0.082200
@<TRIPOS>BOND
     1    1    6 3   
     2    1   18 1   
     3    2    3 3   
     4    2    7 1   
     5    3   19 1   
     6    4    5 3   
     7    5   20 1   
     8    6    8 1   
     9    8    9 2   
    10    8   10 1   
    11   10   11 1   
    12   10   21 1   
    13   11   12 1   
    14   11   13 1   
    15   11   22 1   
    16   12   15 1   
    17   12   23 1   
    18   12   24 1   
    19   13   14 2   
    20   13   25 1   
    21   15   16 1   
    22   15   17 1   
@<TRIPOS>SUBSTRUCTURE
     1 NA3         1 TEMP              0 ****  ****    0 ROOT
