@<TRIPOS>MOLECULE
NA4
   38    39     1     0     0
SMALL
bcc


@<TRIPOS>ATOM
      1 C7          0.2080   -0.0900    0.2560 ca        1 NA4     -0.049000
      2 C8          1.5620    0.2130    0.0490 cp        1 NA4     -0.096300
      3 C9          2.2940    0.7100    1.1570 ca        1 NA4      0.410200
      4 N2          1.7700    0.8970    2.3810 nb        1 NA4     -0.673000
      5 C10         0.4680    0.6100    2.5570 ca        1 NA4      0.397200
      6 C6         -0.3550    0.1210    1.5210 ca        1 NA4     -0.268900
      7 C5         -1.7860   -0.1980    1.7320 c         1 NA4      0.697700
      8 O4         -2.3700   -1.1210    1.1210 o         1 NA4     -0.642100
      9 N1         -2.4940    0.5690    2.6410 ns        1 NA4     -0.574900
     10 C3         -3.9030    0.3550    2.8450 c3        1 NA4     -0.001300
     11 C2         -4.2230   -0.9840    3.5500 c3        1 NA4     -0.194400
     12 C4         -4.5880    1.4680    3.6280 c         1 NA4      0.559900
     13 O3         -4.0070    2.4500    4.0850 o         1 NA4     -0.513100
     14 C1         -5.3760   -1.6660    2.8740 c         1 NA4      0.628100
     15 O2         -6.5000   -1.8390    3.3520 o         1 NA4     -0.511000
     16 O1         -5.2180   -2.1610    1.6180 oh        1 NA4     -0.583100
     17 C15         2.0980    0.1050   -3.6670 ca        1 NA4     -0.113000
     18 C16         1.4810    0.2630   -2.4300 ca        1 NA4     -0.133500
     19 C11         2.1990    0.0330   -1.2460 cp        1 NA4     -0.105000
     20 C12         3.5420   -0.3670   -1.3300 ca        1 NA4     -0.133500
     21 C13         4.1500   -0.5280   -2.5710 ca        1 NA4     -0.113000
     22 C14         3.4370   -0.2900   -3.7510 ca        1 NA4     -0.099600
     23 C17         4.1120   -0.4580   -5.1080 c         1 NA4      0.906200
     24 O5          3.4210   -0.2230   -6.1380 o         1 NA4     -0.822300
     25 O6          5.3210   -0.8200   -5.1200 o         1 NA4     -0.822300
     26 H7         -0.4080   -0.5000   -0.5610 ha        1 NA4      0.167000
     27 H9          3.3630    0.9720    1.0440 h4        1 NA4      0.035100
     28 H10         0.0850    0.7660    3.5800 h4        1 NA4      0.013100
     29 HN1        -4.3090   -2.0020    1.3020 ho        1 NA4      0.466000
     30 H3         -4.3950    0.3320    1.8180 h1        1 NA4      0.086700
     31 H21        -4.4750   -0.8120    4.6280 hc        1 NA4      0.091200
     32 H22        -3.3370   -1.6730    3.5080 hc        1 NA4      0.091200
     33 H4         -5.6810    1.3060    3.7510 h4        1 NA4      0.025200
     34 H12         4.1110   -0.5670   -0.4110 ha        1 NA4      0.109000
     35 H13         5.2030   -0.8450   -2.6540 ha        1 NA4      0.158000
     36 H16         0.4300    0.5820   -2.3780 ha        1 NA4      0.109000
     37 H121       -2.0690    1.3390    3.1040 hn        1 NA4      0.338500
     38 H15         1.5500    0.2880   -4.6070 ha        1 NA4      0.158000
@<TRIPOS>BOND
     1    1    2 ar  
     2    1    6 ar  
     3    1   26 1   
     4    2    3 ar  
     5    2   19 1   
     6    3    4 ar  
     7    3   27 1   
     8    4    5 ar  
     9    5    6 ar  
    10    5   28 1   
    11    6    7 1   
    12    7    8 2   
    13    7    9 1   
    14    9   10 1   
    15    9   37 1   
    16   10   11 1   
    17   10   12 1   
    18   10   30 1   
    19   11   14 1   
    20   11   31 1   
    21   11   32 1   
    22   12   13 2   
    23   12   33 1   
    24   14   15 2   
    25   14   16 1   
    26   16   29 1   
    27   17   18 ar  
    28   17   22 ar  
    29   17   38 1   
    30   18   19 ar  
    31   18   36 1   
    32   19   20 ar  
    33   20   21 ar  
    34   20   34 1   
    35   21   22 ar  
    36   21   35 1   
    37   22   23 1   
    38   23   24 1   
    39   23   25 1   
@<TRIPOS>SUBSTRUCTURE
     1 NA4         1 TEMP              0 ****  ****    0 ROOT
