@<TRIPOS>MOLECULE
NA4
   37    38     1     0     0
SMALL
bcc


@<TRIPOS>ATOM
      1 C7         -0.2660   -0.0340   -0.1440 ca        1 NA4     -0.050000
      2 C8         -1.2930    0.8090    0.3080 cp        1 NA4     -0.140300
      3 C9         -0.9100    2.0410    0.8890 ca        1 NA4      0.397200
      4 N2          0.3650    2.4490    1.0230 nb        1 NA4     -0.687000
      5 C10         1.3390    1.6270    0.5880 ca        1 NA4      0.412200
      6 C6          1.0650    0.3700    0.0040 ca        1 NA4     -0.254900
      7 C5          2.1620   -0.5090   -0.4900 c         1 NA4      0.667700
      8 O4          2.0330   -1.1780   -1.5410 o         1 NA4     -0.641100
      9 N1          3.2930   -0.6080    0.3020 n         1 NA4     -0.510900
     10 C3          4.5280   -1.1080   -0.2630 c3        1 NA4      0.006700
     11 C2          5.7740   -0.4340    0.3310 c3        1 NA4     -0.215400
     12 C4          4.7270   -2.6070   -0.0940 c         1 NA4      0.569900
     13 O3          4.2260   -3.3270    0.7670 o         1 NA4     -0.545100
     14 C1          5.7330    1.1030    0.2210 c         1 NA4      0.914600
     15 O2          4.7860    1.7210    0.7930 o         1 NA4     -0.841800
     16 O1          6.6690    1.6670   -0.4080 o         1 NA4     -0.841800
     17 C15        -4.4640   -1.2180    0.2830 ca        1 NA4     -0.114000
     18 C16        -3.1150   -0.8830    0.3710 ca        1 NA4     -0.143500
     19 C11        -2.7000    0.4460    0.1950 cp        1 NA4     -0.068000
     20 C12        -3.6670    1.4240   -0.0820 ca        1 NA4     -0.143500
     21 C13        -5.0140    1.0810   -0.1710 ca        1 NA4     -0.114000
     22 C14        -5.4280   -0.2410    0.0150 ca        1 NA4     -0.117600
     23 C17        -6.9000   -0.6070   -0.0700 c         1 NA4      0.906200
     24 O5         -7.2290   -1.8150    0.1120 o         1 NA4     -0.837800
     25 O6         -7.7310    0.3150   -0.3180 o         1 NA4     -0.837800
     26 H7         -0.4970   -0.9990   -0.6220 ha        1 NA4      0.156000
     27 H9         -1.6790    2.7360    1.2690 h4        1 NA4      0.014100
     28 H10         2.3820    1.9990    0.7030 h4        1 NA4      0.075100
     29 HN1         3.4310    0.1120    0.9930 hn        1 NA4      0.347500
     30 H3          4.5170   -0.9180   -1.3830 h1        1 NA4      0.072700
     31 H21         6.6720   -0.8160   -0.2140 hc        1 NA4      0.039700
     32 H22         5.8700   -0.6980    1.4140 hc        1 NA4      0.039700
     33 H4          5.4390   -3.0290   -0.8440 h4        1 NA4     -0.034800
     34 H12        -3.3560    2.4670   -0.2390 ha        1 NA4      0.112500
     35 H13        -5.7800    1.8420   -0.3890 ha        1 NA4      0.147500
     36 H15        -4.8000   -2.2580    0.4250 ha        1 NA4      0.147500
     37 H16        -2.3680   -1.6600    0.5870 ha        1 NA4      0.112500
@<TRIPOS>BOND
     1    1    2 ar  
     2    1    6 ar  
     3    1   26 1   
     4    2    3 ar  
     5    2   19 1   
     6    3    4 ar  
     7    3   27 1   
     8    4    5 ar  
     9    5    6 ar  
    10    5   28 1   
    11    6    7 1   
    12    7    8 2   
    13    7    9 1   
    14    9   10 1   
    15    9   29 1   
    16   10   11 1   
    17   10   12 1   
    18   10   30 1   
    19   11   14 1   
    20   11   31 1   
    21   11   32 1   
    22   12   13 2   
    23   12   33 1   
    24   14   15 1   
    25   14   16 1   
    26   17   18 ar  
    27   17   22 ar  
    28   17   36 1   
    29   18   19 ar  
    30   18   37 1   
    31   19   20 ar  
    32   20   21 ar  
    33   20   34 1   
    34   21   22 ar  
    35   21   35 1   
    36   22   23 1   
    37   23   24 1   
    38   23   25 1   
@<TRIPOS>SUBSTRUCTURE
     1 NA4         1 TEMP              0 ****  ****    0 ROOT
