@<TRIPOS>MOLECULE
NA4
   38    39     1     0     0
SMALL
bcc


@<TRIPOS>ATOM
      1 C7          0.2090   -0.0760    0.2630 ca        1 NA4     -0.049000
      2 C8          1.5560    0.2640    0.0610 cp        1 NA4     -0.096300
      3 C9          2.2570    0.8210    1.1600 ca        1 NA4      0.410200
      4 N2          1.7120    1.0320    2.3720 nb        1 NA4     -0.673000
      5 C10         0.4170    0.7070    2.5420 ca        1 NA4      0.397200
      6 C6         -0.3770    0.1580    1.5140 ca        1 NA4     -0.268900
      7 C5         -1.7980   -0.2000    1.7180 c         1 NA4      0.697700
      8 O4         -2.3450   -1.1620    1.1320 o         1 NA4     -0.642100
      9 N1         -2.5420    0.5730    2.5930 n         1 NA4     -0.574900
     10 C3         -3.9460    0.3190    2.7870 c3        1 NA4     -0.001300
     11 C2         -4.2320   -1.0050    3.5320 c3        1 NA4     -0.194400
     12 C4         -4.6760    1.4340    3.5260 c         1 NA4      0.559900
     13 O3         -4.1330    2.4490    3.9560 o         1 NA4     -0.513100
     14 C1         -5.3540   -1.7470    2.8670 c         1 NA4      0.628100
     15 O2         -6.4770   -1.9400    3.3370 o         1 NA4     -0.511000
     16 O1         -5.1630   -2.2770    1.6300 oh        1 NA4     -0.583100
     17 C15         2.1420    0.0510   -3.6430 ca        1 NA4     -0.113000
     18 C16         1.5040    0.2300   -2.4190 ca        1 NA4     -0.133500
     19 C11         2.2140    0.0620   -1.2190 cp        1 NA4     -0.105000
     20 C12         3.5700   -0.2960   -1.2750 ca        1 NA4     -0.133500
     21 C13         4.1990   -0.4770   -2.5020 ca        1 NA4     -0.113000
     22 C14         3.4940   -0.3020   -3.6970 ca        1 NA4     -0.099600
     23 C17         4.1900   -0.4920   -5.0400 c         1 NA4      0.906200
     24 O5          3.5060   -0.3150   -6.0860 o         1 NA4     -0.822300
     25 O6          5.4100   -0.8150   -5.0260 o         1 NA4     -0.822300
     26 H7         -0.3830   -0.5330   -0.5470 ha        1 NA4      0.167000
     27 H9          3.3180    1.1140    1.0520 h4        1 NA4      0.035100
     28 H10         0.0170    0.8840    3.5550 h4        1 NA4      0.013100
     29 HN1        -2.1480    1.3700    3.0350 hn        1 NA4      0.338500
     30 H3         -4.4240    0.2460    1.7560 h1        1 NA4      0.086700
     31 H21        -4.5020   -0.8070    4.6010 hc        1 NA4      0.091200
     32 H22        -3.3230   -1.6670    3.5240 hc        1 NA4      0.091200
     33 H4         -5.7660    1.2410    3.6410 h4        1 NA4      0.025200
     34 H12         4.1340   -0.4470   -0.3430 ha        1 NA4      0.109000
     35 H13         5.2630   -0.7620   -2.5630 ha        1 NA4      0.158000
     36 H16         0.4430    0.5160   -2.3900 ha        1 NA4      0.109000
     37 H121       -4.2570   -2.0990    1.3190 ho        1 NA4      0.466000
     38 H15         1.6000    0.1850   -4.5940 ha        1 NA4      0.158000
@<TRIPOS>BOND
     1    1    2 ar  
     2    1    6 ar  
     3    1   26 1   
     4    2    3 ar  
     5    2   19 1   
     6    3    4 ar  
     7    3   27 1   
     8    4    5 ar  
     9    5    6 ar  
    10    5   28 1   
    11    6    7 1   
    12    7    8 2   
    13    7    9 1   
    14    9   10 1   
    15    9   29 1   
    16   10   11 1   
    17   10   12 1   
    18   10   30 1   
    19   11   14 1   
    20   11   31 1   
    21   11   32 1   
    22   12   13 2   
    23   12   33 1   
    24   14   15 2   
    25   14   16 1   
    26   16   37 1   
    27   17   18 ar  
    28   17   22 ar  
    29   17   38 1   
    30   18   19 ar  
    31   18   36 1   
    32   19   20 ar  
    33   20   21 ar  
    34   20   34 1   
    35   21   22 ar  
    36   21   35 1   
    37   22   23 1   
    38   23   24 1   
    39   23   25 1   
@<TRIPOS>SUBSTRUCTURE
     1 NA4         1 TEMP              0 ****  ****    0 ROOT
