@<TRIPOS>MOLECULE
NA4
   38    39     1     0     0
SMALL
bcc


@<TRIPOS>ATOM
      1 C7          0.2080   -0.0730    0.2570 ca        1 NA4     -0.049000
      2 C8          1.5500    0.2750    0.0420 cp        1 NA4     -0.096300
      3 C9          2.2580    0.8400    1.1320 ca        1 NA4      0.410200
      4 N2          1.7230    1.0520    2.3480 nb        1 NA4     -0.673000
      5 C10         0.4320    0.7200    2.5310 ca        1 NA4      0.397200
      6 C6         -0.3680    0.1630    1.5130 ca        1 NA4     -0.268900
      7 C5         -1.7850   -0.2040    1.7320 c         1 NA4      0.697700
      8 O4         -2.3310   -1.1710    1.1540 o         1 NA4     -0.642100
      9 N1         -2.5260    0.5680    2.6110 n         1 NA4     -0.574900
     10 C3         -3.9260    0.3060    2.8190 c3        1 NA4     -0.001300
     11 C2         -4.1970   -1.0170    3.5720 c3        1 NA4     -0.194400
     12 C4         -4.6560    1.4200    3.5610 c         1 NA4      0.559900
     13 O3         -4.1150    2.4390    3.9820 o         1 NA4     -0.513100
     14 C1         -5.3210   -1.7670    2.9190 c         1 NA4      0.628100
     15 O2         -6.4380   -1.9660    3.4010 o         1 NA4     -0.511000
     16 O1         -5.1380   -2.3000    1.6830 oh        1 NA4     -0.583100
     17 C15         2.1020    0.0510   -3.6670 ca        1 NA4     -0.113000
     18 C16         1.4750    0.2300   -2.4380 ca        1 NA4     -0.133500
     19 C11         2.1970    0.0720   -1.2440 cp        1 NA4     -0.105000
     20 C12         3.5550   -0.2790   -1.3110 ca        1 NA4     -0.133500
     21 C13         4.1740   -0.4610   -2.5440 ca        1 NA4     -0.113000
     22 C14         3.4560   -0.2950   -3.7330 ca        1 NA4     -0.099600
     23 C17         4.1410   -0.4860   -5.0820 c         1 NA4      0.906200
     24 O5          3.4450   -0.3160   -6.1210 o         1 NA4     -0.822300
     25 O6          5.3630   -0.8010   -5.0780 o         1 NA4     -0.822300
     26 H7         -0.3890   -0.5370   -0.5450 ha        1 NA4      0.167000
     27 H9          3.3170    1.1390    1.0120 h4        1 NA4      0.035100
     28 H10         0.0400    0.8990    3.5470 h4        1 NA4      0.013100
     29 HN1        -4.2360   -2.1190    1.3620 ho        1 NA4      0.466000
     30 H3         -4.4130    0.2280    1.7930 h1        1 NA4      0.086700
     31 H21        -3.2850   -1.6730    3.5580 hc        1 NA4      0.091200
     32 H22        -4.4590   -0.8160    4.6430 hc        1 NA4      0.091200
     33 H4         -5.7430    1.2210    3.6870 h4        1 NA4      0.025200
     34 H12         4.1290   -0.4220   -0.3840 ha        1 NA4      0.109000
     35 H13         5.2380   -0.7400   -2.6140 ha        1 NA4      0.158000
     36 H16         0.4130    0.5100   -2.4000 ha        1 NA4      0.109000
     37 H121       -2.1320    1.3690    3.0470 hn        1 NA4      0.338500
     38 H15         1.5510    0.1770   -4.6140 ha        1 NA4      0.158000
@<TRIPOS>BOND
     1    1    2 ar  
     2    1    6 ar  
     3    1   26 1   
     4    2    3 ar  
     5    2   19 1   
     6    3    4 ar  
     7    3   27 1   
     8    4    5 ar  
     9    5    6 ar  
    10    5   28 1   
    11    6    7 1   
    12    7    8 2   
    13    7    9 1   
    14    9   10 1   
    15    9   37 1   
    16   10   11 1   
    17   10   12 1   
    18   10   30 1   
    19   11   14 1   
    20   11   31 1   
    21   11   32 1   
    22   12   13 2   
    23   12   33 1   
    24   14   15 2   
    25   14   16 1   
    26   16   29 1   
    27   17   18 ar  
    28   17   22 ar  
    29   17   38 1   
    30   18   19 ar  
    31   18   36 1   
    32   19   20 ar  
    33   20   21 ar  
    34   20   34 1   
    35   21   22 ar  
    36   21   35 1   
    37   22   23 1   
    38   23   24 1   
    39   23   25 1   
@<TRIPOS>SUBSTRUCTURE
     1 NA4         1 TEMP              0 ****  ****    0 ROOT
