@<TRIPOS>MOLECULE
NA8
   29    30     1     0     0
SMALL
bcc


@<TRIPOS>ATOM
      1 C11        -4.0370   -0.1760   -0.1230 c         1 NA8      0.936600
      2 N          -2.0890   -1.1820    1.1390 n4        1 NA8     -0.835600
      3 O2         -4.5040   -1.3280    0.0740 o         1 NA8     -0.756300
      4 C1          0.6820   -0.6170   -0.7070 ca        1 NA8     -0.144000
      5 C2         -0.2100    0.4150   -0.5100 ca        1 NA8     -0.106300
      6 C3          0.2460    1.6440    0.0410 ca        1 NA8     -0.129000
      7 C4          1.5640    1.8070    0.3850 ca        1 NA8     -0.107000
      8 C4A         2.4990    0.7520    0.2000 ca        1 NA8     -0.039000
      9 C5          3.8690    0.8950    0.5510 ca        1 NA8     -0.115000
     10 C6          4.7500   -0.1390    0.3510 ca        1 NA8     -0.123000
     11 C7          4.3050   -1.3610   -0.2100 ca        1 NA8     -0.119000
     12 C8          2.9860   -1.5260   -0.5570 ca        1 NA8     -0.123000
     13 C8A         2.0510   -0.4730   -0.3580 ca        1 NA8     -0.037000
     14 C9         -1.6480    0.2660   -0.8630 c3        1 NA8     -0.051100
     15 C10        -2.5180    0.0210    0.3620 c3        1 NA8     -0.068500
     16 OXT        -4.5580    0.8320   -0.6250 o         1 NA8     -0.756300
     17 H10        -2.4820    0.9110    1.0460 hx        1 NA8      0.089700
     18 HN1        -2.8070   -1.9190    0.9460 hn        1 NA8      0.445133
     19 HN2        -1.1660   -1.5010    0.8460 hn        1 NA8      0.445133
     20 HN3        -2.0840   -0.9800    2.1340 hn        1 NA8      0.445133
     21 H3         -0.4770    2.4640    0.1720 ha        1 NA8      0.145000
     22 H91C       -2.0420    1.2050   -1.3430 hc        1 NA8      0.093700
     23 H92C       -1.7890   -0.5650   -1.6050 hc        1 NA8      0.093700
     24 H4          1.9210    2.7600    0.8050 ha        1 NA8      0.140000
     25 H5          4.2060    1.8490    0.9820 ha        1 NA8      0.137000
     26 H6          5.8120   -0.0310    0.6200 ha        1 NA8      0.138000
     27 H7          5.0310   -2.1730   -0.3660 ha        1 NA8      0.137000
     28 H8          2.6340   -2.4690   -1.0010 ha        1 NA8      0.134000
     29 H1          0.3550   -1.5620   -1.1690 ha        1 NA8      0.132000
@<TRIPOS>BOND
     1    1    3 1   
     2    1   15 1   
     3    1   16 1   
     4    2   15 1   
     5    2   18 1   
     6    2   19 1   
     7    2   20 1   
     8    4    5 ar  
     9    4   13 ar  
    10    4   29 1   
    11    5    6 ar  
    12    5   14 1   
    13    6    7 ar  
    14    6   21 1   
    15    7    8 ar  
    16    7   24 1   
    17    8    9 ar  
    18    8   13 ar  
    19    9   10 ar  
    20    9   25 1   
    21   10   11 ar  
    22   10   26 1   
    23   11   12 ar  
    24   11   27 1   
    25   12   13 ar  
    26   12   28 1   
    27   14   15 1   
    28   14   22 1   
    29   14   23 1   
    30   15   17 1   
@<TRIPOS>SUBSTRUCTURE
     1 NA8         1 TEMP              0 ****  ****    0 ROOT
