@<TRIPOS>MOLECULE
NA9
   65    64     1     0     0
SMALL
bcc


@<TRIPOS>ATOM
      1 C1          0.3580   -1.4550    0.7760 c1        1 NA9     -0.181000
      2 C2          1.0060   -0.3300    1.3150 c2        1 NA9     -0.153000
      3 N3          0.4150    0.3600    2.2820 n2        1 NA9      0.157000
      4 C4         -0.0740    1.0170    3.1200 c1        1 NA9     -0.129000
      5 C5         -0.6830    1.7740    4.1730 c3        1 NA9     -0.049000
      6 C6         -0.1810   -2.4260    0.3230 c1        1 NA9     -0.187000
      7 C7         -0.7400    1.0140    5.5100 c3        1 NA9     -0.018000
      8 C8          2.3640    0.0600    0.8440 c2        1 NA9      0.181000
      9 N9          2.7680   -0.5440   -0.3760 n3        1 NA9     -0.371000
     10 N10         3.0500    0.9480    1.5150 n2        1 NA9     -0.369000
     11 N11        -1.5190   -0.1880    5.4920 n         1 NA9     -0.371000
     12 C12        -2.8860   -0.1640    5.3510 c2        1 NA9      0.282000
     13 C13        -3.6410   -1.5100    5.2060 c3        1 NA9      0.030000
     14 O14        -3.5290    0.9080    5.3610 o         1 NA9     -0.406000
     15 C15        -3.6960   -2.1740    6.5800 c3        1 NA9     -0.227000
     16 N17        -3.1360   -2.3270    4.1220 n         1 NA9     -0.332000
     17 C18        -2.0620   -3.1960    4.2820 c2        1 NA9      0.317000
     18 C19        -1.6780   -4.1730    3.1440 c3        1 NA9     -0.033000
     19 O20        -1.3750   -3.1430    5.3260 o         1 NA9     -0.419000
     20 N21        -2.7960   -5.0560    2.8280 n3        1 NA9     -0.285000
     21 C22        -3.0090   -5.2340    1.4030 c3        1 NA9     -0.160000
     22 C23        -1.8100   -5.7960    0.6050 c2        1 NA9      0.305000
     23 O24        -1.4770   -5.1900   -0.4570 o         1 NA9     -0.580500
     24 O25        -1.2210   -6.8220    1.0480 o         1 NA9     -0.580500
     25 C26        -0.3930   -4.8950    3.5530 c3        1 NA9     -0.235000
     26 C27         0.5340   -8.3650   -1.1310 c2        1 NA9     -0.176500
     27 C28         0.8130   -7.0750   -1.8070 c3        1 NA9     -0.135500
     28 C29         1.0840   -7.2450   -3.2880 c3        1 NA9     -0.151000
     29 C30         2.0130   -8.4140   -3.5480 c3        1 NA9     -0.151000
     30 C31         1.4360   -9.7110   -3.0130 c3        1 NA9     -0.135500
     31 C32         0.8260   -9.5530   -1.6700 c2        1 NA9     -0.176500
     32 H1         -0.6430   -3.3140   -0.0750 ha        1 NA9      0.287000
     33 H4         -0.0810    2.7130    4.3190 hc        1 NA9      0.130000
     34 H6         -1.7290    2.0620    3.8650 hc        1 NA9      0.130000
     35 H71        -1.1870    1.7260    6.2640 h1        1 NA9      0.097500
     36 H72         0.3070    0.7520    5.8310 h1        1 NA9      0.097500
     37 HN91        2.1640   -1.2680   -0.7020 hn        1 NA9      0.187000
     38 HN92        3.7270   -0.8100   -0.4020 hn        1 NA9      0.187000
     39 HN10        3.9510    1.1640    1.1470 hn        1 NA9      0.125000
     40 HN11       -1.0380   -1.0610    5.4480 hn        1 NA9      0.265000
     41 H13        -4.7050   -1.2130    4.9400 h1        1 NA9      0.117000
     42 H151       -4.2310   -1.4900    7.2810 hc        1 NA9      0.093333
     43 H152       -4.2500   -3.1400    6.5190 hc        1 NA9      0.093333
     44 H153       -2.6730   -2.3780    6.9790 hc        1 NA9      0.093333
     45 H161       -4.6590   -3.0390    2.8340 h1        1 NA9      0.086333
     46 H162       -4.3510   -1.2380    2.7900 h1        1 NA9      0.086333
     47 H163       -3.1690   -2.3770    2.0120 h1        1 NA9      0.086333
     48 H19        -1.4250   -3.5320    2.2410 h1        1 NA9      0.125000
     49 HN21       -2.6210   -5.9570    3.2420 hn        1 NA9      0.163000
     50 H221       -3.3120   -4.2470    0.9590 h1        1 NA9      0.079000
     51 H222       -3.8660   -5.9510    1.2850 h1        1 NA9      0.079000
     52 H261        0.4250   -4.1510    3.6960 hc        1 NA9      0.094667
     53 H262       -0.5360   -5.4470    4.5120 hc        1 NA9      0.094667
     54 H27        -0.1100   -5.6190    2.7460 hc        1 NA9      0.094667
     55 H281        0.0470   -8.2590   -0.1400 ha        1 NA9      0.142000
     56 H282        1.7030   -6.6010   -1.3110 hc        1 NA9      0.092750
     57 H291       -0.0620   -6.3800   -1.6350 hc        1 NA9      0.092750
     58 H292        0.1150   -7.4160   -3.8270 hc        1 NA9      0.065250
     59 H301        1.5360   -6.3060   -3.7000 hc        1 NA9      0.065250
     60 H302        3.0010   -8.2150   -3.0540 hc        1 NA9      0.065250
     61 H311        2.2030   -8.5140   -4.6480 hc        1 NA9      0.065250
     62 H312        0.6520  -10.0910   -3.7240 hc        1 NA9      0.092750
     63 H321        2.2460  -10.4880   -2.9740 hc        1 NA9      0.092750
     64 H322        0.6000  -10.4910   -1.1430 ha        1 NA9      0.142000
     65 C16        -3.8650   -2.2460    2.8830 c3        1 NA9     -0.070000
@<TRIPOS>BOND
     1    1    2 1   
     2    1    6 1   
     3    2    3 1   
     4    2    8 1   
     5    3    4 1   
     6    4    5 1   
     7    5    7 1   
     8    5   33 1   
     9    5   34 1   
    10    6   32 1   
    11    7   11 1   
    12    7   35 1   
    13    7   36 1   
    14    8    9 1   
    15    8   10 1   
    16    9   37 1   
    17    9   38 1   
    18   10   39 1   
    19   11   12 1   
    20   11   40 1   
    21   12   13 1   
    22   12   14 1   
    23   13   15 1   
    24   13   16 1   
    25   13   41 1   
    26   15   42 1   
    27   15   43 1   
    28   15   44 1   
    29   16   17 1   
    30   16   65 1   
    31   17   18 1   
    32   17   19 1   
    33   18   20 1   
    34   18   25 1   
    35   18   48 1   
    36   20   21 1   
    37   20   49 1   
    38   21   22 1   
    39   21   50 1   
    40   21   51 1   
    41   22   23 1   
    42   22   24 1   
    43   25   52 1   
    44   25   53 1   
    45   25   54 1   
    46   26   27 1   
    47   26   31 1   
    48   26   55 1   
    49   27   28 1   
    50   27   56 1   
    51   27   57 1   
    52   28   29 1   
    53   28   58 1   
    54   28   59 1   
    55   29   30 1   
    56   29   60 1   
    57   29   61 1   
    58   30   31 1   
    59   30   62 1   
    60   30   63 1   
    61   31   64 1   
    62   45   65 1   
    63   46   65 1   
    64   47   65 1   
@<TRIPOS>SUBSTRUCTURE
     1 NA9         1 TEMP              0 ****  ****    0 ROOT
