@<TRIPOS>MOLECULE
NA9
   65    66     1     0     0
SMALL
bcc


@<TRIPOS>ATOM
      1 C1          6.7760   -5.4580    2.9610 ca        1 NA9     -0.197300
      2 C2          6.7700   -4.9920    4.2870 ca        1 NA9      0.294000
      3 N3          7.3250   -3.8060    4.6540 nb        1 NA9     -0.668000
      4 C4          7.8880   -3.0640    3.6900 ca        1 NA9      0.393200
      5 C5          7.9560   -3.4510    2.3330 ca        1 NA9     -0.227600
      6 C6          7.3990   -4.6810    1.9780 ca        1 NA9     -0.072000
      7 C7          8.6290   -2.5670    1.3310 c3        1 NA9      0.144300
      8 C8          6.1000   -5.8140    5.3670 ce        1 NA9      0.547200
      9 N9          6.4750   -7.1740    5.3670 nh        1 NA9     -0.890800
     10 N10         5.2930   -5.3270    6.2620 n2        1 NA9     -0.845100
     11 N11         7.8150   -2.2620    0.1800 n         1 NA9     -0.551900
     12 C12         7.9830   -1.1030   -0.5250 c         1 NA9      0.641100
     13 C13         7.1950   -0.8480   -1.8370 c3        1 NA9      0.050700
     14 O14         8.7750   -0.2090   -0.1440 o         1 NA9     -0.650100
     15 C15         6.0860    0.1510   -1.5200 c3        1 NA9     -0.112100
     16 N17         6.8340   -2.0350   -2.5770 n         1 NA9     -0.487800
     17 C18         5.5170   -2.5020   -2.7510 c         1 NA9      0.612100
     18 C19         4.5260   -2.5990   -1.5600 c3        1 NA9      0.142500
     19 O20         5.1880   -2.9600   -3.8610 o         1 NA9     -0.591100
     20 N21         4.2190   -3.9610   -1.1920 n3        1 NA9     -0.804200
     21 C22         5.3110   -4.6680   -0.5720 c3        1 NA9      0.019800
     22 C23         5.1320   -6.2110   -0.4750 c         1 NA9      0.925600
     23 O24         5.8030   -6.7690    0.4430 o         1 NA9     -0.836800
     24 O25         4.3980   -6.8030   -1.3040 o         1 NA9     -0.836800
     25 C26         3.2810   -1.8000   -1.9820 c3        1 NA9     -0.069400
     26 C27         2.2640   -1.6370   -0.8660 c3        1 NA9     -0.063700
     27 C28         2.7550   -0.6630    0.1980 c3        1 NA9     -0.073400
     28 C29         1.7120   -0.4510    1.2760 c3        1 NA9     -0.075900
     29 C30         0.3960    0.0180    0.6910 c3        1 NA9     -0.074400
     30 C31        -0.0970   -0.9410   -0.3730 c3        1 NA9     -0.075900
     31 C32         0.9440   -1.1500   -1.4520 c3        1 NA9     -0.073400
     32 H1          6.2770   -6.3920    2.6390 ha        1 NA9      0.202000
     33 H4          8.3150   -2.0990    4.0200 h4        1 NA9      0.014100
     34 H6          7.4100   -5.0700    0.9420 ha        1 NA9      0.189000
     35 H71         8.9390   -1.5950    1.8180 h1        1 NA9      0.056700
     36 H72         9.5720   -3.0860    0.9820 h1        1 NA9      0.056700
     37 HN91        5.8780   -7.7730    5.8950 hn        1 NA9      0.397300
     38 HN92        6.6740   -7.5280    4.4560 hn        1 NA9      0.397300
     39 HN10        5.1850   -4.3380    6.2300 hn        1 NA9      0.401400
     40 HN11        7.1750   -2.9580   -0.1310 hn        1 NA9      0.340500
     41 H13         7.9470   -0.2760   -2.4760 h1        1 NA9      0.070700
     42 H151        5.3810   -0.2200   -0.7390 hc        1 NA9      0.053700
     43 H152        6.5650    1.0870   -1.1370 hc        1 NA9      0.053700
     44 H153        5.5040    0.3930   -2.4420 hc        1 NA9      0.053700
     45 H161        7.5380   -3.4320   -3.9820 h1        1 NA9      0.041367
     46 H162        8.8170   -2.4260   -3.1440 h1        1 NA9      0.041367
     47 H163        7.7810   -1.6890   -4.4570 h1        1 NA9      0.041367
     48 H19         4.9880   -2.1170   -0.6500 h1        1 NA9      0.059700
     49 HN21        3.8260   -4.4910   -1.9500 hn        1 NA9      0.403800
     50 H221        5.4230   -4.2650    0.4740 h1        1 NA9      0.013200
     51 H222        6.2870   -4.5100   -1.1210 h1        1 NA9      0.013200
     52 H261        2.8000   -2.3160   -2.8560 hc        1 NA9      0.046200
     53 H262        3.6190   -0.7890   -2.3330 hc        1 NA9      0.046200
     54 H27         2.0880   -2.6370   -0.3780 hc        1 NA9      0.087700
     55 H281        3.0060    0.3200   -0.2800 hc        1 NA9      0.035950
     56 H282        3.6910   -1.0630    0.6670 hc        1 NA9      0.035950
     57 H291        2.0860    0.3040    2.0150 hc        1 NA9      0.037950
     58 H292        1.5510   -1.4140    1.8300 hc        1 NA9      0.037950
     59 H301       -0.3690    0.1060    1.5050 hc        1 NA9      0.030200
     60 H302        0.5290    1.0380    0.2420 hc        1 NA9      0.030200
     61 H311       -0.3440   -1.9270    0.1020 hc        1 NA9      0.037950
     62 H312       -1.0390   -0.5420   -0.8320 hc        1 NA9      0.037950
     63 H321        0.5670   -1.9030   -2.1930 hc        1 NA9      0.035950
     64 H322        1.1130   -0.1880   -2.0040 hc        1 NA9      0.035950
     65 C16         7.7900   -2.4090   -3.5940 c3        1 NA9      0.069300
@<TRIPOS>BOND
     1    1    2 ar  
     2    1    6 ar  
     3    1   32 1   
     4    2    3 ar  
     5    2    8 1   
     6    3    4 ar  
     7    4    5 ar  
     8    4   33 1   
     9    5    6 ar  
    10    5    7 1   
    11    6   34 1   
    12    7   11 1   
    13    7   35 1   
    14    7   36 1   
    15    8    9 1   
    16    8   10 2   
    17    9   37 1   
    18    9   38 1   
    19   10   39 1   
    20   11   12 1   
    21   11   40 1   
    22   12   13 1   
    23   12   14 2   
    24   13   15 1   
    25   13   16 1   
    26   13   41 1   
    27   15   42 1   
    28   15   43 1   
    29   15   44 1   
    30   16   17 1   
    31   16   65 1   
    32   17   18 1   
    33   17   19 2   
    34   18   20 1   
    35   18   25 1   
    36   18   48 1   
    37   20   21 1   
    38   20   49 1   
    39   21   22 1   
    40   21   50 1   
    41   21   51 1   
    42   22   23 1   
    43   22   24 1   
    44   25   26 1   
    45   25   52 1   
    46   25   53 1   
    47   26   27 1   
    48   26   31 1   
    49   26   54 1   
    50   27   28 1   
    51   27   55 1   
    52   27   56 1   
    53   28   29 1   
    54   28   57 1   
    55   28   58 1   
    56   29   30 1   
    57   29   59 1   
    58   29   60 1   
    59   30   31 1   
    60   30   61 1   
    61   30   62 1   
    62   31   63 1   
    63   31   64 1   
    64   45   65 1   
    65   46   65 1   
    66   47   65 1   
@<TRIPOS>SUBSTRUCTURE
     1 NA9         1 TEMP              0 ****  ****    0 ROOT
