@<TRIPOS>MOLECULE
NAA
   30    30     1     0     0
SMALL
bcc


@<TRIPOS>ATOM
      1 C1          0.8110   -0.6900    0.0910 c3        1 NAA      0.319900
      2 C2         -0.2980    0.1730    0.7630 c3        1 NAA      0.046700
      3 C3         -1.5490    0.1130   -0.1440 c3        1 NAA      0.145100
      4 C4         -1.1630    0.6040   -1.5550 c3        1 NAA      0.078100
      5 C5          0.0560   -0.1560   -2.0990 c3        1 NAA      0.074100
      6 C6          0.6000    0.4810   -3.3820 c3        1 NAA      0.137400
      7 C7          0.2280    0.2270    3.1590 c         1 NAA      0.664100
      8 C8         -0.0570   -0.3190    4.5350 c3        1 NAA     -0.172100
      9 N2         -0.5790   -0.2110    2.1190 n         1 NAA     -0.555900
     10 O1          2.0330   -0.6660    0.7590 oh        1 NAA     -0.576800
     11 O3         -2.0030   -1.2290   -0.1680 oh        1 NAA     -0.609800
     12 O4         -2.3140    0.3640   -2.3520 oh        1 NAA     -0.605800
     13 O5          1.1370   -0.1020   -1.1700 os        1 NAA     -0.452600
     14 O6          1.6460   -0.2890   -3.9290 oh        1 NAA     -0.593800
     15 O7          1.1260    1.0690    2.9540 o         1 NAA     -0.617100
     16 H1          0.5110   -1.7670   -0.0230 h2        1 NAA      0.095700
     17 H2          0.0670    1.2460    0.7730 h1        1 NAA      0.094700
     18 H3         -2.3650    0.7750    0.2600 h1        1 NAA      0.063700
     19 H4         -0.9420    1.7060   -1.5180 h1        1 NAA      0.058700
     20 H5         -0.2270   -1.2310   -2.2830 h1        1 NAA      0.074700
     21 H61        -0.1960    0.4940   -4.1740 h1        1 NAA      0.049700
     22 H62         0.9520    1.5260   -3.1700 h1        1 NAA      0.049700
     23 H81         0.6180    0.1880    5.2680 hc        1 NAA      0.069367
     24 H82        -1.1180   -0.1300    4.8240 hc        1 NAA      0.069367
     25 H83         0.1400   -1.4180    4.5610 hc        1 NAA      0.069367
     26 HN2        -1.1510   -1.0130    2.2450 hn        1 NAA      0.322500
     27 HO1         2.2430    0.2550    0.9810 ho        1 NAA      0.433000
     28 HO3        -2.7080   -1.2740   -0.8290 ho        1 NAA      0.431000
     29 HO4        -2.1020    0.6400   -3.2510 ho        1 NAA      0.416000
     30 HO6         2.3190   -0.3830   -3.2400 ho        1 NAA      0.422000
@<TRIPOS>BOND
     1    1    2 1   
     2    1   10 1   
     3    1   13 1   
     4    1   16 1   
     5    2    3 1   
     6    2    9 1   
     7    2   17 1   
     8    3    4 1   
     9    3   11 1   
    10    3   18 1   
    11    4    5 1   
    12    4   12 1   
    13    4   19 1   
    14    5    6 1   
    15    5   13 1   
    16    5   20 1   
    17    6   14 1   
    18    6   21 1   
    19    6   22 1   
    20    7    8 1   
    21    7    9 1   
    22    7   15 2   
    23    8   23 1   
    24    8   24 1   
    25    8   25 1   
    26    9   26 1   
    27   10   27 1   
    28   11   28 1   
    29   12   29 1   
    30   14   30 1   
@<TRIPOS>SUBSTRUCTURE
     1 NAA         1 TEMP              0 ****  ****    0 ROOT
