@<TRIPOS>MOLECULE
NAB
   33    35     1     0     0
SMALL
bcc


@<TRIPOS>ATOM
      1 C1         -0.9140    0.2330    2.3240 ca        1 NAB      0.119400
      2 C2         -0.0250   -0.0150    3.3920 ca        1 NAB     -0.098600
      3 C3         -0.5550   -0.1350    4.6810 ca        1 NAB     -0.104000
      4 C4         -1.9240   -0.0350    4.9150 ca        1 NAB     -0.158000
      5 C5         -2.7960    0.1930    3.8520 ca        1 NAB     -0.152000
      6 C6         -2.2990    0.3220    2.5580 ca        1 NAB     -0.152000
      7 C1'         0.2850   -0.1150   -1.0840 ca        1 NAB      0.102400
      8 C2'         1.6730   -0.0180   -1.0710 ca        1 NAB     -0.085000
      9 C3'         2.3950    0.0390   -2.2770 ca        1 NAB     -0.137000
     10 C4'         1.7230    0.0290   -3.4860 ca        1 NAB      0.085100
     11 C4A         0.2990   -0.0320   -3.5440 ca        1 NAB     -0.081000
     12 C5'        -0.4130   -0.0000   -4.7750 ca        1 NAB     -0.129000
     13 C6'        -1.7820   -0.0730   -4.8010 ca        1 NAB     -0.137000
     14 C7'        -2.5090   -0.1820   -3.5920 ca        1 NAB     -0.148000
     15 C8'        -1.8500   -0.2020   -2.3880 ca        1 NAB     -0.096000
     16 C8A        -0.4290   -0.1200   -2.3260 ca        1 NAB     -0.002000
     17 C           1.4880   -0.1510    3.2270 c         1 NAB      0.916200
     18 N1         -0.3710    0.5100    1.0180 ne        1 NAB     -0.149400
     19 N1'        -0.4220   -0.3540    0.1510 nf        1 NAB     -0.187400
     20 O           1.9560   -0.5610    2.1280 o         1 NAB     -0.827300
     21 OXT         2.1970    0.1390    4.2300 o         1 NAB     -0.827300
     22 O4'         2.4980    0.1310   -4.6280 oh        1 NAB     -0.513100
     23 H3          0.1530   -0.3020    5.5100 ha        1 NAB      0.156000
     24 H4         -2.3180   -0.1350    5.9360 ha        1 NAB      0.109000
     25 H5         -3.8770    0.2680    4.0290 ha        1 NAB      0.107000
     26 H6         -2.9930    0.4980    1.7240 ha        1 NAB      0.115000
     27 H2'         2.2180   -0.0180   -0.1010 ha        1 NAB      0.216000
     28 H3'         3.4930    0.0980   -2.2550 ha        1 NAB      0.148000
     29 H5'         0.1470    0.1030   -5.7160 ha        1 NAB      0.115000
     30 H6'        -2.3290   -0.0450   -5.7540 ha        1 NAB      0.119000
     31 H7'        -3.6050   -0.2470   -3.6310 ha        1 NAB      0.123000
     32 H8'        -2.4250   -0.2870   -1.4520 ha        1 NAB      0.145000
     33 HO4'        2.0480   -0.3620   -5.3280 ho        1 NAB      0.407000
@<TRIPOS>BOND
     1    1    2 ar  
     2    1    6 ar  
     3    1   18 1   
     4    2    3 ar  
     5    2   17 1   
     6    3    4 ar  
     7    3   23 1   
     8    4    5 ar  
     9    4   24 1   
    10    5    6 ar  
    11    5   25 1   
    12    6   26 1   
    13    7    8 ar  
    14    7   16 ar  
    15    7   19 1   
    16    8    9 ar  
    17    8   27 1   
    18    9   10 ar  
    19    9   28 1   
    20   10   11 ar  
    21   10   22 1   
    22   11   12 ar  
    23   11   16 ar  
    24   12   13 ar  
    25   12   29 1   
    26   13   14 ar  
    27   13   30 1   
    28   14   15 ar  
    29   14   31 1   
    30   15   16 ar  
    31   15   32 1   
    32   17   20 1   
    33   17   21 1   
    34   18   19 2   
    35   22   33 1   
@<TRIPOS>SUBSTRUCTURE
     1 NAB         1 TEMP              0 ****  ****    0 ROOT
