@<TRIPOS>MOLECULE
NAB
   33    35     1     0     0
SMALL
bcc


@<TRIPOS>ATOM
      1 C1         -0.2050   -0.2400    0.2690 ca        1 NAB      0.120400
      2 C2          1.1580    0.0220    0.0110 ca        1 NAB     -0.097600
      3 C3          2.0290    0.1290    1.1010 ca        1 NAB     -0.105000
      4 C4          1.5730    0.0020    2.4100 ca        1 NAB     -0.158000
      5 C5          0.2220   -0.2400    2.6550 ca        1 NAB     -0.152000
      6 C6         -0.6690   -0.3570    1.5920 ca        1 NAB     -0.151000
      7 C1'        -2.6180    0.1320   -2.4160 ca        1 NAB      0.092400
      8 C2'        -1.9210    0.0930   -3.6200 ca        1 NAB     -0.073000
      9 C3'        -2.6130    0.0370   -4.8430 ca        1 NAB     -0.207000
     10 C4'        -3.9940    0.0040   -4.8540 ca        1 NAB      0.107100
     11 C4A        -4.7480    0.0300   -3.6420 ca        1 NAB     -0.056000
     12 C5'        -6.1690   -0.0120   -3.6480 ca        1 NAB     -0.099000
     13 C6'        -6.8730    0.0120   -2.4700 ca        1 NAB     -0.154000
     14 C7'        -6.1840    0.0820   -1.2360 ca        1 NAB     -0.139000
     15 C8'        -4.8120    0.1230   -1.2040 ca        1 NAB     -0.109000
     16 C8A        -4.0500    0.0970   -2.4070 ca        1 NAB      0.004000
     17 C           1.7410    0.1890   -1.3910 c         1 NAB      0.916200
     18 N1         -1.0790   -0.5010   -0.8470 ne        1 NAB     -0.152400
     19 N1'        -1.8940    0.3490   -1.1850 nf        1 NAB     -0.186400
     20 O           1.0100    0.6420   -2.3160 o         1 NAB     -0.828300
     21 OXT         2.9560   -0.1200   -1.5420 o         1 NAB     -0.828300
     22 O4'        -4.7270   -0.0570   -6.0250 oh        1 NAB     -0.513100
     23 H3          3.0960    0.3070    0.8860 ha        1 NAB      0.155000
     24 H4          2.2750    0.0910    3.2500 ha        1 NAB      0.109000
     25 H5         -0.1450   -0.3370    3.6860 ha        1 NAB      0.107000
     26 H6         -1.7340   -0.5440    1.7920 ha        1 NAB      0.116000
     27 H2'        -0.8090    0.1290   -3.6160 ha        1 NAB      0.215000
     28 H3'        -2.0400    0.0170   -5.7810 ha        1 NAB      0.133000
     29 H5'        -6.6820   -0.0640   -4.6200 ha        1 NAB      0.138000
     30 H6'        -7.9710   -0.0210   -2.4710 ha        1 NAB      0.119000
     31 H7'        -6.7640    0.1040   -0.3020 ha        1 NAB      0.120000
     32 H8'        -4.2890    0.1850   -0.2370 ha        1 NAB      0.144000
     33 HO4'       -4.0960   -0.0660   -6.7590 ho        1 NAB      0.413000
@<TRIPOS>BOND
     1    1    2 ar  
     2    1    6 ar  
     3    1   18 1   
     4    2    3 ar  
     5    2   17 1   
     6    3    4 ar  
     7    3   23 1   
     8    4    5 ar  
     9    4   24 1   
    10    5    6 ar  
    11    5   25 1   
    12    6   26 1   
    13    7    8 ar  
    14    7   16 ar  
    15    7   19 1   
    16    8    9 ar  
    17    8   27 1   
    18    9   10 ar  
    19    9   28 1   
    20   10   11 ar  
    21   10   22 1   
    22   11   12 ar  
    23   11   16 ar  
    24   12   13 ar  
    25   12   29 1   
    26   13   14 ar  
    27   13   30 1   
    28   14   15 ar  
    29   14   31 1   
    30   15   16 ar  
    31   15   32 1   
    32   17   20 1   
    33   17   21 1   
    34   18   19 2   
    35   22   33 1   
@<TRIPOS>SUBSTRUCTURE
     1 NAB         1 TEMP              0 ****  ****    0 ROOT
