@<TRIPOS>MOLECULE
NAB
   33    35     1     0     0
SMALL
bcc


@<TRIPOS>ATOM
      1 C1         -0.2090    0.2090    0.2790 ca        1 NAB      0.120400
      2 C2          1.1600   -0.0040    0.0080 ca        1 NAB     -0.097600
      3 C3          2.0350   -0.1460    1.0900 ca        1 NAB     -0.105000
      4 C4          1.5770   -0.0990    2.4040 ca        1 NAB     -0.158000
      5 C5          0.2210    0.0950    2.6610 ca        1 NAB     -0.152000
      6 C6         -0.6740    0.2440    1.6070 ca        1 NAB     -0.151000
      7 C1'        -2.6150   -0.0820   -2.4210 ca        1 NAB      0.092400
      8 C2'        -1.9220    0.0390   -3.6210 ca        1 NAB     -0.073000
      9 C3'        -2.6170    0.1410   -4.8400 ca        1 NAB     -0.207000
     10 C4'        -3.9990    0.1390   -4.8490 ca        1 NAB      0.107100
     11 C4A        -4.7500    0.0290   -3.6400 ca        1 NAB     -0.056000
     12 C5'        -6.1710    0.0340   -3.6430 ca        1 NAB     -0.099000
     13 C6'        -6.8730   -0.0710   -2.4690 ca        1 NAB     -0.154000
     14 C7'        -6.1810   -0.1890   -1.2400 ca        1 NAB     -0.139000
     15 C8'        -4.8080   -0.1960   -1.2100 ca        1 NAB     -0.109000
     16 C8A        -4.0480   -0.0860   -2.4100 ca        1 NAB      0.004000
     17 C           1.7450   -0.0820   -1.4010 c         1 NAB      0.916200
     18 N1         -1.0920    0.5060   -0.8210 ne        1 NAB     -0.152400
     19 N1'        -1.8850   -0.3450   -1.2040 nf        1 NAB     -0.186400
     20 O           1.0240   -0.5030   -2.3490 o         1 NAB     -0.828300
     21 OXT         2.9510    0.2650   -1.5350 o         1 NAB     -0.828300
     22 O4'        -4.7340    0.2430   -6.0150 oh        1 NAB     -0.513100
     23 H3          3.1060   -0.2840    0.8660 ha        1 NAB      0.155000
     24 H4          2.2830   -0.2140    3.2390 ha        1 NAB      0.109000
     25 H5         -0.1460    0.1280    3.6960 ha        1 NAB      0.107000
     26 H6         -1.7430    0.3930    1.8170 ha        1 NAB      0.116000
     27 H2'        -0.8090    0.0320   -3.6200 ha        1 NAB      0.215000
     28 H3'        -2.0470    0.2260   -5.7760 ha        1 NAB      0.133000
     29 H5'        -6.6870    0.1240   -4.6110 ha        1 NAB      0.138000
     30 H6'        -7.9710   -0.0670   -2.4680 ha        1 NAB      0.119000
     31 H7'        -6.7580   -0.2760   -0.3090 ha        1 NAB      0.120000
     32 H8'        -4.2820   -0.2950   -0.2480 ha        1 NAB      0.144000
     33 HO4'       -4.1050    0.3070   -6.7470 ho        1 NAB      0.413000
@<TRIPOS>BOND
     1    1    2 ar  
     2    1    6 ar  
     3    1   18 1   
     4    2    3 ar  
     5    2   17 1   
     6    3    4 ar  
     7    3   23 1   
     8    4    5 ar  
     9    4   24 1   
    10    5    6 ar  
    11    5   25 1   
    12    6   26 1   
    13    7    8 ar  
    14    7   16 ar  
    15    7   19 1   
    16    8    9 ar  
    17    8   27 1   
    18    9   10 ar  
    19    9   28 1   
    20   10   11 ar  
    21   10   22 1   
    22   11   12 ar  
    23   11   16 ar  
    24   12   13 ar  
    25   12   29 1   
    26   13   14 ar  
    27   13   30 1   
    28   14   15 ar  
    29   14   31 1   
    30   15   16 ar  
    31   15   32 1   
    32   17   20 1   
    33   17   21 1   
    34   18   19 2   
    35   22   33 1   
@<TRIPOS>SUBSTRUCTURE
     1 NAB         1 TEMP              0 ****  ****    0 ROOT
