@<TRIPOS>MOLECULE
NAF
   32    32     1     0     0
SMALL
bcc


@<TRIPOS>ATOM
      1 C1         -0.0230   -0.0450    0.0960 ca        1 NAF     -0.041400
      2 C2          1.3840   -0.0350    0.0850 ca        1 NAF     -0.082000
      3 C3          2.0880   -0.1000    1.2900 ca        1 NAF     -0.106300
      4 C4          1.4080   -0.1920    2.5070 ca        1 NAF     -0.029000
      5 C5          0.0130   -0.2130    2.5100 ca        1 NAF     -0.112000
      6 C6         -0.7090   -0.1380    1.3210 ca        1 NAF     -0.088000
      7 C1'         3.5940   -0.0660    1.2350 c3        1 NAF      0.370900
      8 O1'         4.1220   -0.9190    0.2480 oh        1 NAF     -0.605300
      9 O2'         4.1250   -0.4930    2.4590 oh        1 NAF     -0.605300
     10 C2'         4.1320    1.3860    0.8470 c3        1 NAF      0.616900
     11 F1'         3.5990    2.3870    1.6110 f         1 NAF     -0.217633
     12 F2'         5.4860    1.4840    1.0050 f         1 NAF     -0.217633
     13 F3'         3.8710    1.7340   -0.4490 f         1 NAF     -0.217633
     14 N1         -0.7420    0.0520   -1.1980 n4        1 NAF     -0.473200
     15 CM1        -2.2260    0.0310   -1.0230 c3        1 NAF      0.093100
     16 CM2        -0.3530   -1.1040   -2.0680 c3        1 NAF      0.093100
     17 CM3        -0.3660    1.3370   -1.8740 c3        1 NAF      0.093100
     18 H2          1.9700    0.0320   -0.8500 ha        1 NAF      0.171000
     19 H4          1.9760   -0.2490    3.4540 ha        1 NAF      0.192000
     20 H5         -0.5310   -0.2870    3.4680 ha        1 NAF      0.175000
     21 H6         -1.8090   -0.1530    1.3830 ha        1 NAF      0.158000
     22 HO1         4.1170   -1.8230    0.5980 ho        1 NAF      0.454000
     23 HO2         5.0830   -0.3320    2.4500 ho        1 NAF      0.454000
     24 HM11       -2.5350   -0.9330   -0.5370 hx        1 NAF      0.102811
     25 HM12       -2.5450    0.9040   -0.3940 hx        1 NAF      0.102811
     26 HM13       -2.7090    0.1070   -2.0340 hx        1 NAF      0.102811
     27 HM21       -0.6120   -2.0620   -1.5440 hx        1 NAF      0.102811
     28 HM22       -0.9120   -1.0350   -3.0390 hx        1 NAF      0.102811
     29 HM23        0.7510   -1.0730   -2.2680 hx        1 NAF      0.102811
     30 HM31       -0.9230    1.4150   -2.8450 hx        1 NAF      0.102811
     31 HM32       -0.6360    2.1970   -1.2050 hx        1 NAF      0.102811
     32 HM33        0.7390    1.3520   -2.0720 hx        1 NAF      0.102811
@<TRIPOS>BOND
     1    1    2 ar  
     2    1    6 ar  
     3    1   14 1   
     4    2    3 ar  
     5    2   18 1   
     6    3    4 ar  
     7    3    7 1   
     8    4    5 ar  
     9    4   19 1   
    10    5    6 ar  
    11    5   20 1   
    12    6   21 1   
    13    7    8 1   
    14    7    9 1   
    15    7   10 1   
    16    8   22 1   
    17    9   23 1   
    18   10   11 1   
    19   10   12 1   
    20   10   13 1   
    21   14   15 1   
    22   14   16 1   
    23   14   17 1   
    24   15   24 1   
    25   15   25 1   
    26   15   26 1   
    27   16   27 1   
    28   16   28 1   
    29   16   29 1   
    30   17   30 1   
    31   17   31 1   
    32   17   32 1   
@<TRIPOS>SUBSTRUCTURE
     1 NAF         1 TEMP              0 ****  ****    0 ROOT
