@<TRIPOS>MOLECULE
NAF
   32    32     1     0     0
SMALL
bcc


@<TRIPOS>ATOM
      1 C1          2.0300   -0.3500   -0.0240 ca        1 NAF     -0.039400
      2 C2          0.7570    0.1680    0.2820 ca        1 NAF     -0.066000
      3 C3         -0.3450   -0.6880    0.3440 ca        1 NAF     -0.098300
      4 C4         -0.1900   -2.0590    0.1240 ca        1 NAF     -0.047000
      5 C5          1.0730   -2.5660   -0.1800 ca        1 NAF     -0.107000
      6 C6          2.1830   -1.7280   -0.2590 ca        1 NAF     -0.089000
      7 C1'        -1.6910   -0.1010    0.6900 c3        1 NAF      0.389900
      8 O1'        -1.5490    0.7740    1.7740 oh        1 NAF     -0.585300
      9 O2'        -2.6320   -1.0380    1.1360 oh        1 NAF     -0.585300
     10 C2'        -2.3020    0.7230   -0.5440 c3        1 NAF      0.569900
     11 F1'        -2.7940   -0.0930   -1.5270 f         1 NAF     -0.223300
     12 F2'        -3.3470    1.5150   -0.1590 f         1 NAF     -0.223300
     13 F3'        -1.4130    1.5590   -1.1610 f         1 NAF     -0.223300
     14 N1          3.1780    0.5880   -0.0870 n4        1 NAF     -0.474200
     15 CM1         4.4590   -0.1080   -0.4170 c3        1 NAF      0.093100
     16 CM2         3.3370    1.2610    1.2430 c3        1 NAF      0.093100
     17 CM3         2.9150    1.6190   -1.1420 c3        1 NAF      0.093100
     18 H2          0.5870    1.2410    0.4790 ha        1 NAF      0.172000
     19 H4         -1.0570   -2.7380    0.2020 ha        1 NAF      0.173000
     20 H5          1.2000   -3.6480   -0.3590 ha        1 NAF      0.175000
     21 H6          3.1570   -2.1820   -0.5030 ha        1 NAF      0.158000
     22 HO1        -2.3860    0.7840    2.2710 ho        1 NAF      0.459000
     23 HO2        -3.0340   -1.4840    0.3750 ho        1 NAF      0.459000
     24 HM11        4.6890   -0.8710    0.3730 hx        1 NAF      0.103033
     25 HM12        4.3720   -0.6020   -1.4210 hx        1 NAF      0.103033
     26 HM13        5.2840    0.6530   -0.4490 hx        1 NAF      0.103033
     27 HM21        4.2170    1.9560    1.1980 hx        1 NAF      0.103033
     28 HM22        2.4100    1.8440    1.4860 hx        1 NAF      0.103033
     29 HM23        3.5040    0.4810    2.0320 hx        1 NAF      0.103033
     30 HM31        2.7770    1.1050   -2.1310 hx        1 NAF      0.103033
     31 HM32        1.9850    2.1930   -0.8880 hx        1 NAF      0.103033
     32 HM33        3.7890    2.3210   -1.1930 hx        1 NAF      0.103033
@<TRIPOS>BOND
     1    1    2 ar  
     2    1    6 ar  
     3    1   14 1   
     4    2    3 ar  
     5    2   18 1   
     6    3    4 ar  
     7    3    7 1   
     8    4    5 ar  
     9    4   19 1   
    10    5    6 ar  
    11    5   20 1   
    12    6   21 1   
    13    7    8 1   
    14    7    9 1   
    15    7   10 1   
    16    8   22 1   
    17    9   23 1   
    18   10   11 1   
    19   10   12 1   
    20   10   13 1   
    21   14   15 1   
    22   14   16 1   
    23   14   17 1   
    24   15   24 1   
    25   15   25 1   
    26   15   26 1   
    27   16   27 1   
    28   16   28 1   
    29   16   29 1   
    30   17   30 1   
    31   17   31 1   
    32   17   32 1   
@<TRIPOS>SUBSTRUCTURE
     1 NAF         1 TEMP              0 ****  ****    0 ROOT
