@<TRIPOS>MOLECULE
NAF
   32    29     1     0     0
SMALL
bcc


@<TRIPOS>ATOM
      1 C1         -0.9850    0.0720   -0.1190 c1        1 NAF     -0.068200
      2 C2          0.4120    0.1260   -0.1120 c1        1 NAF     -0.006500
      3 C3          1.0910    0.1280    1.0870 c1        1 NAF     -0.074100
      4 C4          0.3860    0.0770    2.2870 c1        1 NAF     -0.021000
      5 C5         -0.9950    0.0240    2.2770 c1        1 NAF     -0.021000
      6 C6         -1.6800    0.0220    1.0730 c1        1 NAF     -0.029500
      7 C1'         2.6550    0.2290    1.1100 c3        1 NAF      0.331700
      8 O1'         3.0440    1.2180    2.0440 oh        1 NAF     -0.604800
      9 O2'         3.1160    0.5680   -0.1310 oh        1 NAF     -0.604800
     10 C2'         3.2630   -1.1560    1.5360 c3        1 NAF      0.623900
     11 F1'         4.4510   -1.3080    0.9830 f         1 NAF     -0.216633
     12 F2'         3.3850   -1.1950    2.8720 f         1 NAF     -0.216633
     13 F3'         2.4420   -2.1570    1.1260 f         1 NAF     -0.216633
     14 N1         -1.7080    0.0450   -1.3850 n4        1 NAF     -0.447400
     15 CM1        -1.5490   -1.2430   -2.0010 c3        1 NAF      0.093100
     16 CM2        -1.1760    1.0690   -2.2690 c3        1 NAF      0.093100
     17 CM3        -3.1250    0.2980   -1.1470 c3        1 NAF      0.093100
     18 H2          0.9050    0.1630   -0.9550 ha        1 NAF      0.114500
     19 H4          0.8560    0.0790    3.1150 ha        1 NAF      0.124000
     20 H5         -1.4870   -0.0110    3.1170 ha        1 NAF      0.124000
     21 H6         -2.6300   -0.0150    1.0660 ha        1 NAF      0.100500
     22 HO1         3.4740    1.9030    1.6050 ho        1 NAF      0.452000
     23 HO2         3.9860    0.6760   -0.1000 ho        1 NAF      0.452000
     24 HM11       -0.6490   -1.3400   -2.3100 hx        1 NAF      0.102811
     25 HM12       -1.7470   -1.9460   -1.3440 hx        1 NAF      0.102811
     26 HM13       -2.1740   -1.3220   -2.7690 hx        1 NAF      0.102811
     27 HM21       -1.8210    1.2190   -3.0390 hx        1 NAF      0.102811
     28 HM22       -1.0620    1.9150   -1.7650 hx        1 NAF      0.102811
     29 HM23       -0.3480    0.7920   -2.6050 hx        1 NAF      0.102811
     30 HM31       -3.2340    1.1680   -0.6610 hx        1 NAF      0.102811
     31 HM32       -3.5870    0.3440   -1.9900 hx        1 NAF      0.102811
     32 HM33       -3.5090   -0.4430   -0.5980 hx        1 NAF      0.102811
@<TRIPOS>BOND
     1    1    6 3   
     2    1   14 1   
     3    2    3 3   
     4    2   18 1   
     5    3    7 1   
     6    4    5 3   
     7    4   19 1   
     8    5   20 1   
     9    6   21 1   
    10    7    8 1   
    11    7    9 1   
    12    7   10 1   
    13    8   22 1   
    14    9   23 1   
    15   10   11 1   
    16   10   12 1   
    17   10   13 1   
    18   14   15 1   
    19   14   16 1   
    20   14   17 1   
    21   15   24 1   
    22   15   25 1   
    23   15   26 1   
    24   16   27 1   
    25   16   28 1   
    26   16   29 1   
    27   17   30 1   
    28   17   31 1   
    29   17   32 1   
@<TRIPOS>SUBSTRUCTURE
     1 NAF         1 TEMP              0 ****  ****    0 ROOT
