@<TRIPOS>MOLECULE
NAF
   32    32     1     0     0
SMALL
bcc


@<TRIPOS>ATOM
      1 C1         -0.0230   -0.0430    0.0970 ca        1 NAF     -0.041400
      2 C2          1.3840   -0.0310    0.0850 ca        1 NAF     -0.082000
      3 C3          2.0870   -0.0980    1.2900 ca        1 NAF     -0.106300
      4 C4          1.4080   -0.1940    2.5070 ca        1 NAF     -0.029000
      5 C5          0.0130   -0.2170    2.5110 ca        1 NAF     -0.112000
      6 C6         -0.7090   -0.1400    1.3210 ca        1 NAF     -0.088000
      7 C1'         3.5940   -0.0610    1.2340 c3        1 NAF      0.370900
      8 O1'         4.1230   -0.9100    0.2450 oh        1 NAF     -0.605300
      9 O2'         4.1250   -0.4900    2.4570 oh        1 NAF     -0.605300
     10 C2'         4.1290    1.3930    0.8500 c3        1 NAF      0.616900
     11 F1'         3.5950    2.3910    1.6170 f         1 NAF     -0.217633
     12 F2'         5.4830    1.4920    1.0090 f         1 NAF     -0.217633
     13 F3'         3.8670    1.7440   -0.4450 f         1 NAF     -0.217633
     14 N1         -0.7430    0.0550   -1.1970 n4        1 NAF     -0.473200
     15 CM1        -2.2270    0.0300   -1.0210 c3        1 NAF      0.093100
     16 CM2        -0.3520   -1.0980   -2.0700 c3        1 NAF      0.093100
     17 CM3        -0.3700    1.3420   -1.8700 c3        1 NAF      0.093100
     18 H2          1.9690    0.0390   -0.8500 ha        1 NAF      0.171000
     19 H4          1.9770   -0.2520    3.4530 ha        1 NAF      0.192000
     20 H5         -0.5300   -0.2940    3.4680 ha        1 NAF      0.175000
     21 H6         -1.8090   -0.1570    1.3840 ha        1 NAF      0.158000
     22 HO1         4.1200   -1.8160    0.5920 ho        1 NAF      0.454000
     23 HO2         5.0830   -0.3280    2.4480 ho        1 NAF      0.454000
     24 HM11       -2.5470    0.9020   -0.3910 hx        1 NAF      0.102811
     25 HM12       -2.5340   -0.9350   -0.5380 hx        1 NAF      0.102811
     26 HM13       -2.7110    0.1080   -2.0330 hx        1 NAF      0.102811
     27 HM21        0.7510   -1.0640   -2.2700 hx        1 NAF      0.102811
     28 HM22       -0.6090   -2.0580   -1.5480 hx        1 NAF      0.102811
     29 HM23       -0.9120   -1.0290   -3.0400 hx        1 NAF      0.102811
     30 HM31        0.7350    1.3590   -2.0680 hx        1 NAF      0.102811
     31 HM32       -0.9270    1.4220   -2.8410 hx        1 NAF      0.102811
     32 HM33       -0.6420    2.2000   -1.2000 hx        1 NAF      0.102811
@<TRIPOS>BOND
     1    1    2 ar  
     2    1    6 ar  
     3    1   14 1   
     4    2    3 ar  
     5    2   18 1   
     6    3    4 ar  
     7    3    7 1   
     8    4    5 ar  
     9    4   19 1   
    10    5    6 ar  
    11    5   20 1   
    12    6   21 1   
    13    7    8 1   
    14    7    9 1   
    15    7   10 1   
    16    8   22 1   
    17    9   23 1   
    18   10   11 1   
    19   10   12 1   
    20   10   13 1   
    21   14   15 1   
    22   14   16 1   
    23   14   17 1   
    24   15   24 1   
    25   15   25 1   
    26   15   26 1   
    27   16   27 1   
    28   16   28 1   
    29   16   29 1   
    30   17   30 1   
    31   17   31 1   
    32   17   32 1   
@<TRIPOS>SUBSTRUCTURE
     1 NAF         1 TEMP              0 ****  ****    0 ROOT
