@<TRIPOS>MOLECULE
NAF
   32    32     1     0     0
SMALL
bcc


@<TRIPOS>ATOM
      1 C1         -0.0220   -0.0460    0.0920 ca        1 NAF     -0.041400
      2 C2          1.3850   -0.0340    0.0870 ca        1 NAF     -0.082000
      3 C3          2.0830   -0.1000    1.2950 ca        1 NAF     -0.106300
      4 C4          1.3980   -0.1940    2.5090 ca        1 NAF     -0.029000
      5 C5          0.0030   -0.2160    2.5060 ca        1 NAF     -0.112000
      6 C6         -0.7140   -0.1410    1.3130 ca        1 NAF     -0.088000
      7 C1'         3.5890   -0.0650    1.2460 c3        1 NAF      0.370900
      8 O1'         4.1230   -0.9150    0.2600 oh        1 NAF     -0.605300
      9 O2'         4.1150   -0.4920    2.4710 oh        1 NAF     -0.605300
     10 C2'         4.1270    1.3890    0.8620 c3        1 NAF      0.616900
     11 F1'         3.5900    2.3880    1.6250 f         1 NAF     -0.217633
     12 F2'         5.4810    1.4870    1.0270 f         1 NAF     -0.217633
     13 F3'         3.8710    1.7390   -0.4340 f         1 NAF     -0.217633
     14 N1         -0.7360    0.0520   -1.2050 n4        1 NAF     -0.473200
     15 CM1        -2.2210    0.0280   -1.0370 c3        1 NAF      0.093100
     16 CM2        -0.3420   -1.1030   -2.0750 c3        1 NAF      0.093100
     17 CM3        -0.3590    1.3380   -1.8780 c3        1 NAF      0.093100
     18 H2          1.9750    0.0340   -0.8460 ha        1 NAF      0.171000
     19 H4          1.9620   -0.2520    3.4580 ha        1 NAF      0.192000
     20 H5         -0.5450   -0.2920    3.4610 ha        1 NAF      0.175000
     21 H6         -1.8140   -0.1570    1.3700 ha        1 NAF      0.158000
     22 HO1         4.1170   -1.8200    0.6090 ho        1 NAF      0.454000
     23 HO2         5.0730   -0.3300    2.4670 ho        1 NAF      0.454000
     24 HM11       -2.5300   -0.9360   -0.5540 hx        1 NAF      0.102811
     25 HM12       -2.5440    0.9000   -0.4080 hx        1 NAF      0.102811
     26 HM13       -2.7000    0.1050   -2.0500 hx        1 NAF      0.102811
     27 HM21       -0.6010   -2.0610   -1.5530 hx        1 NAF      0.102811
     28 HM22       -0.8970   -1.0340   -3.0480 hx        1 NAF      0.102811
     29 HM23        0.7630   -1.0690   -2.2710 hx        1 NAF      0.102811
     30 HM31       -0.9120    1.4170   -2.8520 hx        1 NAF      0.102811
     31 HM32       -0.6340    2.1960   -1.2100 hx        1 NAF      0.102811
     32 HM33        0.7460    1.3550   -2.0710 hx        1 NAF      0.102811
@<TRIPOS>BOND
     1    1    2 ar  
     2    1    6 ar  
     3    1   14 1   
     4    2    3 ar  
     5    2   18 1   
     6    3    4 ar  
     7    3    7 1   
     8    4    5 ar  
     9    4   19 1   
    10    5    6 ar  
    11    5   20 1   
    12    6   21 1   
    13    7    8 1   
    14    7    9 1   
    15    7   10 1   
    16    8   22 1   
    17    9   23 1   
    18   10   11 1   
    19   10   12 1   
    20   10   13 1   
    21   14   15 1   
    22   14   16 1   
    23   14   17 1   
    24   15   24 1   
    25   15   25 1   
    26   15   26 1   
    27   16   27 1   
    28   16   28 1   
    29   16   29 1   
    30   17   30 1   
    31   17   31 1   
    32   17   32 1   
@<TRIPOS>SUBSTRUCTURE
     1 NAF         1 TEMP              0 ****  ****    0 ROOT
