@<TRIPOS>MOLECULE
NAG
   30    30     1     0     0
SMALL
bcc


@<TRIPOS>ATOM
      1 C1          0.0020    1.0450   -0.7290 c3        1 NAG      0.333900
      2 C2          0.7290   -0.1820   -0.0990 c3        1 NAG      0.045700
      3 C3         -0.1570   -1.4130   -0.3980 c3        1 NAG      0.138100
      4 C4         -1.5470   -1.1820    0.2290 c3        1 NAG      0.077100
      5 C5         -2.1530    0.1370   -0.2710 c3        1 NAG      0.074100
      6 C6         -3.4170    0.5100    0.5130 c3        1 NAG      0.138400
      7 C7          3.1140    0.3550    0.0670 c         1 NAG      0.663100
      8 C8          4.5240    0.0150   -0.3410 c3        1 NAG     -0.172100
      9 N2          2.0830   -0.3220   -0.5700 n         1 NAG     -0.549900
     10 O1          0.6260    2.2670   -0.5060 oh        1 NAG     -0.569800
     11 O3          0.4640   -2.5510    0.1710 oh        1 NAG     -0.600800
     12 O4         -2.3250   -2.2960   -0.1830 oh        1 NAG     -0.603800
     13 O5         -1.2500    1.2190   -0.0580 os        1 NAG     -0.452600
     14 O6         -4.0250    1.6630   -0.0230 oh        1 NAG     -0.592800
     15 O7          2.8640    1.2400    0.9110 o         1 NAG     -0.616100
     16 H1         -0.1420    0.9460   -1.8390 h2        1 NAG      0.080700
     17 H2          0.7480   -0.0180    1.0240 h1        1 NAG      0.088700
     18 H3         -0.2710   -1.5640   -1.5080 h1        1 NAG      0.056700
     19 H4         -1.4570   -1.1680    1.3510 h1        1 NAG      0.064700
     20 H5         -2.3900    0.0550   -1.3680 h1        1 NAG      0.067700
     21 H61        -4.1850   -0.3010    0.4080 h1        1 NAG      0.050700
     22 H62        -3.1630    0.6670    1.5940 h1        1 NAG      0.050700
     23 H81         4.6760    0.2290   -1.4260 hc        1 NAG      0.069367
     24 H82         5.2310    0.6420    0.2560 hc        1 NAG      0.069367
     25 H83         4.7400   -1.0630   -0.1460 hc        1 NAG      0.069367
     26 HN2         2.2940   -1.1520   -1.0730 hn        1 NAG      0.317500
     27 HO1         0.9350    2.2940    0.4140 ho        1 NAG      0.439000
     28 HO3        -0.1670   -3.2790    0.0870 ho        1 NAG      0.427000
     29 HO4        -3.1860   -2.2140    0.2430 ho        1 NAG      0.415000
     30 HO6        -3.3610    2.3670   -0.0090 ho        1 NAG      0.423000
@<TRIPOS>BOND
     1    1    2 1   
     2    1   10 1   
     3    1   13 1   
     4    1   16 1   
     5    2    3 1   
     6    2    9 1   
     7    2   17 1   
     8    3    4 1   
     9    3   11 1   
    10    3   18 1   
    11    4    5 1   
    12    4   12 1   
    13    4   19 1   
    14    5    6 1   
    15    5   13 1   
    16    5   20 1   
    17    6   14 1   
    18    6   21 1   
    19    6   22 1   
    20    7    8 1   
    21    7    9 1   
    22    7   15 2   
    23    8   23 1   
    24    8   24 1   
    25    8   25 1   
    26    9   26 1   
    27   10   27 1   
    28   11   28 1   
    29   12   29 1   
    30   14   30 1   
@<TRIPOS>SUBSTRUCTURE
     1 NAG         1 TEMP              0 ****  ****    0 ROOT
