@<TRIPOS>MOLECULE
NAK
   11    10     1     0     0
SMALL
bcc


@<TRIPOS>ATOM
      1 OAC        -0.0660   -0.0000   -0.1340 o         1 NAK     -0.710800
      2 CAF         1.1570   -0.0000    0.0540 c         1 NAK      0.909600
      3 OAD         1.8790   -0.0000    1.0650 o         1 NAK     -0.710800
      4 CAG         2.0050    0.0000   -1.3410 c2        1 NAK      0.137800
      5 CAE         1.2140    0.0000   -2.5880 c3        1 NAK     -0.128900
      6 NAB         3.3120    0.0000   -1.2900 nh        1 NAK     -0.691600
      7 HAE1        0.5420    0.9000   -2.5660 hc        1 NAK      0.093033
      8 HAE2        1.8170    0.0000   -3.5270 hc        1 NAK      0.093033
      9 HAE3        0.5420   -0.9000   -2.5660 hc        1 NAK      0.093033
     10 HAB1        3.7480   -0.0000   -0.3820 hn        1 NAK      0.457800
     11 HAB2        3.9030    0.0000   -2.0920 hn        1 NAK      0.457800
@<TRIPOS>BOND
     1    1    2 1   
     2    2    3 1   
     3    2    4 2   
     4    4    5 1   
     5    4    6 1   
     6    5    7 1   
     7    5    8 1   
     8    5    9 1   
     9    6   10 1   
    10    6   11 1   
@<TRIPOS>SUBSTRUCTURE
     1 NAK         1 TEMP              0 ****  ****    0 ROOT
