@<TRIPOS>MOLECULE
NAK
   11    10     1     0     0
SMALL
bcc


@<TRIPOS>ATOM
      1 OAC        -1.1790    1.2700   -0.2120 o         1 NAK     -0.710800
      2 CAF        -0.8390    0.0830   -0.1290 c         1 NAK      0.909600
      3 OAD        -1.4540   -0.9970   -0.1280 o         1 NAK     -0.710800
      4 CAG         0.7770   -0.0970    0.0110 c2        1 NAK      0.137800
      5 CAE         1.5770    1.1430    0.0170 c3        1 NAK     -0.128900
      6 NAB         1.2760   -1.3030    0.1090 nh        1 NAK     -0.691600
      7 HAE1        1.3500    1.7010   -0.9320 hc        1 NAK      0.093033
      8 HAE2        1.2040    1.7860    0.8600 hc        1 NAK      0.093033
      9 HAE3        2.6790    0.9930    0.1140 hc        1 NAK      0.093033
     10 HAB1        0.6350   -2.0810    0.0940 hn        1 NAK      0.457800
     11 HAB2        2.2490   -1.5010    0.1970 hn        1 NAK      0.457800
@<TRIPOS>BOND
     1    1    2 1   
     2    2    3 1   
     3    2    4 2   
     4    4    5 1   
     5    4    6 1   
     6    5    7 1   
     7    5    8 1   
     8    5    9 1   
     9    6   10 1   
    10    6   11 1   
@<TRIPOS>SUBSTRUCTURE
     1 NAK         1 TEMP              0 ****  ****    0 ROOT
