@<TRIPOS>MOLECULE
NAK
   11     9     1     0     0
SMALL
bcc


@<TRIPOS>ATOM
      1 OAC        -2.0220    0.1710    1.3210 o         1 NAK     -0.710800
      2 CAF        -0.7630    0.1710    1.3210 c         1 NAK      0.840300
      3 OAD        -0.1330    0.1710    2.4110 o         1 NAK     -0.710800
      4 CAG        -0.0060    0.1720    0.0110 ce        1 NAK      0.492300
      5 CAE         0.3730   -1.1370   -0.6450 c3        1 NAK     -0.208400
      6 NAB         0.3200    1.3060   -0.5550 n2        1 NAK     -0.732100
      7 HAE1        1.3440   -1.1880   -0.7330 hc        1 NAK      0.093033
      8 HAE2       -0.0370   -1.1880   -1.5300 hc        1 NAK      0.093033
      9 HAE3        0.0560   -1.8800   -0.0970 hc        1 NAK      0.093033
     10 HAB1        0.0920    2.0960   -0.1590 DU        1 NAK      0.281000
     11 HAB2        0.7760    1.3070   -1.3450 hn        1 NAK      0.469400
@<TRIPOS>BOND
     1    1    2 1   
     2    2    3 1   
     3    2    4 1   
     4    4    5 1   
     5    4    6 2   
     6    5    7 1   
     7    5    8 1   
     8    5    9 1   
     9    6   11 1   
@<TRIPOS>SUBSTRUCTURE
     1 NAK         1 TEMP              0 ****  ****    0 ROOT
