@<TRIPOS>MOLECULE
NAL
   28    29     1     0     0
SMALL
bcc


@<TRIPOS>ATOM
      1 C1         -0.7540    0.7430   -0.6670 ca        1 NAL     -0.140000
      2 C2          0.2020   -0.2260   -0.4520 ca        1 NAL     -0.019300
      3 C3         -0.1910   -1.4790    0.1000 ca        1 NAL     -0.107000
      4 C4         -1.5020   -1.7310    0.4110 ca        1 NAL     -0.139000
      5 C4A        -2.5020   -0.7460    0.1910 ca        1 NAL     -0.049000
      6 C5         -3.8690   -0.9780    0.5010 ca        1 NAL     -0.114000
      7 C6         -4.8130   -0.0050    0.2790 ca        1 NAL     -0.151000
      8 C7         -4.4320    1.2470   -0.2610 ca        1 NAL     -0.145000
      9 C8         -3.1180    1.4980   -0.5700 ca        1 NAL     -0.116000
     10 C8A        -2.1190    0.5080   -0.3530 ca        1 NAL     -0.027000
     11 C9          1.6310   -0.0090   -0.8010 c3        1 NAL     -0.040100
     12 CA          2.5490    0.0500    0.4260 c3        1 NAL      0.022500
     13 C           4.0160   -0.2140   -0.0570 c         1 NAL      0.887600
     14 N           2.3790    1.2640    1.2110 n3        1 NAL     -0.886800
     15 O           4.9170    0.5870    0.3230 o         1 NAL     -0.839800
     16 OXT         4.2150   -1.2270   -0.7820 o         1 NAL     -0.839800
     17 H1         -0.4700    1.7220   -1.0800 ha        1 NAL      0.130000
     18 H3          0.5900   -2.2370    0.2730 ha        1 NAL      0.147000
     19 H4         -1.8030   -2.6990    0.8390 ha        1 NAL      0.119000
     20 H5         -4.1540   -1.9530    0.9230 ha        1 NAL      0.120000
     21 H6         -5.8700   -0.1830    0.5190 ha        1 NAL      0.115000
     22 H7         -5.2030    2.0120   -0.4280 ha        1 NAL      0.116000
     23 H8         -2.8110    2.4680   -0.9870 ha        1 NAL      0.125000
     24 H91         1.9930   -0.8700   -1.4330 hc        1 NAL      0.062700
     25 H92         1.7430    0.9270   -1.4090 hc        1 NAL      0.062700
     26 HA          2.2830   -0.8120    1.1060 h1        1 NAL      0.043700
     27 H           3.1380    1.2970    1.8720 hn        1 NAL      0.331300
     28 H2          2.5030    2.0560    0.6040 hn        1 NAL      0.331300
@<TRIPOS>BOND
     1    1    2 ar  
     2    1   10 ar  
     3    1   17 1   
     4    2    3 ar  
     5    2   11 1   
     6    3    4 ar  
     7    3   18 1   
     8    4    5 ar  
     9    4   19 1   
    10    5    6 ar  
    11    5   10 ar  
    12    6    7 ar  
    13    6   20 1   
    14    7    8 ar  
    15    7   21 1   
    16    8    9 ar  
    17    8   22 1   
    18    9   10 ar  
    19    9   23 1   
    20   11   12 1   
    21   11   24 1   
    22   11   25 1   
    23   12   13 1   
    24   12   14 1   
    25   12   26 1   
    26   13   15 1   
    27   13   16 1   
    28   14   27 1   
    29   14   28 1   
@<TRIPOS>SUBSTRUCTURE
     1 NAL         1 TEMP              0 ****  ****    0 ROOT
