@<TRIPOS>MOLECULE
NAM
   30    31     1     0     0
SMALL
bcc


@<TRIPOS>ATOM
      1 N           0.7210    1.2850    2.1760 n3        1 NAM     -0.907800
      2 CA         -0.2440    0.2340    1.9250 c3        1 NAM      0.096500
      3 CB          0.2850   -0.9640    1.1130 c3        1 NAM     -0.072100
      4 C          -0.8560   -0.3050    3.2350 c         1 NAM      0.654100
      5 O          -0.9910   -1.5300    3.4310 o         1 NAM     -0.623100
      6 NXT        -1.3100    0.6010    4.1550 n         1 NAM     -0.658000
      7 CG          0.7740   -0.5410   -0.2270 ca        1 NAM     -0.075300
      8 CD1         2.1290   -0.3700   -0.4290 ca        1 NAM     -0.134000
      9 CE1         2.6360    0.0220   -1.6890 ca        1 NAM     -0.128000
     10 CZ1         1.7810    0.2400   -2.7390 ca        1 NAM     -0.116000
     11 CE2         0.3800    0.0740   -2.5710 ca        1 NAM     -0.037000
     12 CH1        -0.5150    0.2950   -3.6550 ca        1 NAM     -0.118000
     13 CP         -1.8670    0.1310   -3.4900 ca        1 NAM     -0.126000
     14 CH2        -2.3850   -0.2640   -2.2340 ca        1 NAM     -0.125000
     15 CZ2        -1.5430   -0.4840   -1.1720 ca        1 NAM     -0.123000
     16 CD2        -0.1350   -0.3210   -1.3080 ca        1 NAM     -0.028000
     17 H           1.0210    1.6820    1.3060 hn        1 NAM      0.358300
     18 H2          1.5200    0.9220    2.6580 hn        1 NAM      0.358300
     19 HA         -1.0980    0.6970    1.3390 h1        1 NAM      0.082700
     20 HB2         1.1090   -1.4630    1.6900 hc        1 NAM      0.075200
     21 HB3        -0.5360   -1.7240    1.0170 hc        1 NAM      0.075200
     22 HNX1       -1.6770    0.2750    5.0150 hn        1 NAM      0.316000
     23 HNX2       -1.1230    1.5650    4.0530 hn        1 NAM      0.316000
     24 HD1         2.8380   -0.5480    0.3940 ha        1 NAM      0.130000
     25 HE1         3.7230    0.1440   -1.8110 ha        1 NAM      0.134000
     26 HZ1         2.1630    0.5450   -3.7260 ha        1 NAM      0.134000
     27 HH1        -0.0970    0.6010   -4.6260 ha        1 NAM      0.133000
     28 HP         -2.5610    0.3010   -4.3270 ha        1 NAM      0.134000
     29 HH2        -3.4720   -0.3950   -2.1210 ha        1 NAM      0.134000
     30 HZ2        -1.9550   -0.7940   -0.1990 ha        1 NAM      0.138000
@<TRIPOS>BOND
     1    1    2 1   
     2    1   17 1   
     3    1   18 1   
     4    2    3 1   
     5    2    4 1   
     6    2   19 1   
     7    3    7 1   
     8    3   20 1   
     9    3   21 1   
    10    4    5 2   
    11    4    6 1   
    12    6   22 1   
    13    6   23 1   
    14    7    8 ar  
    15    7   16 ar  
    16    8    9 ar  
    17    8   24 1   
    18    9   10 ar  
    19    9   25 1   
    20   10   11 ar  
    21   10   26 1   
    22   11   12 ar  
    23   11   16 ar  
    24   12   13 ar  
    25   12   27 1   
    26   13   14 ar  
    27   13   28 1   
    28   14   15 ar  
    29   14   29 1   
    30   15   16 ar  
    31   15   30 1   
@<TRIPOS>SUBSTRUCTURE
     1 NAM         1 TEMP              0 ****  ****    0 ROOT
