@<TRIPOS>MOLECULE
NAR
   32    34     1     0     0
SMALL
bcc


@<TRIPOS>ATOM
      1 C1          0.0440   -0.0560    0.0320 ca        1 NAR     -0.299000
      2 C2          1.4350    0.1140    0.0540 ca        1 NAR      0.222100
      3 C3          2.1510    0.1560    1.2580 ca        1 NAR     -0.302000
      4 C4          1.4470    0.0350    2.4640 ca        1 NAR      0.246100
      5 C5          0.0420   -0.1220    2.4920 ca        1 NAR     -0.307600
      6 C6         -0.6320   -0.1750    1.2540 ca        1 NAR      0.237100
      7 C7         -0.7090   -0.1980    3.7480 c         1 NAR      0.593700
      8 C8         -2.2040   -0.1260    3.5820 c3        1 NAR     -0.212400
      9 C9         -2.6510   -0.8510    2.3220 c3        1 NAR      0.203400
     10 O1         -1.9970   -0.3130    1.1480 os        1 NAR     -0.320900
     11 O2         -0.1940   -0.2840    4.8660 o         1 NAR     -0.511100
     12 C10        -4.1240   -0.7030    2.0940 ca        1 NAR     -0.134300
     13 C11        -4.6490    0.4760    1.5490 ca        1 NAR     -0.070500
     14 C12        -6.0180    0.6170    1.3550 ca        1 NAR     -0.188000
     15 C13        -6.8710   -0.4410    1.7150 ca        1 NAR      0.135100
     16 C14        -6.3550   -1.6270    2.2580 ca        1 NAR     -0.188000
     17 C15        -4.9810   -1.7520    2.4390 ca        1 NAR     -0.070500
     18 O3         -8.2150   -0.2440    1.5050 oh        1 NAR     -0.494100
     19 O4          2.1710    0.2410   -1.0960 oh        1 NAR     -0.489100
     20 O5          2.0890    0.0760    3.6690 oh        1 NAR     -0.455100
     21 H11        -0.5160   -0.0970   -0.9110 ha        1 NAR      0.158000
     22 H31         3.2410    0.2820    1.2430 ha        1 NAR      0.158000
     23 H81        -2.4990    0.9570    3.5270 hc        1 NAR      0.088200
     24 H82        -2.7130   -0.5770    4.4730 hc        1 NAR      0.088200
     25 H9         -2.3690   -1.9410    2.3860 h1        1 NAR      0.063700
     26 H111       -3.9650    1.2900    1.2640 ha        1 NAR      0.142000
     27 H121       -6.4430    1.5350    0.9260 ha        1 NAR      0.145500
     28 H141       -7.0290   -2.4500    2.5340 ha        1 NAR      0.145500
     29 H151       -4.5710   -2.6850    2.8570 ha        1 NAR      0.142000
     30 HO3        -8.6830   -1.0420    1.7910 ho        1 NAR      0.421000
     31 H41         1.5650    0.1970   -1.8510 ho        1 NAR      0.429000
     32 H51         3.0390    0.1940    3.5040 ho        1 NAR      0.424000
@<TRIPOS>BOND
     1    1    2 ar  
     2    1    6 ar  
     3    1   21 1   
     4    2    3 ar  
     5    2   19 1   
     6    3    4 ar  
     7    3   22 1   
     8    4    5 ar  
     9    4   20 1   
    10    5    6 ar  
    11    5    7 1   
    12    6   10 1   
    13    7    8 1   
    14    7   11 2   
    15    8    9 1   
    16    8   23 1   
    17    8   24 1   
    18    9   10 1   
    19    9   12 1   
    20    9   25 1   
    21   12   13 ar  
    22   12   17 ar  
    23   13   14 ar  
    24   13   26 1   
    25   14   15 ar  
    26   14   27 1   
    27   15   16 ar  
    28   15   18 1   
    29   16   17 ar  
    30   16   28 1   
    31   17   29 1   
    32   18   30 1   
    33   19   31 1   
    34   20   32 1   
@<TRIPOS>SUBSTRUCTURE
     1 NAR         1 TEMP              0 ****  ****    0 ROOT
