@<TRIPOS>MOLECULE
NAR
   32    34     1     0     0
SMALL
bcc


@<TRIPOS>ATOM
      1 C1         -0.0180   -0.1930   -0.0390 ca        1 NAR     -0.240000
      2 C2          1.3730   -0.0210   -0.0440 ca        1 NAR      0.221100
      3 C3          2.1030    0.1000    1.1460 ca        1 NAR     -0.358000
      4 C4          1.4160    0.0610    2.3680 ca        1 NAR      0.251100
      5 C5          0.0130   -0.0930    2.4220 ca        1 NAR     -0.306600
      6 C6         -0.6760   -0.2280    1.1980 ca        1 NAR      0.230100
      7 C7         -0.7210   -0.0840    3.6900 c         1 NAR      0.593700
      8 C8         -2.2190   -0.0280    3.5390 c3        1 NAR     -0.212400
      9 C9         -2.6790   -0.8350    2.3350 c3        1 NAR      0.203400
     10 O1         -2.0420   -0.3710    1.1210 os        1 NAR     -0.317900
     11 O2         -0.1910   -0.0920    4.8050 o         1 NAR     -0.512100
     12 C10        -4.1550   -0.7080    2.1180 ca        1 NAR     -0.134300
     13 C11        -4.6930    0.4160    1.4790 ca        1 NAR     -0.070500
     14 C12        -6.0650    0.5380    1.2960 ca        1 NAR     -0.188000
     15 C13        -6.9080   -0.4840    1.7630 ca        1 NAR      0.135100
     16 C14        -6.3810   -1.6170    2.4010 ca        1 NAR     -0.188000
     17 C15        -5.0030   -1.7240    2.5690 ca        1 NAR     -0.070500
     18 O3         -8.2570   -0.3080    1.5600 oh        1 NAR     -0.494100
     19 O4          1.9740    0.0130   -1.2760 oh        1 NAR     -0.485100
     20 O5          2.0740    0.1830    3.5600 oh        1 NAR     -0.454100
     21 H11        -0.5780   -0.2950   -0.9780 ha        1 NAR      0.174000
     22 H31         3.1930    0.2250    1.1230 ha        1 NAR      0.141000
     23 H81        -2.7150   -0.4210    4.4650 hc        1 NAR      0.088200
     24 H82        -2.5190    1.0480    3.4180 hc        1 NAR      0.088200
     25 H9         -2.3900   -1.9170    2.4660 h1        1 NAR      0.063700
     26 H111       -4.0150    1.2030    1.1100 ha        1 NAR      0.142500
     27 H121       -6.4990    1.4130    0.7930 ha        1 NAR      0.145500
     28 H141       -7.0480   -2.4130    2.7600 ha        1 NAR      0.145500
     29 H151       -4.5850   -2.6150    3.0620 ha        1 NAR      0.142500
     30 HO3        -8.7180   -1.0800    1.9190 ho        1 NAR      0.421000
     31 H41         2.9280    0.1260   -1.1460 ho        1 NAR      0.426000
     32 H51         3.0210    0.2890    3.3760 ho        1 NAR      0.421000
@<TRIPOS>BOND
     1    1    2 ar  
     2    1    6 ar  
     3    1   21 1   
     4    2    3 ar  
     5    2   19 1   
     6    3    4 ar  
     7    3   22 1   
     8    4    5 ar  
     9    4   20 1   
    10    5    6 ar  
    11    5    7 1   
    12    6   10 1   
    13    7    8 1   
    14    7   11 2   
    15    8    9 1   
    16    8   23 1   
    17    8   24 1   
    18    9   10 1   
    19    9   12 1   
    20    9   25 1   
    21   12   13 ar  
    22   12   17 ar  
    23   13   14 ar  
    24   13   26 1   
    25   14   15 ar  
    26   14   27 1   
    27   15   16 ar  
    28   15   18 1   
    29   16   17 ar  
    30   16   28 1   
    31   17   29 1   
    32   18   30 1   
    33   19   31 1   
    34   20   32 1   
@<TRIPOS>SUBSTRUCTURE
     1 NAR         1 TEMP              0 ****  ****    0 ROOT
