@<TRIPOS>MOLECULE
NAR
   32    34     1     0     0
SMALL
bcc


@<TRIPOS>ATOM
      1 C1          1.8730    0.2440   -2.0960 ca        1 NAR     -0.242000
      2 C2          1.8100    0.2230   -3.4990 ca        1 NAR      0.221100
      3 C3          0.5910    0.1280   -4.1770 ca        1 NAR     -0.309000
      4 C4         -0.5990    0.0330   -3.4330 ca        1 NAR      0.272100
      5 C5         -0.5820    0.0240   -2.0190 ca        1 NAR     -0.365600
      6 C6          0.6770    0.1480   -1.3810 ca        1 NAR      0.233100
      7 C7         -1.7860   -0.1440   -1.2110 c         1 NAR      0.604700
      8 C8         -1.5630   -0.2890    0.2690 c3        1 NAR     -0.207400
      9 C9         -0.3610    0.5210    0.7270 c3        1 NAR      0.203400
     10 O1          0.8230    0.1460   -0.0120 os        1 NAR     -0.317900
     11 O2         -2.9320   -0.2020   -1.6850 o         1 NAR     -0.575100
     12 C10        -0.0580    0.2840    2.1740 ca        1 NAR     -0.136300
     13 C11         0.6460   -0.8560    2.5820 ca        1 NAR     -0.070000
     14 C12         0.9100   -1.0810    3.9280 ca        1 NAR     -0.187500
     15 C13         0.4600   -0.1470    4.8770 ca        1 NAR      0.136100
     16 C14        -0.2410    1.0010    4.4790 ca        1 NAR     -0.187500
     17 C15        -0.4910    1.2120    3.1260 ca        1 NAR     -0.070000
     18 O3          0.7450   -0.4240    6.1920 oh        1 NAR     -0.494100
     19 O4          3.0070    0.3120   -4.1590 oh        1 NAR     -0.485100
     20 O5         -1.7280   -0.0540   -4.1930 oh        1 NAR     -0.498100
     21 H11         2.8370    0.3330   -1.5770 ha        1 NAR      0.174000
     22 H31         0.5420    0.1250   -5.2740 ha        1 NAR      0.159000
     23 H81        -1.4000   -1.3780    0.4900 hc        1 NAR      0.092200
     24 H82        -2.4760    0.0420    0.8290 hc        1 NAR      0.092200
     25 H9         -0.5410    1.6180    0.5360 h1        1 NAR      0.063700
     26 H111        1.0010   -1.5710    1.8230 ha        1 NAR      0.142500
     27 H121        1.4640   -1.9700    4.2610 ha        1 NAR      0.146000
     28 H141       -0.5860    1.7280    5.2280 ha        1 NAR      0.146000
     29 H151       -1.0340    2.1160    2.8090 ha        1 NAR      0.142500
     30 HO3         0.3910    0.2970    6.7340 ho        1 NAR      0.421000
     31 H41         2.8300    0.2950   -5.1130 ho        1 NAR      0.429000
     32 H51        -2.5170   -0.1150   -3.6270 ho        1 NAR      0.464000
@<TRIPOS>BOND
     1    1    2 ar  
     2    1    6 ar  
     3    1   21 1   
     4    2    3 ar  
     5    2   19 1   
     6    3    4 ar  
     7    3   22 1   
     8    4    5 ar  
     9    4   20 1   
    10    5    6 ar  
    11    5    7 1   
    12    6   10 1   
    13    7    8 1   
    14    7   11 2   
    15    8    9 1   
    16    8   23 1   
    17    8   24 1   
    18    9   10 1   
    19    9   12 1   
    20    9   25 1   
    21   12   13 ar  
    22   12   17 ar  
    23   13   14 ar  
    24   13   26 1   
    25   14   15 ar  
    26   14   27 1   
    27   15   16 ar  
    28   15   18 1   
    29   16   17 ar  
    30   16   28 1   
    31   17   29 1   
    32   18   30 1   
    33   19   31 1   
    34   20   32 1   
@<TRIPOS>SUBSTRUCTURE
     1 NAR         1 TEMP              0 ****  ****    0 ROOT
