@<TRIPOS>MOLECULE
NAS
   21    22     1     0     0
SMALL
bcc


@<TRIPOS>ATOM
      1 S           0.1630    0.0200    2.5580 s6        1 NAS      1.459100
      2 O1S        -0.9080    0.7420    3.1330 o         1 NAS     -0.743533
      3 O2S         1.4210    0.6560    2.6640 o         1 NAS     -0.743533
      4 O3S         0.1850   -1.3440    2.9250 o         1 NAS     -0.743533
      5 C1          0.8190    0.0290   -0.1190 ca        1 NAS     -0.034000
      6 C2         -0.1890    0.0170    0.8120 ca        1 NAS     -0.248500
      7 C3         -1.5340   -0.0020    0.3710 ca        1 NAS     -0.031000
      8 C4         -1.8450   -0.0230   -0.9670 ca        1 NAS     -0.175000
      9 C5         -1.0940   -0.0450   -3.3380 ca        1 NAS     -0.129000
     10 C6         -0.0740   -0.0380   -4.2570 ca        1 NAS     -0.143000
     11 C7          1.2740   -0.0070   -3.8280 ca        1 NAS     -0.163000
     12 C8          1.5730    0.0160   -2.4880 ca        1 NAS     -0.101000
     13 C9          0.5390    0.0080   -1.5130 ca        1 NAS     -0.062000
     14 C10        -0.8140   -0.0220   -1.9440 ca        1 NAS     -0.018000
     15 H3         -2.3270    0.0140    1.1370 ha        1 NAS      0.148000
     16 H4         -2.8910   -0.0380   -1.3050 ha        1 NAS      0.113000
     17 H5         -2.1450   -0.0690   -3.6620 ha        1 NAS      0.117000
     18 H6         -0.2910   -0.0570   -5.3350 ha        1 NAS      0.111000
     19 H7          2.0740   -0.0010   -4.5820 ha        1 NAS      0.113000
     20 H8          2.6180    0.0410   -2.1430 ha        1 NAS      0.126000
     21 H1          1.8710    0.0660    0.2140 ha        1 NAS      0.148000
@<TRIPOS>BOND
     1    1    2 1   
     2    1    3 1   
     3    1    4 1   
     4    1    6 1   
     5    5    6 ar  
     6    5   13 ar  
     7    5   21 1   
     8    6    7 ar  
     9    7    8 ar  
    10    7   15 1   
    11    8   14 ar  
    12    8   16 1   
    13    9   10 ar  
    14    9   14 ar  
    15    9   17 1   
    16   10   11 ar  
    17   10   18 1   
    18   11   12 ar  
    19   11   19 1   
    20   12   13 ar  
    21   12   20 1   
    22   13   14 ar  
@<TRIPOS>SUBSTRUCTURE
     1 NAS         1 TEMP              0 ****  ****    0 ROOT
