@<TRIPOS>MOLECULE
NAS
   21    22     1     0     0
SMALL
bcc


@<TRIPOS>ATOM
      1 S          -0.0010    0.1010   -0.0290 s6        1 NAS      1.459100
      2 O1S         1.3960   -0.0350    0.1390 o         1 NAS     -0.743533
      3 O2S        -0.7440    0.0340    1.1710 o         1 NAS     -0.743533
      4 O3S        -0.3660    1.1810   -0.8620 o         1 NAS     -0.743533
      5 C1         -1.7140   -1.9350   -0.7490 ca        1 NAS     -0.034000
      6 C2         -0.4840   -1.3560   -0.9350 ca        1 NAS     -0.248500
      7 C3          0.4130   -1.9270   -1.8680 ca        1 NAS     -0.031000
      8 C4          0.0700   -3.0400   -2.5970 ca        1 NAS     -0.175000
      9 C5         -1.5970   -4.7960   -3.1630 ca        1 NAS     -0.129000
     10 C6         -2.8330   -5.3610   -2.9700 ca        1 NAS     -0.143000
     11 C7         -3.7350   -4.8060   -2.0310 ca        1 NAS     -0.163000
     12 C8         -3.3800   -3.6950   -1.3060 ca        1 NAS     -0.101000
     13 C9         -2.1080   -3.0870   -1.4850 ca        1 NAS     -0.062000
     14 C10        -1.2030   -3.6460   -2.4260 ca        1 NAS     -0.018000
     15 H3          1.4060   -1.4590   -1.9810 ha        1 NAS      0.148000
     16 H4          0.7700   -3.4810   -3.3210 ha        1 NAS      0.113000
     17 H5         -0.8900   -5.2210   -3.8900 ha        1 NAS      0.117000
     18 H6         -3.1390   -6.2500   -3.5400 ha        1 NAS      0.111000
     19 H7         -4.7190   -5.2760   -1.8930 ha        1 NAS      0.113000
     20 H8         -4.0720   -3.2540   -0.5730 ha        1 NAS      0.126000
     21 H1         -2.4130   -1.5100   -0.0080 ha        1 NAS      0.148000
@<TRIPOS>BOND
     1    1    2 1   
     2    1    3 1   
     3    1    4 1   
     4    1    6 1   
     5    5    6 ar  
     6    5   13 ar  
     7    5   21 1   
     8    6    7 ar  
     9    7    8 ar  
    10    7   15 1   
    11    8   14 ar  
    12    8   16 1   
    13    9   10 ar  
    14    9   14 ar  
    15    9   17 1   
    16   10   11 ar  
    17   10   18 1   
    18   11   12 ar  
    19   11   19 1   
    20   12   13 ar  
    21   12   20 1   
    22   13   14 ar  
@<TRIPOS>SUBSTRUCTURE
     1 NAS         1 TEMP              0 ****  ****    0 ROOT
