@<TRIPOS>MOLECULE
NAS
   21    22     1     0     0
SMALL
bcc


@<TRIPOS>ATOM
      1 S          -0.0010    0.1010   -0.0290 s6        1 NAS      1.459100
      2 O1S         1.3960   -0.0380    0.1430 o         1 NAS     -0.743533
      3 O2S        -0.7480    0.0360    1.1690 o         1 NAS     -0.743533
      4 O3S        -0.3610    1.1810   -0.8640 o         1 NAS     -0.743533
      5 C1         -1.7150   -1.9340   -0.7500 ca        1 NAS     -0.034000
      6 C2         -0.4840   -1.3560   -0.9340 ca        1 NAS     -0.248500
      7 C3          0.4140   -1.9290   -1.8660 ca        1 NAS     -0.031000
      8 C4          0.0710   -3.0410   -2.5960 ca        1 NAS     -0.175000
      9 C5         -1.5970   -4.7960   -3.1630 ca        1 NAS     -0.129000
     10 C6         -2.8340   -5.3610   -2.9710 ca        1 NAS     -0.143000
     11 C7         -3.7360   -4.8040   -2.0330 ca        1 NAS     -0.163000
     12 C8         -3.3810   -3.6930   -1.3080 ca        1 NAS     -0.101000
     13 C9         -2.1080   -3.0870   -1.4860 ca        1 NAS     -0.062000
     14 C10        -1.2030   -3.6460   -2.4250 ca        1 NAS     -0.018000
     15 H3          1.4070   -1.4610   -1.9790 ha        1 NAS      0.148000
     16 H4          0.7710   -3.4830   -3.3180 ha        1 NAS      0.113000
     17 H5         -0.8900   -5.2220   -3.8890 ha        1 NAS      0.117000
     18 H6         -3.1390   -6.2500   -3.5410 ha        1 NAS      0.111000
     19 H7         -4.7200   -5.2730   -1.8960 ha        1 NAS      0.113000
     20 H8         -4.0730   -3.2520   -0.5750 ha        1 NAS      0.126000
     21 H1         -2.4140   -1.5090   -0.0090 ha        1 NAS      0.148000
@<TRIPOS>BOND
     1    1    2 1   
     2    1    3 1   
     3    1    4 1   
     4    1    6 1   
     5    5    6 ar  
     6    5   13 ar  
     7    5   21 1   
     8    6    7 ar  
     9    7    8 ar  
    10    7   15 1   
    11    8   14 ar  
    12    8   16 1   
    13    9   10 ar  
    14    9   14 ar  
    15    9   17 1   
    16   10   11 ar  
    17   10   18 1   
    18   11   12 ar  
    19   11   19 1   
    20   12   13 ar  
    21   12   20 1   
    22   13   14 ar  
@<TRIPOS>SUBSTRUCTURE
     1 NAS         1 TEMP              0 ****  ****    0 ROOT
