@<TRIPOS>MOLECULE
NAT
   36    37     1     0     0
SMALL
bcc


@<TRIPOS>ATOM
      1 C1         -0.0370    0.0580   -0.0940 ca        1 NAT     -0.150000
      2 C2          1.3490   -0.0760    0.0480 ca        1 NAT     -0.089300
      3 C3          1.9210   -0.1190    1.3200 ca        1 NAT     -0.136000
      4 C4          1.0890   -0.0210    2.4470 ca        1 NAT      0.121100
      5 C5         -0.2990    0.1210    2.3110 ca        1 NAT     -0.204000
      6 C6         -0.8510    0.1570    1.0330 ca        1 NAT     -0.091000
      7 C7          2.2660   -0.1760   -1.1580 c3        1 NAT      0.204200
      8 N8          1.9470    0.8040   -2.1850 n         1 NAT     -0.492900
      9 C9          1.2260    0.4930   -3.3190 c         1 NAT      0.554400
     10 N10         1.0510   -0.8650   -3.6280 n         1 NAT     -0.439100
     11 C11         1.6370   -1.8830   -2.8820 c2        1 NAT      0.136400
     12 C12         2.2660   -1.5850   -1.6990 ce        1 NAT     -0.281400
     13 O13         1.7150   -0.0720    3.6720 oh        1 NAT     -0.498100
     14 C14         2.9790   -2.6090   -0.9450 c         1 NAT      0.667300
     15 O15         3.8280   -2.1140    0.0120 os        1 NAT     -0.442900
     16 C16         4.5470   -3.0890    0.7910 c3        1 NAT      0.141400
     17 C17         5.3330   -2.3060    1.8140 c3        1 NAT     -0.104100
     18 C18         1.5570   -3.2780   -3.4070 c3        1 NAT     -0.083900
     19 O19         2.9310   -3.8380   -1.0830 o         1 NAT     -0.565000
     20 S20         0.6370    1.6170   -4.3140 s         1 NAT     -0.532400
     21 H1         -0.4940    0.0820   -1.0950 ha        1 NAT      0.137000
     22 H3          3.0060   -0.2530    1.4520 ha        1 NAT      0.163000
     23 H5         -0.9400    0.2000    3.2000 ha        1 NAT      0.136000
     24 H6         -1.9400    0.2650    0.9130 ha        1 NAT      0.138000
     25 H7          3.3230    0.0680   -0.8140 h1        1 NAT      0.093700
     26 HN8         1.9410    1.7630   -1.9070 hn        1 NAT      0.351500
     27 HN10        0.6100   -1.0710   -4.5010 hn        1 NAT      0.361500
     28 HO13        1.0350    0.0070    4.3570 ho        1 NAT      0.420000
     29 H161        3.8110   -3.7850    1.2690 h1        1 NAT      0.053200
     30 H162        5.2130   -3.6730    0.1030 h1        1 NAT      0.053200
     31 H171        5.8950   -3.0190    2.4630 hc        1 NAT      0.049367
     32 H172        4.6490   -1.6930    2.4500 hc        1 NAT      0.049367
     33 H173        6.0570   -1.6190    1.3140 hc        1 NAT      0.049367
     34 H181        1.0530   -3.3460   -4.4010 hc        1 NAT      0.076367
     35 H182        2.5920   -3.7000   -3.4930 hc        1 NAT      0.076367
     36 H183        1.0000   -3.9130   -2.6690 hc        1 NAT      0.076367
@<TRIPOS>BOND
     1    1    2 ar  
     2    1    6 ar  
     3    1   21 1   
     4    2    3 ar  
     5    2    7 1   
     6    3    4 ar  
     7    3   22 1   
     8    4    5 ar  
     9    4   13 1   
    10    5    6 ar  
    11    5   23 1   
    12    6   24 1   
    13    7    8 1   
    14    7   12 1   
    15    7   25 1   
    16    8    9 1   
    17    8   26 1   
    18    9   10 1   
    19    9   20 2   
    20   10   11 1   
    21   10   27 1   
    22   11   12 2   
    23   11   18 1   
    24   12   14 1   
    25   13   28 1   
    26   14   15 1   
    27   14   19 2   
    28   15   16 1   
    29   16   17 1   
    30   16   29 1   
    31   16   30 1   
    32   17   31 1   
    33   17   32 1   
    34   17   33 1   
    35   18   34 1   
    36   18   35 1   
    37   18   36 1   
@<TRIPOS>SUBSTRUCTURE
     1 NAT         1 TEMP              0 ****  ****    0 ROOT
