@<TRIPOS>MOLECULE
NAT
   36    37     1     0     0
SMALL
bcc


@<TRIPOS>ATOM
      1 C1         -0.0360    0.0550   -0.0910 ca        1 NAT     -0.150000
      2 C2          1.3500   -0.0790    0.0490 ca        1 NAT     -0.089300
      3 C3          1.9220   -0.1280    1.3210 ca        1 NAT     -0.136000
      4 C4          1.0910   -0.0380    2.4490 ca        1 NAT      0.121100
      5 C5         -0.2970    0.1040    2.3140 ca        1 NAT     -0.204000
      6 C6         -0.8500    0.1470    1.0360 ca        1 NAT     -0.091000
      7 C7          2.2670   -0.1720   -1.1570 c3        1 NAT      0.204200
      8 N8          1.9460    0.8140   -2.1790 ns        1 NAT     -0.492900
      9 C9          1.2250    0.5080   -3.3140 c         1 NAT      0.554400
     10 N10         1.0510   -0.8490   -3.6300 ns        1 NAT     -0.439100
     11 C11         1.6380   -1.8700   -2.8900 c2        1 NAT      0.136400
     12 C12         2.2680   -1.5780   -1.7060 ce        1 NAT     -0.281400
     13 O13         1.7170   -0.0950    3.6740 oh        1 NAT     -0.498100
     14 C14         2.9820   -2.6050   -0.9570 c         1 NAT      0.667300
     15 O15         3.8300   -2.1140    0.0020 os        1 NAT     -0.442900
     16 C16         4.5510   -3.0930    0.7750 c3        1 NAT      0.141400
     17 C17         5.3370   -2.3140    1.8020 c3        1 NAT     -0.104100
     18 C18         1.5590   -3.2630   -3.4220 c3        1 NAT     -0.083900
     19 O19         2.9350   -3.8340   -1.1020 o         1 NAT     -0.565000
     20 S20         0.6340    1.6360   -4.3020 s         1 NAT     -0.532400
     21 H1         -0.4940    0.0840   -1.0910 ha        1 NAT      0.137000
     22 H3          3.0080   -0.2620    1.4520 ha        1 NAT      0.163000
     23 H5         -0.9380    0.1780    3.2040 ha        1 NAT      0.136000
     24 H6         -1.9390    0.2540    0.9170 ha        1 NAT      0.138000
     25 H7          3.3230    0.0710   -0.8120 h1        1 NAT      0.093700
     26 HN8         1.9390    1.7710   -1.8960 hn        1 NAT      0.351500
     27 HN10        0.6100   -1.0510   -4.5040 hn        1 NAT      0.361500
     28 HO13        1.0370   -0.0200    4.3590 ho        1 NAT      0.420000
     29 H161        3.8160   -3.7930    1.2500 h1        1 NAT      0.053200
     30 H162        5.2170   -3.6720    0.0840 h1        1 NAT      0.053200
     31 H171        4.6520   -1.7060    2.4410 hc        1 NAT      0.049367
     32 H172        5.9000   -3.0310    2.4470 hc        1 NAT      0.049367
     33 H173        6.0600   -1.6250    1.3050 hc        1 NAT      0.049367
     34 H181        1.0030   -3.9010   -2.6880 hc        1 NAT      0.076367
     35 H182        2.5950   -3.6830   -3.5110 hc        1 NAT      0.076367
     36 H183        1.0550   -3.3250   -4.4170 hc        1 NAT      0.076367
@<TRIPOS>BOND
     1    1    2 ar  
     2    1    6 ar  
     3    1   21 1   
     4    2    3 ar  
     5    2    7 1   
     6    3    4 ar  
     7    3   22 1   
     8    4    5 ar  
     9    4   13 1   
    10    5    6 ar  
    11    5   23 1   
    12    6   24 1   
    13    7    8 1   
    14    7   12 1   
    15    7   25 1   
    16    8    9 1   
    17    8   26 1   
    18    9   10 1   
    19    9   20 2   
    20   10   11 1   
    21   10   27 1   
    22   11   12 2   
    23   11   18 1   
    24   12   14 1   
    25   13   28 1   
    26   14   15 1   
    27   14   19 2   
    28   15   16 1   
    29   16   17 1   
    30   16   29 1   
    31   16   30 1   
    32   17   31 1   
    33   17   32 1   
    34   17   33 1   
    35   18   34 1   
    36   18   35 1   
    37   18   36 1   
@<TRIPOS>SUBSTRUCTURE
     1 NAT         1 TEMP              0 ****  ****    0 ROOT
