@<TRIPOS>MOLECULE
NAT
   36    37     1     0     0
SMALL
bcc


@<TRIPOS>ATOM
      1 C1         -0.1570   -1.9620   -0.9030 ca        1 NAT     -0.150000
      2 C2          0.4610   -1.1130    0.0180 ca        1 NAT     -0.084300
      3 C3          1.8340   -1.2250    0.2560 ca        1 NAT     -0.194000
      4 C4          2.5750   -2.1920   -0.4360 ca        1 NAT      0.121100
      5 C5          1.9580   -3.0540   -1.3580 ca        1 NAT     -0.147000
      6 C6          0.5920   -2.9260   -1.5820 ca        1 NAT     -0.097000
      7 C7         -0.3170   -0.0590    0.7840 c3        1 NAT      0.205200
      8 N8         -1.5870   -0.5580    1.2910 n         1 NAT     -0.491900
      9 C9         -2.7920   -0.3020    0.6700 c         1 NAT      0.552400
     10 N10        -2.8230    0.7110   -0.3020 n         1 NAT     -0.439100
     11 C11        -1.7150    1.4970   -0.5970 c2        1 NAT      0.139400
     12 C12        -0.4910    1.1810   -0.0600 ce        1 NAT     -0.283400
     13 O13         3.9290   -2.3530   -0.2540 oh        1 NAT     -0.496100
     14 C14         0.6660    2.0430   -0.2620 c         1 NAT      0.669300
     15 O15         1.7230    1.7780    0.5720 os        1 NAT     -0.446900
     16 C16         2.8860    2.6100    0.4070 c3        1 NAT      0.139400
     17 C17         3.9310    2.0570    1.3470 c3        1 NAT     -0.099100
     18 C18        -1.9030    2.6730   -1.4980 c3        1 NAT     -0.084900
     19 O19         0.7950    2.9830   -1.0580 o         1 NAT     -0.564000
     20 S20        -4.1540   -1.0710    1.0580 s         1 NAT     -0.528400
     21 H1         -1.2350   -1.8770   -1.1060 ha        1 NAT      0.137000
     22 H3          2.3310   -0.5400    0.9600 ha        1 NAT      0.149000
     23 H5          2.5590   -3.8080   -1.8850 ha        1 NAT      0.153000
     24 H6          0.0940   -3.5920   -2.3040 ha        1 NAT      0.139000
     25 H7          0.2920    0.2260    1.7020 h1        1 NAT      0.090700
     26 HN8        -1.5520   -1.3730    1.8670 hn        1 NAT      0.350500
     27 HN10       -3.7200    0.9460   -0.6740 hn        1 NAT      0.361500
     28 HO13        4.2260   -1.6840    0.3790 ho        1 NAT      0.419000
     29 H161        2.6080    3.6650    0.6610 h1        1 NAT      0.055700
     30 H162        3.2180    2.5640   -0.6630 h1        1 NAT      0.055700
     31 H171        3.5690    2.0930    2.4020 hc        1 NAT      0.045700
     32 H172        4.1660    0.9960    1.0910 hc        1 NAT      0.045700
     33 H173        4.8600    2.6690    1.2580 hc        1 NAT      0.045700
     34 H181       -1.2570    2.5440   -2.4050 hc        1 NAT      0.077033
     35 H182       -2.9630    2.8120   -1.8230 hc        1 NAT      0.077033
     36 H183       -1.5580    3.6000   -0.9720 hc        1 NAT      0.077033
@<TRIPOS>BOND
     1    1    2 ar  
     2    1    6 ar  
     3    1   21 1   
     4    2    3 ar  
     5    2    7 1   
     6    3    4 ar  
     7    3   22 1   
     8    4    5 ar  
     9    4   13 1   
    10    5    6 ar  
    11    5   23 1   
    12    6   24 1   
    13    7    8 1   
    14    7   12 1   
    15    7   25 1   
    16    8    9 1   
    17    8   26 1   
    18    9   10 1   
    19    9   20 2   
    20   10   11 1   
    21   10   27 1   
    22   11   12 2   
    23   11   18 1   
    24   12   14 1   
    25   13   28 1   
    26   14   15 1   
    27   14   19 2   
    28   15   16 1   
    29   16   17 1   
    30   16   29 1   
    31   16   30 1   
    32   17   31 1   
    33   17   32 1   
    34   17   33 1   
    35   18   34 1   
    36   18   35 1   
    37   18   36 1   
@<TRIPOS>SUBSTRUCTURE
     1 NAT         1 TEMP              0 ****  ****    0 ROOT
