@<TRIPOS>MOLECULE
NAT
   36    37     1     0     0
SMALL
bcc


@<TRIPOS>ATOM
      1 C1         -0.0400    0.0490   -0.1030 ca        1 NAT     -0.150000
      2 C2          1.3460   -0.0790    0.0420 ca        1 NAT     -0.089300
      3 C3          1.9150   -0.1200    1.3150 ca        1 NAT     -0.136000
      4 C4          1.0810   -0.0260    2.4410 ca        1 NAT      0.121100
      5 C5         -0.3070    0.1100    2.3020 ca        1 NAT     -0.204000
      6 C6         -0.8570    0.1440    1.0220 ca        1 NAT     -0.091000
      7 C7          2.2660   -0.1750   -1.1620 c3        1 NAT      0.204200
      8 N8          1.9440    0.8040   -2.1890 n         1 NAT     -0.492900
      9 C9          1.2270    0.4900   -3.3250 c         1 NAT      0.554400
     10 N10         1.0580   -0.8680   -3.6350 n         1 NAT     -0.439100
     11 C11         1.6470   -1.8840   -2.8880 c2        1 NAT      0.136400
     12 C12         2.2730   -1.5840   -1.7040 ce        1 NAT     -0.281400
     13 O13         1.7040   -0.0750    3.6670 oh        1 NAT     -0.498100
     14 C14         2.9880   -2.6050   -0.9480 c         1 NAT      0.667300
     15 O15         3.8320   -2.1070    0.0110 os        1 NAT     -0.442900
     16 C16         4.5540   -3.0790    0.7910 c3        1 NAT      0.141400
     17 C17         5.3330   -2.2940    1.8170 c3        1 NAT     -0.104100
     18 C18         1.5740   -3.2800   -3.4130 c3        1 NAT     -0.083900
     19 O19         2.9450   -3.8350   -1.0870 o         1 NAT     -0.565000
     20 S20         0.6350    1.6120   -4.3200 s         1 NAT     -0.532400
     21 H1         -0.4960    0.0710   -1.1040 ha        1 NAT      0.137000
     22 H3          3.0010   -0.2490    1.4500 ha        1 NAT      0.163000
     23 H5         -0.9510    0.1870    3.1900 ha        1 NAT      0.136000
     24 H6         -1.9460    0.2470    0.9000 ha        1 NAT      0.138000
     25 H7          3.3210    0.0730   -0.8150 h1        1 NAT      0.093700
     26 HN8         1.9340    1.7630   -1.9110 hn        1 NAT      0.351500
     27 HN10        0.6200   -1.0760   -4.5080 hn        1 NAT      0.361500
     28 HO13        1.0230    0.0020    4.3510 ho        1 NAT      0.420000
     29 H161        3.8190   -3.7800    1.2660 h1        1 NAT      0.053200
     30 H162        5.2240   -3.6600    0.1050 h1        1 NAT      0.053200
     31 H171        5.8970   -3.0050    2.4670 hc        1 NAT      0.049367
     32 H172        6.0550   -1.6030    1.3200 hc        1 NAT      0.049367
     33 H173        4.6440   -1.6860    2.4520 hc        1 NAT      0.049367
     34 H181        2.6110   -3.6970   -3.4970 hc        1 NAT      0.076367
     35 H182        1.0170   -3.9160   -2.6780 hc        1 NAT      0.076367
     36 H183        1.0730   -3.3490   -4.4090 hc        1 NAT      0.076367
@<TRIPOS>BOND
     1    1    2 ar  
     2    1    6 ar  
     3    1   21 1   
     4    2    3 ar  
     5    2    7 1   
     6    3    4 ar  
     7    3   22 1   
     8    4    5 ar  
     9    4   13 1   
    10    5    6 ar  
    11    5   23 1   
    12    6   24 1   
    13    7    8 1   
    14    7   12 1   
    15    7   25 1   
    16    8    9 1   
    17    8   26 1   
    18    9   10 1   
    19    9   20 2   
    20   10   11 1   
    21   10   27 1   
    22   11   12 2   
    23   11   18 1   
    24   12   14 1   
    25   13   28 1   
    26   14   15 1   
    27   14   19 2   
    28   15   16 1   
    29   16   17 1   
    30   16   29 1   
    31   16   30 1   
    32   17   31 1   
    33   17   32 1   
    34   17   33 1   
    35   18   34 1   
    36   18   35 1   
    37   18   36 1   
@<TRIPOS>SUBSTRUCTURE
     1 NAT         1 TEMP              0 ****  ****    0 ROOT
