@<TRIPOS>MOLECULE
NAT
   36    34     1     0     0
SMALL
bcc


@<TRIPOS>ATOM
      1 C1         -2.5350    1.3260    0.6420 c1        1 NAT     -0.061000
      2 C2         -1.1710    1.3360    0.6200 c1        1 NAT     -0.059100
      3 C3         -0.4500    1.3660    1.8260 c1        1 NAT     -0.087500
      4 C4         -1.1200    1.3850    3.0300 c1        1 NAT      0.105600
      5 C5         -2.4890    1.3750    3.0500 c1        1 NAT     -0.147500
      6 C6         -3.2060    1.3450    1.8490 c1        1 NAT     -0.061000
      7 C7         -0.4030    1.4780   -0.7600 c3        1 NAT      0.167000
      8 N8          0.6500    2.4660   -0.6460 n         1 NAT     -0.491900
      9 C9          1.4580    2.6830   -1.7300 c         1 NAT      0.554400
     10 N10         1.8160    1.5180   -2.5640 n         1 NAT     -0.440100
     11 C11         1.1840    0.2210   -2.2520 c2        1 NAT      0.140400
     12 C12         0.0770    0.2120   -1.2090 ce        1 NAT     -0.281400
     13 O13        -0.4030    1.4640    4.2320 oh        1 NAT     -0.479600
     14 C14        -0.2150   -1.0520   -0.4100 c         1 NAT      0.669300
     15 O15         0.8860   -1.9860   -0.0680 os        1 NAT     -0.448900
     16 C16         0.5010   -3.3650   -0.0760 c3        1 NAT      0.139400
     17 C17         1.5300   -4.1710    0.6350 c3        1 NAT     -0.101100
     18 C18         1.3280   -0.9560   -3.2200 c3        1 NAT     -0.078900
     19 O19        -1.3090   -1.2950   -0.0810 o         1 NAT     -0.560000
     20 S20         2.3620    4.1180   -1.8460 s         1 NAT     -0.529400
     21 H1         -3.0420    1.4140   -0.2050 ha        1 NAT      0.090000
     22 H3          0.5810    1.3730    1.8090 ha        1 NAT      0.094500
     23 H5         -2.9490    1.3890    3.8700 ha        1 NAT      0.077500
     24 H6         -4.1810    1.3390    1.8650 ha        1 NAT      0.090000
     25 H7         -1.1050    1.7910   -1.3290 h1        1 NAT      0.094700
     26 HN8         0.6340    3.0830    0.0560 hn        1 NAT      0.352500
     27 HN10        2.5260    1.5490   -3.0820 hn        1 NAT      0.360500
     28 HO13       -0.4490    2.3100    4.5580 ho        1 NAT      0.420000
     29 H161        0.4320   -3.6560   -0.9380 h1        1 NAT      0.054700
     30 H162       -0.3400   -3.4620    0.3610 h1        1 NAT      0.054700
     31 H171        1.3390   -5.0880    0.5330 hc        1 NAT      0.047367
     32 H172        1.5260   -3.9580    1.5210 hc        1 NAT      0.047367
     33 H173        2.4710   -3.9640    0.2290 hc        1 NAT      0.047367
     34 H181        1.5600   -0.6300   -4.0910 hc        1 NAT      0.072700
     35 H182        0.5060   -1.4280   -3.2660 hc        1 NAT      0.072700
     36 H183        2.0010   -1.5320   -2.9140 hc        1 NAT      0.072700
@<TRIPOS>BOND
     1    1    6 3   
     2    1   21 1   
     3    2    3 3   
     4    2    7 1   
     5    3   22 1   
     6    4    5 3   
     7    4   13 1   
     8    5   23 1   
     9    6   24 1   
    10    7    8 1   
    11    7   12 1   
    12    7   25 1   
    13    8    9 1   
    14    8   26 1   
    15    9   10 1   
    16    9   20 2   
    17   10   11 1   
    18   10   27 1   
    19   11   12 2   
    20   11   18 1   
    21   12   14 1   
    22   13   28 1   
    23   14   15 1   
    24   14   19 2   
    25   15   16 1   
    26   16   17 1   
    27   16   29 1   
    28   16   30 1   
    29   17   31 1   
    30   17   32 1   
    31   17   33 1   
    32   18   34 1   
    33   18   35 1   
    34   18   36 1   
@<TRIPOS>SUBSTRUCTURE
     1 NAT         1 TEMP              0 ****  ****    0 ROOT
