@<TRIPOS>MOLECULE
NAU
   42    41     1     0     0
SMALL
bcc


@<TRIPOS>ATOM
      1 C1         -1.7310    1.3750   -0.4080 c         1 NAU      0.631100
      2 O1A        -1.8770    2.5050   -0.8820 o         1 NAU     -0.517000
      3 O1B        -2.2380    1.2410    0.8510 oh        1 NAU     -0.589100
      4 C2         -1.0670    0.2100   -1.0800 c3        1 NAU     -0.178400
      5 C3         -2.0540   -0.8560   -1.4960 c3        1 NAU     -0.129400
      6 C4         -3.0010   -0.4440   -2.6370 c3        1 NAU      0.348600
      7 C5         -4.4870   -0.3120   -2.1390 c3        1 NAU      0.040700
      8 N2         -4.6340    0.7690   -1.2040 ns        1 NAU     -0.565900
      9 C10        -4.8150    0.5430    0.1560 c         1 NAU      0.675100
     10 C11        -5.3160    1.6890    0.9960 c3        1 NAU     -0.174100
     11 O10        -4.4850   -0.5500    0.6640 o         1 NAU     -0.636100
     12 O6         -5.7760   -1.5580   -3.7480 oh        1 NAU     -0.619800
     13 C6         -5.4100   -0.2330   -3.3890 c3        1 NAU      0.108100
     14 C7         -6.7410    0.5100   -3.1780 c3        1 NAU      0.153100
     15 O7         -7.5040   -0.0680   -2.1400 oh        1 NAU     -0.599800
     16 C8         -7.5370    0.5180   -4.4990 c3        1 NAU      0.113100
     17 O8         -6.7990    1.3210   -5.4070 oh        1 NAU     -0.606800
     18 C9         -8.9340    1.1040   -4.2730 c3        1 NAU      0.094400
     19 O9         -9.5890    1.0560   -5.5310 oh        1 NAU     -0.614800
     20 O4A        -2.9870   -1.4560   -3.6290 oh        1 NAU     -0.631800
     21 O4B        -2.5670    0.6790   -3.3690 oh        1 NAU     -0.631800
     22 HC21       -0.5080    0.5900   -1.9780 hc        1 NAU      0.086200
     23 HC22       -0.3190   -0.2340   -0.3690 hc        1 NAU      0.086200
     24 HC31       -1.4750   -1.7550   -1.8450 hc        1 NAU      0.082700
     25 HC32       -2.6670   -1.1790   -0.6110 hc        1 NAU      0.082700
     26 HC5        -4.7260   -1.2870   -1.6090 h1        1 NAU      0.107700
     27 HN2        -4.9370    1.6410   -1.5730 hn        1 NAU      0.314500
     28 H111       -5.6810    1.2850    1.9710 hc        1 NAU      0.075367
     29 H112       -6.1450    2.2420    0.4940 hc        1 NAU      0.075367
     30 H113       -4.4620    2.3880    1.1870 hc        1 NAU      0.075367
     31 HO6        -4.9720   -2.0180   -4.0240 ho        1 NAU      0.435000
     32 HC6        -4.8530    0.2640   -4.2340 h1        1 NAU      0.082700
     33 HC7        -6.5660    1.5750   -2.8640 h1        1 NAU      0.077700
     34 HO7        -7.5710   -1.0150   -2.3270 ho        1 NAU      0.424000
     35 HC8        -7.6250   -0.5300   -4.9030 h1        1 NAU      0.070700
     36 HO8        -7.3410    1.3960   -6.2040 ho        1 NAU      0.425000
     37 HC91       -8.8580    2.1660   -3.9190 h1        1 NAU      0.042200
     38 HC92       -9.4870    0.4920   -3.5140 h1        1 NAU      0.042200
     39 HO9       -10.4710    1.4220   -5.3990 ho        1 NAU      0.409000
     40 HO4A       -2.4700   -1.1380   -4.3840 ho        1 NAU      0.444500
     41 HO4B       -2.5700    1.4600   -2.7990 ho        1 NAU      0.444500
     42 H22        -2.2600    0.3040    1.1050 ho        1 NAU      0.448000
@<TRIPOS>BOND
     1    1    2 2   
     2    1    3 1   
     3    1    4 1   
     4    3   42 1   
     5    4    5 1   
     6    4   22 1   
     7    4   23 1   
     8    5    6 1   
     9    5   24 1   
    10    5   25 1   
    11    6    7 1   
    12    6   20 1   
    13    6   21 1   
    14    7    8 1   
    15    7   13 1   
    16    7   26 1   
    17    8    9 1   
    18    8   27 1   
    19    9   10 1   
    20    9   11 2   
    21   10   28 1   
    22   10   29 1   
    23   10   30 1   
    24   12   13 1   
    25   12   31 1   
    26   13   14 1   
    27   13   32 1   
    28   14   15 1   
    29   14   16 1   
    30   14   33 1   
    31   15   34 1   
    32   16   17 1   
    33   16   18 1   
    34   16   35 1   
    35   17   36 1   
    36   18   19 1   
    37   18   37 1   
    38   18   38 1   
    39   19   39 1   
    40   20   40 1   
    41   21   41 1   
@<TRIPOS>SUBSTRUCTURE
     1 NAU         1 TEMP              0 ****  ****    0 ROOT
