@<TRIPOS>MOLECULE
NAU
   42    41     1     0     0
SMALL
bcc


@<TRIPOS>ATOM
      1 C1         -1.7040    1.3780   -0.4690 c         1 NAU      0.631100
      2 O1A        -1.8470    2.5010   -0.9600 o         1 NAU     -0.517000
      3 O1B        -2.1950    1.2700    0.7980 oh        1 NAU     -0.589100
      4 C2         -1.0580    0.1970   -1.1290 c3        1 NAU     -0.178400
      5 C3         -2.0590   -0.8680   -1.5140 c3        1 NAU     -0.129400
      6 C4         -3.0180   -0.4670   -2.6490 c3        1 NAU      0.348600
      7 C5         -4.4960   -0.3140   -2.1340 c3        1 NAU      0.040700
      8 N2         -4.6220    0.7850   -1.2160 n         1 NAU     -0.565900
      9 C10        -4.7860    0.5830    0.1500 c         1 NAU      0.675100
     10 C11        -5.2660    1.7480    0.9760 c3        1 NAU     -0.174100
     11 O10        -4.4590   -0.5040    0.6720 o         1 NAU     -0.636100
     12 O6         -5.8180   -1.5750   -3.7050 oh        1 NAU     -0.619800
     13 C6         -5.4350   -0.2470   -3.3740 c3        1 NAU      0.108100
     14 C7         -6.7560    0.5110   -3.1580 c3        1 NAU      0.153100
     15 O7         -7.5110   -0.0420   -2.1000 oh        1 NAU     -0.599800
     16 C8         -7.5700    0.5030   -4.4680 c3        1 NAU      0.113100
     17 O8         -6.8370    1.2840   -5.4000 oh        1 NAU     -0.606800
     18 C9         -8.9580    1.1070   -4.2340 c3        1 NAU      0.094400
     19 O9         -9.6300    1.0430   -5.4820 oh        1 NAU     -0.614800
     20 O4A        -3.0260   -1.4960   -3.6230 oh        1 NAU     -0.631800
     21 O4B        -2.5840    0.6400   -3.4060 oh        1 NAU     -0.631800
     22 HC21       -0.5080    0.5560   -2.0410 hc        1 NAU      0.086200
     23 HC22       -0.3050   -0.2420   -0.4200 hc        1 NAU      0.086200
     24 HC31       -1.4930   -1.7770   -1.8550 hc        1 NAU      0.082700
     25 HC32       -2.6640   -1.1710   -0.6160 hc        1 NAU      0.082700
     26 HC5        -4.7370   -1.2770   -1.5840 h1        1 NAU      0.107700
     27 HN2        -2.2210    0.3390    1.0700 ho        1 NAU      0.448000
     28 H111       -6.0970    2.2990    0.4760 hc        1 NAU      0.075367
     29 H112       -4.4040    2.4430    1.1450 hc        1 NAU      0.075367
     30 H113       -5.6220    1.3640    1.9630 hc        1 NAU      0.075367
     31 HO6        -5.0210   -2.0470   -3.9830 ho        1 NAU      0.435000
     32 HC6        -4.8850    0.2300   -4.2340 h1        1 NAU      0.082700
     33 HC7        -6.5680    1.5800   -2.8640 h1        1 NAU      0.077700
     34 HO7        -7.5880   -0.9920   -2.2700 ho        1 NAU      0.424000
     35 HC8        -7.6720   -0.5500   -4.8520 h1        1 NAU      0.070700
     36 HO8        -7.3890    1.3510   -6.1900 ho        1 NAU      0.425000
     37 HC91       -8.8680    2.1740   -3.8990 h1        1 NAU      0.042200
     38 HC92       -9.5070    0.5120   -3.4570 h1        1 NAU      0.042200
     39 HO9       -10.5070    1.4190   -5.3450 ho        1 NAU      0.409000
     40 HO4A       -2.5160   -1.1960   -4.3900 ho        1 NAU      0.444500
     41 HO4B       -2.5730    1.4300   -2.8490 ho        1 NAU      0.444500
     42 H22        -4.9220    1.6520   -1.5950 hn        1 NAU      0.314500
@<TRIPOS>BOND
     1    1    2 2   
     2    1    3 1   
     3    1    4 1   
     4    3   27 1   
     5    4    5 1   
     6    4   22 1   
     7    4   23 1   
     8    5    6 1   
     9    5   24 1   
    10    5   25 1   
    11    6    7 1   
    12    6   20 1   
    13    6   21 1   
    14    7    8 1   
    15    7   13 1   
    16    7   26 1   
    17    8    9 1   
    18    8   42 1   
    19    9   10 1   
    20    9   11 2   
    21   10   28 1   
    22   10   29 1   
    23   10   30 1   
    24   12   13 1   
    25   12   31 1   
    26   13   14 1   
    27   13   32 1   
    28   14   15 1   
    29   14   16 1   
    30   14   33 1   
    31   15   34 1   
    32   16   17 1   
    33   16   18 1   
    34   16   35 1   
    35   17   36 1   
    36   18   19 1   
    37   18   37 1   
    38   18   38 1   
    39   19   39 1   
    40   20   40 1   
    41   21   41 1   
@<TRIPOS>SUBSTRUCTURE
     1 NAU         1 TEMP              0 ****  ****    0 ROOT
