@<TRIPOS>MOLECULE
NAU
   42    41     1     0     0
SMALL
bcc


@<TRIPOS>ATOM
      1 C1         -1.7700    1.4310   -0.3830 c         1 NAU      0.631100
      2 O1A        -1.9690    2.5730   -0.8050 o         1 NAU     -0.517000
      3 O1B        -2.2620    1.2190    0.8710 oh        1 NAU     -0.589100
      4 C2         -1.0600    0.3280   -1.1090 c3        1 NAU     -0.178400
      5 C3         -2.0020   -0.7620   -1.5670 c3        1 NAU     -0.129400
      6 C4         -2.9740   -0.3410   -2.6840 c3        1 NAU      0.348600
      7 C5         -4.4610   -0.2970   -2.1740 c3        1 NAU      0.040700
      8 N2         -4.6490    0.7340   -1.1900 n         1 NAU     -0.565900
      9 C10        -4.8100    0.4400    0.1590 c         1 NAU      0.675100
     10 C11        -5.3550    1.5250    1.0510 c3        1 NAU     -0.174100
     11 O10        -4.4290   -0.6590    0.6160 o         1 NAU     -0.636100
     12 O6         -5.7050   -1.5260   -3.8300 oh        1 NAU     -0.619800
     13 C6         -5.3940   -0.2030   -3.4150 c3        1 NAU      0.108100
     14 C7         -6.7550    0.4710   -3.1640 c3        1 NAU      0.153100
     15 O7         -7.4860   -0.1850   -2.1490 oh        1 NAU     -0.599800
     16 C8         -7.5600    0.5020   -4.4800 c3        1 NAU      0.113100
     17 O8         -6.8630    1.3750   -5.3560 oh        1 NAU     -0.606800
     18 C9         -8.9790    1.0160   -4.2210 c3        1 NAU      0.094400
     19 O9         -9.6400    0.9950   -5.4770 oh        1 NAU     -0.614800
     20 O4A        -2.9230   -1.3070   -3.7200 oh        1 NAU     -0.631800
     21 O4B        -2.5940    0.8310   -3.3680 oh        1 NAU     -0.631800
     22 HC21       -0.5240    0.7710   -1.9920 hc        1 NAU      0.086200
     23 HC22       -0.2890   -0.1140   -0.4220 hc        1 NAU      0.086200
     24 HC31       -2.5950   -1.1500   -0.6950 hc        1 NAU      0.082700
     25 HC32       -1.3870   -1.6180   -1.9590 hc        1 NAU      0.082700
     26 HC5        -4.6540   -1.3040   -1.6860 h1        1 NAU      0.107700
     27 HN2        -4.9920    1.6070   -1.5190 hn        1 NAU      0.314500
     28 H111       -6.2110    2.0630    0.5780 hc        1 NAU      0.075367
     29 H112       -5.6970    1.0630    2.0080 hc        1 NAU      0.075367
     30 H113       -4.5320    2.2520    1.2700 hc        1 NAU      0.075367
     31 HO6        -4.8830   -1.9370   -4.1300 ho        1 NAU      0.435000
     32 HC6        -4.8660    0.3550   -4.2390 h1        1 NAU      0.082700
     33 HC7        -6.6250    1.5280   -2.8040 h1        1 NAU      0.077700
     34 HO7        -7.5130   -1.1250   -2.3780 ho        1 NAU      0.424000
     35 HC8        -7.6050   -0.5300   -4.9290 h1        1 NAU      0.070700
     36 HO8        -7.4140    1.4620   -6.1460 ho        1 NAU      0.425000
     37 HC91       -8.9470    2.0640   -3.8220 h1        1 NAU      0.042200
     38 HC92       -9.5000    0.3480   -3.4870 h1        1 NAU      0.042200
     39 HO9       -10.5360    1.3170   -5.3250 ho        1 NAU      0.409000
     40 HO4A       -2.4240   -0.9340   -4.4620 ho        1 NAU      0.444500
     41 HO4B       -2.6280    1.5850   -2.7630 ho        1 NAU      0.444500
     42 H22        -2.2410    0.2730    1.0840 ho        1 NAU      0.448000
@<TRIPOS>BOND
     1    1    2 2   
     2    1    3 1   
     3    1    4 1   
     4    3   42 1   
     5    4    5 1   
     6    4   22 1   
     7    4   23 1   
     8    5    6 1   
     9    5   24 1   
    10    5   25 1   
    11    6    7 1   
    12    6   20 1   
    13    6   21 1   
    14    7    8 1   
    15    7   13 1   
    16    7   26 1   
    17    8    9 1   
    18    8   27 1   
    19    9   10 1   
    20    9   11 2   
    21   10   28 1   
    22   10   29 1   
    23   10   30 1   
    24   12   13 1   
    25   12   31 1   
    26   13   14 1   
    27   13   32 1   
    28   14   15 1   
    29   14   16 1   
    30   14   33 1   
    31   15   34 1   
    32   16   17 1   
    33   16   18 1   
    34   16   35 1   
    35   17   36 1   
    36   18   19 1   
    37   18   37 1   
    38   18   38 1   
    39   19   39 1   
    40   20   40 1   
    41   21   41 1   
@<TRIPOS>SUBSTRUCTURE
     1 NAU         1 TEMP              0 ****  ****    0 ROOT
