@<TRIPOS>MOLECULE
NAU
   41    40     1     0     0
SMALL
bcc


@<TRIPOS>ATOM
      1 C1         -0.6580    1.4660    3.0930 c         1 NAU      0.900600
      2 O1A        -0.4150    2.2350    2.1030 o         1 NAU     -0.848800
      3 O1B        -1.7450    1.5080    3.7280 o         1 NAU     -0.848800
      4 C2          0.4170    0.4580    3.5070 c3        1 NAU     -0.200400
      5 C3          0.4690   -0.7490    2.5990 c3        1 NAU     -0.102400
      6 C4          1.0600   -0.5000    1.2010 c3        1 NAU      0.344600
      7 C5          0.0030   -0.7130    0.0520 c3        1 NAU      0.046700
      8 N2         -1.1630    0.1070    0.2400 n         1 NAU     -0.554900
      9 C10        -2.3730   -0.4570    0.6340 c         1 NAU      0.664100
     10 C11        -3.4380    0.4980    1.1110 c3        1 NAU     -0.190100
     11 O10        -2.5800   -1.6880    0.5630 o         1 NAU     -0.645100
     12 O6          1.3370   -1.6840   -1.7350 oh        1 NAU     -0.638800
     13 C6          0.7150   -0.4740   -1.3110 c3        1 NAU      0.114100
     14 C7         -0.2110   -0.0780   -2.4730 c3        1 NAU      0.129100
     15 O7         -1.0620   -1.1320   -2.8780 oh        1 NAU     -0.597800
     16 C8          0.6410    0.3910   -3.6750 c3        1 NAU      0.105100
     17 O8          1.4640    1.4880   -3.3250 oh        1 NAU     -0.587800
     18 C9         -0.2770    0.7530   -4.8470 c3        1 NAU      0.096400
     19 O9          0.4550    0.5380   -6.0450 oh        1 NAU     -0.597800
     20 O4A         2.1000   -1.4430    0.9620 oh        1 NAU     -0.660800
     21 O4B         1.7510    0.7150    1.0560 oh        1 NAU     -0.660800
     22 HC21        0.1910    0.1100    4.5480 hc        1 NAU      0.040200
     23 HC22        1.4120    0.9730    3.5220 hc        1 NAU      0.040200
     24 HC31       -0.5630   -1.1780    2.4940 hc        1 NAU      0.050700
     25 HC32        1.1010   -1.5400    3.0870 hc        1 NAU      0.050700
     26 HC5        -0.3020   -1.8030    0.0840 h1        1 NAU      0.098700
     27 HN2        -0.9860    1.0470    0.5530 hn        1 NAU      0.349500
     28 H111       -4.3620   -0.0780    1.3500 hc        1 NAU      0.076700
     29 H112       -3.0750    1.0290    2.0360 hc        1 NAU      0.076700
     30 H113       -3.6670    1.2570    0.3260 hc        1 NAU      0.076700
     31 HO6         1.8840   -1.9990   -1.0040 ho        1 NAU      0.434000
     32 HC6         1.4990    0.3260   -1.1850 h1        1 NAU      0.077700
     33 HC7        -0.9000    0.7570   -2.1670 h1        1 NAU      0.080700
     34 HO7        -0.5660   -1.9580   -2.7930 ho        1 NAU      0.421000
     35 HC8         1.3630   -0.4180   -3.9800 h1        1 NAU      0.104700
     36 HO8         0.9040    2.1460   -2.8950 ho        1 NAU      0.395000
     37 HC91       -1.1900    0.0990   -4.8330 h1        1 NAU      0.033700
     38 HC92       -0.5860    1.8310   -4.7810 h1        1 NAU      0.033700
     39 HO9        -0.1610    0.6940   -6.7690 ho        1 NAU      0.387000
     40 HO4A        2.9380   -1.0170    1.1850 ho        1 NAU      0.453500
     41 HO4B        1.1840    1.4520    1.3560 ho        1 NAU      0.453500
@<TRIPOS>BOND
     1    1    2 1   
     2    1    3 1   
     3    1    4 1   
     4    4    5 1   
     5    4   22 1   
     6    4   23 1   
     7    5    6 1   
     8    5   24 1   
     9    5   25 1   
    10    6    7 1   
    11    6   20 1   
    12    6   21 1   
    13    7    8 1   
    14    7   13 1   
    15    7   26 1   
    16    8    9 1   
    17    8   27 1   
    18    9   10 1   
    19    9   11 2   
    20   10   28 1   
    21   10   29 1   
    22   10   30 1   
    23   12   13 1   
    24   12   31 1   
    25   13   14 1   
    26   13   32 1   
    27   14   15 1   
    28   14   16 1   
    29   14   33 1   
    30   15   34 1   
    31   16   17 1   
    32   16   18 1   
    33   16   35 1   
    34   17   36 1   
    35   18   19 1   
    36   18   37 1   
    37   18   38 1   
    38   19   39 1   
    39   20   40 1   
    40   21   41 1   
@<TRIPOS>SUBSTRUCTURE
     1 NAU         1 TEMP              0 ****  ****    0 ROOT
