@<TRIPOS>MOLECULE
NAV
   38    37     1     0     0
SMALL
bcc


@<TRIPOS>ATOM
      1 C1         -1.4870    1.3110    2.6830 c         1 NAV      0.917600
      2 O1A        -1.9170    2.2440    3.4090 o         1 NAV     -0.851800
      3 O1B        -1.8990    1.1100    1.4950 o         1 NAV     -0.851800
      4 C2         -0.3980    0.3980    3.2700 c3        1 NAV     -0.196400
      5 C3         -0.2710   -0.9440    2.5850 c3        1 NAV     -0.166400
      6 C4          0.8210   -0.9850    1.5560 c         1 NAV      0.566100
      7 C5          0.7150    0.0200    0.4000 c3        1 NAV     -0.052300
      8 N2          2.0080    0.5280   -0.0020 n         1 NAV     -0.524900
      9 C10         2.8180    0.0300   -1.0050 c         1 NAV      0.662100
     10 C11         4.2720    0.4580   -0.9710 c3        1 NAV     -0.181100
     11 O10         2.3990   -0.6700   -1.9510 o         1 NAV     -0.634100
     12 O6         -1.3430   -1.1270   -0.2430 oh        1 NAV     -0.621800
     13 C6         -0.1420   -0.5870   -0.7420 c3        1 NAV      0.141100
     14 C7         -0.4160    0.4710   -1.8270 c3        1 NAV      0.093100
     15 O7         -1.1170    1.6090   -1.3760 oh        1 NAV     -0.618800
     16 C8         -1.1590   -0.1920   -3.0070 c3        1 NAV      0.118100
     17 O8         -0.3900   -1.2410   -3.5700 oh        1 NAV     -0.599800
     18 C9         -1.4760    0.8620   -4.0750 c3        1 NAV      0.100400
     19 O9         -2.6250    0.4250   -4.7850 oh        1 NAV     -0.597800
     20 O4          1.7740   -1.7700    1.6490 o         1 NAV     -0.574100
     21 HC21       -0.6420    0.2340    4.3510 hc        1 NAV      0.036200
     22 HC22        0.5710    0.9580    3.2300 hc        1 NAV      0.036200
     23 HC31       -1.2440   -1.1960    2.0780 hc        1 NAV      0.070700
     24 HC32       -0.0660   -1.7430    3.3460 hc        1 NAV      0.070700
     25 HC5         0.1270    0.9200    0.7910 h1        1 NAV      0.141700
     26 HN2         2.4800    0.9990    0.7390 hn        1 NAV      0.299500
     27 H111        4.7770    0.0840   -1.8940 hc        1 NAV      0.058700
     28 H112        4.3610    1.5700   -0.9330 hc        1 NAV      0.058700
     29 H113        4.7760    0.0180   -0.0770 hc        1 NAV      0.058700
     30 HO6        -1.8170   -0.4360    0.2560 ho        1 NAV      0.453000
     31 HC6         0.3890   -1.4640   -1.2140 h1        1 NAV      0.108700
     32 HC7         0.5670    0.8690   -2.2150 h1        1 NAV      0.063700
     33 HO7        -1.6380    1.3820   -0.5890 ho        1 NAV      0.454000
     34 HC8        -2.1080   -0.6830   -2.6520 h1        1 NAV      0.100700
     35 HO8         0.5430   -0.9900   -3.5090 ho        1 NAV      0.409000
     36 HC91       -1.6730    1.8520   -3.5840 h1        1 NAV      0.033200
     37 HC92       -0.6160    0.9580   -4.7910 h1        1 NAV      0.033200
     38 HO9        -2.9620    1.1960   -5.2530 ho        1 NAV      0.384000
@<TRIPOS>BOND
     1    1    2 1   
     2    1    3 1   
     3    1    4 1   
     4    4    5 1   
     5    4   21 1   
     6    4   22 1   
     7    5    6 1   
     8    5   23 1   
     9    5   24 1   
    10    6    7 1   
    11    6   20 2   
    12    7    8 1   
    13    7   13 1   
    14    7   25 1   
    15    8    9 1   
    16    8   26 1   
    17    9   10 1   
    18    9   11 2   
    19   10   27 1   
    20   10   28 1   
    21   10   29 1   
    22   12   13 1   
    23   12   30 1   
    24   13   14 1   
    25   13   31 1   
    26   14   15 1   
    27   14   16 1   
    28   14   32 1   
    29   15   33 1   
    30   16   17 1   
    31   16   18 1   
    32   16   34 1   
    33   17   35 1   
    34   18   19 1   
    35   18   36 1   
    36   18   37 1   
    37   19   38 1   
@<TRIPOS>SUBSTRUCTURE
     1 NAV         1 TEMP              0 ****  ****    0 ROOT
