@<TRIPOS>MOLECULE
NAV
   39    38     1     0     0
SMALL
bcc


@<TRIPOS>ATOM
      1 C1         -0.5530    0.2080   -0.7630 c         1 NAV      0.630100
      2 O1A        -0.1250   -0.1070    0.3500 o         1 NAV     -0.513000
      3 O1B        -0.6960    1.5510   -0.9380 oh        1 NAV     -0.594100
      4 C2         -0.8870   -0.7310   -1.8850 c3        1 NAV     -0.165400
      5 C3         -2.3650   -1.0570   -1.9330 c3        1 NAV     -0.153400
      6 C4         -3.1980    0.0450   -2.5370 c2        1 NAV      0.599300
      7 C5         -4.6040   -0.1280   -2.5420 c2        1 NAV     -0.513200
      8 N2         -5.4230    0.9390   -3.0770 ny        1 NAV     -0.453600
      9 C10        -5.5170    0.8790   -4.5770 c         1 NAV      0.547100
     10 C11        -4.4330    1.5590   -5.3440 c3        1 NAV     -0.186100
     11 O10        -6.4770    0.2850   -5.0580 o         1 NAV     -0.477100
     12 O6         -5.6130   -0.9630   -0.5230 oh        1 NAV     -0.644800
     13 C6         -5.2890   -1.2720   -1.8840 c3        1 NAV      0.211300
     14 C7         -6.6400   -1.6620   -2.5180 c3        1 NAV      0.137100
     15 O7         -7.6470   -0.7300   -2.1540 oh        1 NAV     -0.620800
     16 C8         -7.0430   -3.0800   -2.0800 c3        1 NAV      0.117100
     17 O8         -6.0550   -3.9660   -2.5840 oh        1 NAV     -0.603800
     18 C9         -8.4230   -3.4360   -2.6420 c3        1 NAV      0.092400
     19 O9         -8.7220   -4.7360   -2.1580 oh        1 NAV     -0.614800
     20 O4         -2.6400    1.0770   -3.0100 o         1 NAV     -0.764300
     21 HC21       -0.3040   -1.6780   -1.7310 hc        1 NAV      0.080700
     22 HC22       -0.5680   -0.2710   -2.8590 hc        1 NAV      0.080700
     23 HC31       -2.5080   -1.9820   -2.5550 hc        1 NAV      0.073200
     24 HC32       -2.7390   -1.2810   -0.8990 hc        1 NAV      0.073200
     25 HC5        -1.0930    1.7330   -1.8080 ho        1 NAV      0.457000
     26 HN2        -6.3670    0.8630   -2.6710 hn        1 NAV      0.448800
     27 H111       -3.4290    1.1550   -5.0420 hc        1 NAV      0.100033
     28 H112       -4.4410    2.6580   -5.1360 hc        1 NAV      0.100033
     29 H113       -4.5960    1.3870   -6.4370 hc        1 NAV      0.100033
     30 HO6        -4.8260   -0.5770   -0.1230 ho        1 NAV      0.417000
     31 HC6        -4.6150   -2.1770   -1.9040 h1        1 NAV      0.079700
     32 HC7        -6.5780   -1.6070   -3.6400 h1        1 NAV      0.101700
     33 HO7        -7.7190   -0.7470   -1.1890 ho        1 NAV      0.426000
     34 HC8        -7.0620   -3.1390   -0.9550 h1        1 NAV      0.063700
     35 HO8        -6.3700   -4.8590   -2.3920 ho        1 NAV      0.425000
     36 HC91       -8.3960   -3.4370   -3.7640 h1        1 NAV      0.043700
     37 HC92       -9.1840   -2.6950   -2.2830 h1        1 NAV      0.043700
     38 HO9        -9.5750   -4.9820   -2.5320 ho        1 NAV      0.410000
     39 H22        -4.9880    1.8330   -2.8210 hn        1 NAV      0.448800
@<TRIPOS>BOND
     1    1    2 2   
     2    1    3 1   
     3    1    4 1   
     4    3   25 1   
     5    4    5 1   
     6    4   21 1   
     7    4   22 1   
     8    5    6 1   
     9    5   23 1   
    10    5   24 1   
    11    6    7 2   
    12    6   20 1   
    13    7    8 1   
    14    7   13 1   
    15    8    9 1   
    16    8   26 1   
    17    8   39 1   
    18    9   10 1   
    19    9   11 2   
    20   10   27 1   
    21   10   28 1   
    22   10   29 1   
    23   12   13 1   
    24   12   30 1   
    25   13   14 1   
    26   13   31 1   
    27   14   15 1   
    28   14   16 1   
    29   14   32 1   
    30   15   33 1   
    31   16   17 1   
    32   16   18 1   
    33   16   34 1   
    34   17   35 1   
    35   18   19 1   
    36   18   36 1   
    37   18   37 1   
    38   19   38 1   
@<TRIPOS>SUBSTRUCTURE
     1 NAV         1 TEMP              0 ****  ****    0 ROOT
