@<TRIPOS>MOLECULE
NAV
   39    38     1     0     0
SMALL
bcc


@<TRIPOS>ATOM
      1 C1         -0.5740    0.2540   -0.7340 c         1 NAV      0.630100
      2 O1A        -0.1650   -0.0280    0.3950 o         1 NAV     -0.513000
      3 O1B        -0.7090    1.5910   -0.9540 oh        1 NAV     -0.594100
      4 C2         -0.8930   -0.7180   -1.8320 c3        1 NAV     -0.165400
      5 C3         -2.3710   -1.0410   -1.8930 c3        1 NAV     -0.153400
      6 C4         -3.1910    0.0430   -2.5440 c2        1 NAV      0.599300
      7 C5         -4.5970   -0.1260   -2.5660 c2        1 NAV     -0.513200
      8 N2         -5.4040    0.9270   -3.1470 n4        1 NAV     -0.453600
      9 C10        -5.4740    0.8200   -4.6460 c         1 NAV      0.547100
     10 C11        -4.3770    1.4740   -5.4160 c3        1 NAV     -0.186100
     11 O10        -6.4280    0.2130   -5.1240 o         1 NAV     -0.477100
     12 O6         -5.6420   -0.8950   -0.5390 oh        1 NAV     -0.644800
     13 C6         -5.2960   -1.2470   -1.8840 c3        1 NAV      0.211300
     14 C7         -6.6380   -1.6530   -2.5270 c3        1 NAV      0.137100
     15 O7         -7.6480   -0.7070   -2.2090 oh        1 NAV     -0.620800
     16 C8         -7.0530   -3.0560   -2.0520 c3        1 NAV      0.117100
     17 O8         -6.0590   -3.9590   -2.5120 oh        1 NAV     -0.603800
     18 C9         -8.4240   -3.4250   -2.6250 c3        1 NAV      0.092400
     19 O9         -8.7360   -4.7080   -2.1050 oh        1 NAV     -0.614800
     20 O4         -2.6220    1.0590   -3.0390 o         1 NAV     -0.764300
     21 HC21       -0.3160   -1.6620   -1.6390 hc        1 NAV      0.080700
     22 HC22       -0.5570   -0.2900   -2.8140 hc        1 NAV      0.080700
     23 HC31       -2.5080   -1.9850   -2.4880 hc        1 NAV      0.073200
     24 HC32       -2.7620   -1.2320   -0.8580 hc        1 NAV      0.073200
     25 HC5        -1.0920    1.7470   -1.8340 ho        1 NAV      0.457000
     26 HN2        -4.9700    1.8270   -2.9120 hn        1 NAV      0.448800
     27 H111       -3.3790    1.0770   -5.0860 hc        1 NAV      0.100033
     28 H112       -4.5220    1.2680   -6.5050 hc        1 NAV      0.100033
     29 H113       -4.3860    2.5790   -5.2420 hc        1 NAV      0.100033
     30 HO6        -4.8600   -0.4980   -0.1390 ho        1 NAV      0.417000
     31 HC6        -4.6260   -2.1540   -1.8650 h1        1 NAV      0.079700
     32 HC7        -6.5580   -1.6330   -3.6500 h1        1 NAV      0.101700
     33 HO7        -7.7360   -0.6940   -1.2450 ho        1 NAV      0.426000
     34 HC8        -7.0910   -3.0790   -0.9260 h1        1 NAV      0.063700
     35 HO8        -6.3810   -4.8460   -2.2970 ho        1 NAV      0.425000
     36 HC91       -8.3800   -3.4620   -3.7460 h1        1 NAV      0.043700
     37 HC92       -9.1890   -2.6710   -2.3020 h1        1 NAV      0.043700
     38 HO9        -9.5840   -4.9640   -2.4860 ho        1 NAV      0.410000
     39 H22        -6.3550    0.8650   -2.7540 hn        1 NAV      0.448800
@<TRIPOS>BOND
     1    1    2 2   
     2    1    3 1   
     3    1    4 1   
     4    3   25 1   
     5    4    5 1   
     6    4   21 1   
     7    4   22 1   
     8    5    6 1   
     9    5   23 1   
    10    5   24 1   
    11    6    7 2   
    12    6   20 1   
    13    7    8 1   
    14    7   13 1   
    15    8    9 1   
    16    8   26 1   
    17    8   39 1   
    18    9   10 1   
    19    9   11 2   
    20   10   27 1   
    21   10   28 1   
    22   10   29 1   
    23   12   13 1   
    24   12   30 1   
    25   13   14 1   
    26   13   31 1   
    27   14   15 1   
    28   14   16 1   
    29   14   32 1   
    30   15   33 1   
    31   16   17 1   
    32   16   18 1   
    33   16   34 1   
    34   17   35 1   
    35   18   19 1   
    36   18   36 1   
    37   18   37 1   
    38   19   38 1   
@<TRIPOS>SUBSTRUCTURE
     1 NAV         1 TEMP              0 ****  ****    0 ROOT
