@<TRIPOS>MOLECULE
NAV
   39    38     1     0     0
SMALL
bcc


@<TRIPOS>ATOM
      1 C1         -0.6370    0.4320   -0.7210 c         1 NAV      0.630100
      2 O1A        -0.2520    0.2370    0.4340 o         1 NAV     -0.513000
      3 O1B        -0.7840    1.7480   -1.0380 oh        1 NAV     -0.594100
      4 C2         -0.9180   -0.6200   -1.7540 c3        1 NAV     -0.165400
      5 C3         -2.3900   -0.9670   -1.8260 c3        1 NAV     -0.153400
      6 C4         -3.2080    0.0580   -2.5710 c2        1 NAV      0.599300
      7 C5         -4.6110   -0.1320   -2.6140 c2        1 NAV     -0.513200
      8 N2         -5.4160    0.8660   -3.2850 n4        1 NAV     -0.453600
      9 C10        -5.4500    0.6530   -4.7740 c         1 NAV      0.547100
     10 C11        -4.3420    1.2640   -5.5640 c3        1 NAV     -0.186100
     11 O10        -6.3860    0.0020   -5.2300 o         1 NAV     -0.477100
     12 O6         -5.6930   -0.7700   -0.5610 oh        1 NAV     -0.644800
     13 C6         -5.3120   -1.2120   -1.8690 c3        1 NAV      0.211300
     14 C7         -6.6340   -1.6800   -2.5130 c3        1 NAV      0.137100
     15 O7         -7.6620   -0.7280   -2.2850 oh        1 NAV     -0.620800
     16 C8         -7.0420   -3.0510   -1.9490 c3        1 NAV      0.117100
     17 O8         -6.0280   -3.9710   -2.3220 oh        1 NAV     -0.603800
     18 C9         -8.3960   -3.4780   -2.5250 c3        1 NAV      0.092400
     19 O9         -8.7040   -4.7260   -1.9230 oh        1 NAV     -0.614800
     20 O4         -2.6390    1.0440   -3.1240 o         1 NAV     -0.764300
     21 HC21       -0.5640   -0.2570   -2.7570 hc        1 NAV      0.080700
     22 HC22       -0.3350   -1.5390   -1.4820 hc        1 NAV      0.080700
     23 HC31       -2.5010   -1.9520   -2.3560 hc        1 NAV      0.073200
     24 HC32       -2.8040   -1.0890   -0.7900 hc        1 NAV      0.073200
     25 HC5        -1.1470    1.8370   -1.9360 ho        1 NAV      0.457000
     26 HN2        -6.3760    0.8190   -2.9110 hn        1 NAV      0.448800
     27 H111       -3.3470    0.9030   -5.1840 hc        1 NAV      0.100033
     28 H112       -4.3660    2.3780   -5.4680 hc        1 NAV      0.100033
     29 H113       -4.4600    0.9810   -6.6390 hc        1 NAV      0.100033
     30 HO6        -4.9260   -0.3360   -0.1720 ho        1 NAV      0.417000
     31 HC6        -4.6310   -2.1060   -1.7710 h1        1 NAV      0.079700
     32 HC7        -6.5280   -1.7380   -3.6320 h1        1 NAV      0.101700
     33 HO7        -7.7730   -0.6480   -1.3270 ho        1 NAV      0.426000
     34 HC8        -7.1060   -2.9970   -0.8260 h1        1 NAV      0.063700
     35 HO8        -6.3440   -4.8450   -2.0530 ho        1 NAV      0.425000
     36 HC91       -9.1770   -2.7140   -2.2730 h1        1 NAV      0.043700
     37 HC92       -8.3250   -3.5930   -3.6390 h1        1 NAV      0.043700
     38 HO9        -9.5400   -5.0190   -2.3030 ho        1 NAV      0.410000
     39 H22        -4.9990    1.7860   -3.1050 hn        1 NAV      0.448800
@<TRIPOS>BOND
     1    1    2 2   
     2    1    3 1   
     3    1    4 1   
     4    3   25 1   
     5    4    5 1   
     6    4   21 1   
     7    4   22 1   
     8    5    6 1   
     9    5   23 1   
    10    5   24 1   
    11    6    7 2   
    12    6   20 1   
    13    7    8 1   
    14    7   13 1   
    15    8    9 1   
    16    8   26 1   
    17    8   39 1   
    18    9   10 1   
    19    9   11 2   
    20   10   27 1   
    21   10   28 1   
    22   10   29 1   
    23   12   13 1   
    24   12   30 1   
    25   13   14 1   
    26   13   31 1   
    27   14   15 1   
    28   14   16 1   
    29   14   32 1   
    30   15   33 1   
    31   16   17 1   
    32   16   18 1   
    33   16   34 1   
    34   17   35 1   
    35   18   19 1   
    36   18   36 1   
    37   18   37 1   
    38   19   38 1   
@<TRIPOS>SUBSTRUCTURE
     1 NAV         1 TEMP              0 ****  ****    0 ROOT
