@<TRIPOS>MOLECULE
NAY
   39    38     1     0     0
SMALL
bcc


@<TRIPOS>ATOM
      1 C1         -1.0040    1.1970   -0.2160 c         1 NAY      0.542100
      2 O1A        -0.9030    0.7110    0.9090 o         1 NAY     -0.484000
      3 O1B        -1.2820    2.5270   -0.2420 oh        1 NAY     -0.570100
      4 C2         -0.8620    0.4490   -1.5200 c         1 NAY      0.503100
      5 O2          0.0700    0.6950   -2.2850 o         1 NAY     -0.484100
      6 C3         -1.9240   -0.5780   -1.7810 c3        1 NAY     -0.167400
      7 C4         -2.6860   -0.2620   -3.0540 c3        1 NAY     -0.080400
      8 C5         -4.2060   -0.2210   -2.8530 c3        1 NAY      0.114700
      9 N          -4.7070    0.7920   -1.9590 n         1 NAY     -0.557900
     10 C10        -4.2520    2.0920   -1.8460 c         1 NAY      0.665100
     11 C11        -5.0860    3.0350   -1.0070 c3        1 NAY     -0.179100
     12 O10        -3.1750    2.4760   -2.3520 o         1 NAY     -0.646100
     13 O6         -4.6640   -1.4690   -4.8100 oh        1 NAY     -0.612800
     14 C6         -4.8580   -0.1690   -4.2710 c3        1 NAY      0.091100
     15 C7         -6.3630    0.1490   -4.2260 c3        1 NAY      0.111100
     16 O7         -7.0190   -0.5590   -3.1900 oh        1 NAY     -0.606800
     17 C8         -7.0340   -0.1740   -5.5750 c3        1 NAY      0.112100
     18 O8         -6.1210    0.1820   -6.6020 oh        1 NAY     -0.616800
     19 C9         -8.3490    0.5970   -5.7100 c3        1 NAY      0.095400
     20 O9         -8.9050    0.2060   -6.9560 oh        1 NAY     -0.613800
     21 HC31       -2.6110   -0.6430   -0.8970 hc        1 NAY      0.080200
     22 HC32       -1.4160   -1.5770   -1.8790 hc        1 NAY      0.080200
     23 HC41       -2.3330    0.7090   -3.4950 hc        1 NAY      0.080200
     24 HC42       -2.4860   -1.0650   -3.8150 hc        1 NAY      0.080200
     25 HC5        -4.5180   -1.2130   -2.3970 h1        1 NAY      0.068700
     26 HN         -5.6380    0.6140   -1.6420 hn        1 NAY      0.321500
     27 H111       -6.1310    3.0920   -1.3930 hc        1 NAY      0.071367
     28 H112       -5.1050    2.6890    0.0550 hc        1 NAY      0.071367
     29 H113       -4.6250    4.0520   -1.0470 hc        1 NAY      0.071367
     30 HO6        -4.7500   -1.3870   -5.7700 ho        1 NAY      0.428000
     31 HC6        -4.3490    0.6050   -4.9080 h1        1 NAY      0.077700
     32 HC7        -6.5190    1.2350   -3.9750 h1        1 NAY      0.081700
     33 HO7        -6.7980   -1.4940   -3.3010 ho        1 NAY      0.419000
     34 HC8        -7.2410   -1.2800   -5.6390 h1        1 NAY      0.058700
     35 HO8        -6.6130    0.1480   -7.4340 ho        1 NAY      0.432000
     36 HC91       -8.1590    1.7030   -5.7070 h1        1 NAY      0.044200
     37 HC92       -9.0340    0.3250   -4.8650 h1        1 NAY      0.044200
     38 HO9        -9.7450    0.6710   -7.0460 ho        1 NAY      0.414000
     39 HN3        -1.3910    2.8290   -1.1610 ho        1 NAY      0.459000
@<TRIPOS>BOND
     1    1    2 2   
     2    1    3 1   
     3    1    4 1   
     4    3   39 1   
     5    4    5 2   
     6    4    6 1   
     7    6    7 1   
     8    6   21 1   
     9    6   22 1   
    10    7    8 1   
    11    7   23 1   
    12    7   24 1   
    13    8    9 1   
    14    8   14 1   
    15    8   25 1   
    16    9   10 1   
    17    9   26 1   
    18   10   11 1   
    19   10   12 2   
    20   11   27 1   
    21   11   28 1   
    22   11   29 1   
    23   13   14 1   
    24   13   30 1   
    25   14   15 1   
    26   14   31 1   
    27   15   16 1   
    28   15   17 1   
    29   15   32 1   
    30   16   33 1   
    31   17   18 1   
    32   17   19 1   
    33   17   34 1   
    34   18   35 1   
    35   19   20 1   
    36   19   36 1   
    37   19   37 1   
    38   20   38 1   
@<TRIPOS>SUBSTRUCTURE
     1 NAY         1 TEMP              0 ****  ****    0 ROOT
