@<TRIPOS>MOLECULE
NAY
   38    37     1     0     0
SMALL
bcc


@<TRIPOS>ATOM
      1 C1         -0.4010    0.4300    5.0520 c         1 NAY      0.854600
      2 O1A        -1.1050    1.3440    5.5540 o         1 NAY     -0.811800
      3 O1B         0.7130    0.0290    5.4820 o         1 NAY     -0.811800
      4 C2         -0.9040   -0.2130    3.7480 c         1 NAY      0.468100
      5 O2         -1.7750   -1.0830    3.6640 o         1 NAY     -0.580100
      6 C3         -0.2020    0.3410    2.5300 c3        1 NAY     -0.208400
      7 C4         -0.5150   -0.3880    1.2470 c3        1 NAY     -0.105400
      8 C5         -0.1220    0.4390    0.0090 c3        1 NAY      0.066700
      9 N           1.2750    0.8260    0.0170 n         1 NAY     -0.534900
     10 C10         2.3240    0.0930   -0.5090 c         1 NAY      0.656100
     11 C11         3.7080    0.4090    0.0160 c3        1 NAY     -0.183100
     12 O10         2.1790   -0.7390   -1.4310 o         1 NAY     -0.645100
     13 O6         -2.0030   -0.5630   -1.1680 oh        1 NAY     -0.595800
     14 C6         -0.6120   -0.2930   -1.2630 c3        1 NAY      0.114100
     15 C7         -0.3640    0.5290   -2.5420 c3        1 NAY      0.084100
     16 O7         -1.2960    1.5940   -2.6340 oh        1 NAY     -0.602800
     17 C8         -0.4500   -0.3690   -3.7920 c3        1 NAY      0.116100
     18 O8          0.3960   -1.4960   -3.7060 oh        1 NAY     -0.592800
     19 C9         -0.1140    0.4540   -5.0450 c3        1 NAY      0.095400
     20 O9         -1.0690    0.1090   -6.0360 oh        1 NAY     -0.598800
     21 HC31        0.8970    0.2980    2.7570 hc        1 NAY      0.060700
     22 HC32       -0.4940    1.4220    2.4510 hc        1 NAY      0.060700
     23 HC41       -1.6160   -0.6040    1.2000 hc        1 NAY      0.067700
     24 HC42        0.0100   -1.3780    1.2280 hc        1 NAY      0.067700
     25 HC5        -0.6940    1.4220    0.0510 h1        1 NAY      0.058700
     26 HN          1.5020    1.3650    0.8290 hn        1 NAY      0.309500
     27 H111        4.4590   -0.1650   -0.5770 hc        1 NAY      0.066033
     28 H112        3.9290    1.5000   -0.0710 hc        1 NAY      0.066033
     29 H113        3.7840    0.1070    1.0890 hc        1 NAY      0.066033
     30 HO6        -2.4290    0.2140   -0.7810 ho        1 NAY      0.401000
     31 HC6        -0.1230   -1.3040   -1.3590 h1        1 NAY      0.120700
     32 HC7         0.6420    1.0300   -2.5020 h1        1 NAY      0.088700
     33 HO7        -2.1670    1.1970   -2.7730 ho        1 NAY      0.405000
     34 HC8        -1.4890   -0.7990   -3.8840 h1        1 NAY      0.097700
     35 HO8         1.2330   -1.2150   -3.3100 ho        1 NAY      0.424000
     36 HC91       -0.1860    1.5540   -4.8250 h1        1 NAY      0.032200
     37 HC92        0.9210    0.2070   -5.4010 h1        1 NAY      0.032200
     38 HO9        -0.8020    0.5640   -6.8420 ho        1 NAY      0.391000
@<TRIPOS>BOND
     1    1    2 1   
     2    1    3 1   
     3    1    4 1   
     4    4    5 2   
     5    4    6 1   
     6    6    7 1   
     7    6   21 1   
     8    6   22 1   
     9    7    8 1   
    10    7   23 1   
    11    7   24 1   
    12    8    9 1   
    13    8   14 1   
    14    8   25 1   
    15    9   10 1   
    16    9   26 1   
    17   10   11 1   
    18   10   12 2   
    19   11   27 1   
    20   11   28 1   
    21   11   29 1   
    22   13   14 1   
    23   13   30 1   
    24   14   15 1   
    25   14   31 1   
    26   15   16 1   
    27   15   17 1   
    28   15   32 1   
    29   16   33 1   
    30   17   18 1   
    31   17   19 1   
    32   17   34 1   
    33   18   35 1   
    34   19   20 1   
    35   19   36 1   
    36   19   37 1   
    37   20   38 1   
@<TRIPOS>SUBSTRUCTURE
     1 NAY         1 TEMP              0 ****  ****    0 ROOT
