@<TRIPOS>MOLECULE
NAY
   39    38     1     0     0
SMALL
bcc


@<TRIPOS>ATOM
      1 C1         -0.9830    1.2080   -0.2410 c         1 NAY      0.542100
      2 O1A        -0.8840    0.7480    0.8960 o         1 NAY     -0.484000
      3 O1B        -1.2390    2.5410   -0.2990 oh        1 NAY     -0.570100
      4 C2         -0.8590    0.4240   -1.5260 c         1 NAY      0.503100
      5 O2          0.0740    0.6330   -2.3000 o         1 NAY     -0.484100
      6 C3         -1.9420   -0.5890   -1.7570 c3        1 NAY     -0.167400
      7 C4         -2.7010   -0.2910   -3.0370 c3        1 NAY     -0.080400
      8 C5         -4.2190   -0.2200   -2.8350 c3        1 NAY      0.114700
      9 N          -4.7010    0.8240   -1.9650 n         1 NAY     -0.557900
     10 C10        -4.2230    2.1190   -1.8850 c         1 NAY      0.665100
     11 C11        -5.0380    3.0960   -1.0690 c3        1 NAY     -0.179100
     12 O10        -3.1400    2.4710   -2.4020 o         1 NAY     -0.646100
     13 O6         -4.7020   -1.5080   -4.7580 oh        1 NAY     -0.612800
     14 C6         -4.8730   -0.1920   -4.2520 c3        1 NAY      0.091100
     15 C7         -6.3720    0.1530   -4.2120 c3        1 NAY      0.111100
     16 O7         -7.0390   -0.5170   -3.1580 oh        1 NAY     -0.606800
     17 C8         -7.0510   -0.1930   -5.5520 c3        1 NAY      0.112100
     18 O8         -6.1350    0.1210   -6.5890 oh        1 NAY     -0.616800
     19 C9         -8.3540    0.5970   -5.7050 c3        1 NAY      0.095400
     20 O9         -8.9190    0.1840   -6.9390 oh        1 NAY     -0.613800
     21 HC31       -2.6270   -0.6170   -0.8700 hc        1 NAY      0.080200
     22 HC32       -1.4540   -1.5990   -1.8300 hc        1 NAY      0.080200
     23 HC41       -2.5160   -1.1170   -3.7780 hc        1 NAY      0.080200
     24 HC42       -2.3320    0.6620   -3.5030 hc        1 NAY      0.080200
     25 HC5        -4.5480   -1.1940   -2.3520 h1        1 NAY      0.068700
     26 HN         -5.6340    0.6710   -1.6430 hn        1 NAY      0.321500
     27 H111       -5.0630    2.7770    0.0010 hc        1 NAY      0.071367
     28 H112       -6.0830    3.1630   -1.4560 hc        1 NAY      0.071367
     29 H113       -4.5590    4.1040   -1.1340 hc        1 NAY      0.071367
     30 HO6        -4.7890   -1.4500   -5.7190 ho        1 NAY      0.428000
     31 HC6        -4.3520    0.5560   -4.9100 h1        1 NAY      0.077700
     32 HC7        -6.5100    1.2480   -3.9890 h1        1 NAY      0.081700
     33 HO7        -6.8340   -1.4580   -3.2460 ho        1 NAY      0.419000
     34 HC8        -7.2780   -1.2970   -5.5880 h1        1 NAY      0.058700
     35 HO8        -6.6290    0.0740   -7.4200 ho        1 NAY      0.432000
     36 HC91       -8.1440    1.6990   -5.7290 h1        1 NAY      0.044200
     37 HC92       -9.0420    0.3580   -4.8520 h1        1 NAY      0.044200
     38 HO9        -9.7510    0.6610   -7.0390 ho        1 NAY      0.414000
     39 HN3        -1.3470    2.8220   -1.2240 ho        1 NAY      0.459000
@<TRIPOS>BOND
     1    1    2 2   
     2    1    3 1   
     3    1    4 1   
     4    3   39 1   
     5    4    5 2   
     6    4    6 1   
     7    6    7 1   
     8    6   21 1   
     9    6   22 1   
    10    7    8 1   
    11    7   23 1   
    12    7   24 1   
    13    8    9 1   
    14    8   14 1   
    15    8   25 1   
    16    9   10 1   
    17    9   26 1   
    18   10   11 1   
    19   10   12 2   
    20   11   27 1   
    21   11   28 1   
    22   11   29 1   
    23   13   14 1   
    24   13   30 1   
    25   14   15 1   
    26   14   31 1   
    27   15   16 1   
    28   15   17 1   
    29   15   32 1   
    30   16   33 1   
    31   17   18 1   
    32   17   19 1   
    33   17   34 1   
    34   18   35 1   
    35   19   20 1   
    36   19   36 1   
    37   19   37 1   
    38   20   38 1   
@<TRIPOS>SUBSTRUCTURE
     1 NAY         1 TEMP              0 ****  ****    0 ROOT
