@<TRIPOS>MOLECULE
NAY
   39    38     1     0     0
SMALL
bcc


@<TRIPOS>ATOM
      1 C1         -0.9940    1.2250   -0.2400 c         1 NAY      0.542100
      2 O1A        -0.8840    0.7460    0.8870 o         1 NAY     -0.484000
      3 O1B        -1.2760    2.5530   -0.2730 oh        1 NAY     -0.570100
      4 C2         -0.8570    0.4690   -1.5400 c         1 NAY      0.503100
      5 O2          0.0700    0.7120   -2.3120 o         1 NAY     -0.484100
      6 C3         -1.9200   -0.5620   -1.7880 c3        1 NAY     -0.167400
      7 C4         -2.6880   -0.2550   -3.0610 c3        1 NAY     -0.080400
      8 C5         -4.2070   -0.2180   -2.8530 c3        1 NAY      0.114700
      9 N          -4.7070    0.8000   -1.9630 ns        1 NAY     -0.557900
     10 C10        -4.2540    2.1020   -1.8590 c         1 NAY      0.665100
     11 C11        -5.0860    3.0480   -1.0240 c3        1 NAY     -0.179100
     12 O10        -3.1800    2.4850   -2.3720 o         1 NAY     -0.646100
     13 O6         -4.6700   -1.4790   -4.7990 oh        1 NAY     -0.612800
     14 C6         -4.8650   -0.1760   -4.2680 c3        1 NAY      0.091100
     15 C7         -6.3710    0.1390   -4.2180 c3        1 NAY      0.111100
     16 O7         -7.0210   -0.5640   -3.1750 oh        1 NAY     -0.606800
     17 C8         -7.0470   -0.1950   -5.5620 c3        1 NAY      0.112100
     18 O8         -6.1410    0.1560   -6.5960 oh        1 NAY     -0.616800
     19 C9         -8.3660    0.5710   -5.6970 c3        1 NAY      0.095400
     20 O9         -8.9260    0.1710   -6.9370 oh        1 NAY     -0.613800
     21 HC31       -2.6020   -0.6210   -0.9000 hc        1 NAY      0.080200
     22 HC32       -1.4110   -1.5600   -1.8820 hc        1 NAY      0.080200
     23 HC41       -2.4900   -1.0630   -3.8170 hc        1 NAY      0.080200
     24 HC42       -2.3400    0.7140   -3.5090 hc        1 NAY      0.080200
     25 HC5        -4.5150   -1.2070   -2.3880 h1        1 NAY      0.068700
     26 HN         -5.6360    0.6220   -1.6410 hn        1 NAY      0.321500
     27 H111       -6.1340    3.1010   -1.4050 hc        1 NAY      0.071367
     28 H112       -4.6280    4.0660   -1.0710 hc        1 NAY      0.071367
     29 H113       -5.1010    2.7080    0.0410 hc        1 NAY      0.071367
     30 HO6        -4.7620   -1.4040   -5.7590 ho        1 NAY      0.428000
     31 HC6        -4.3620    0.5950   -4.9130 h1        1 NAY      0.077700
     32 HC7        -6.5290    1.2260   -3.9740 h1        1 NAY      0.081700
     33 HO7        -6.7980   -1.5000   -3.2810 ho        1 NAY      0.419000
     34 HC8        -7.2520   -1.3030   -5.6180 h1        1 NAY      0.058700
     35 HO8        -6.6360    0.1150   -7.4250 ho        1 NAY      0.432000
     36 HC91       -8.1780    1.6770   -5.7010 h1        1 NAY      0.044200
     37 HC92       -9.0460    0.3030   -4.8460 h1        1 NAY      0.044200
     38 HO9        -9.7680    0.6320   -7.0260 ho        1 NAY      0.414000
     39 HN3        -1.3910    2.8500   -1.1920 ho        1 NAY      0.459000
@<TRIPOS>BOND
     1    1    2 2   
     2    1    3 1   
     3    1    4 1   
     4    3   39 1   
     5    4    5 2   
     6    4    6 1   
     7    6    7 1   
     8    6   21 1   
     9    6   22 1   
    10    7    8 1   
    11    7   23 1   
    12    7   24 1   
    13    8    9 1   
    14    8   14 1   
    15    8   25 1   
    16    9   10 1   
    17    9   26 1   
    18   10   11 1   
    19   10   12 2   
    20   11   27 1   
    21   11   28 1   
    22   11   29 1   
    23   13   14 1   
    24   13   30 1   
    25   14   15 1   
    26   14   31 1   
    27   15   16 1   
    28   15   17 1   
    29   15   32 1   
    30   16   33 1   
    31   17   18 1   
    32   17   19 1   
    33   17   34 1   
    34   18   35 1   
    35   19   20 1   
    36   19   36 1   
    37   19   37 1   
    38   20   38 1   
@<TRIPOS>SUBSTRUCTURE
     1 NAY         1 TEMP              0 ****  ****    0 ROOT
