@<TRIPOS>MOLECULE
NAZ
   61    60     1     0     0
SMALL
bcc


@<TRIPOS>ATOM
      1 C1        -73.8990   -8.4180  105.2360 c3        1 NAZ     -0.008000
      2 O2        -75.8830   -9.0700  106.9500 oh        1 NAZ     -0.220000
      3 C3         71.9230    3.6850  -97.8690 c3        1 NAZ     -0.146000
      4 N4         72.5760    3.9140  -96.5990 n7        1 NAZ     -0.078000
      5 C5         72.9410    5.0880  -96.1640 c2        1 NAZ      0.146000
      6 C6         73.6460    5.3420  -94.8750 c3        1 NAZ     -0.200000
      7 C7         73.0390    6.5410  -94.1570 c2        1 NAZ      0.315000
      8 C8         71.0380    5.3310  -93.2470 c2        1 NAZ      0.173000
      9 C9         70.0820    5.3280  -92.1580 c2        1 NAZ     -0.205000
     10 N10        71.0890    4.3640  -94.1770 n2        1 NAZ     -0.279000
     11 C11        69.2010    4.2830  -92.0660 c2        1 NAZ     -0.016000
     12 C12        70.2050    3.3020  -94.0780 c2        1 NAZ      0.084000
     13 C13        69.2360    3.2330  -93.0220 c2        1 NAZ     -0.145000
     14 C14        68.4660    1.1470  -93.9450 c2        1 NAZ     -0.186000
     15 C15        68.3590    2.1160  -92.9820 c2        1 NAZ     -0.038000
     16 C16        69.4620    1.2820  -94.9730 c2        1 NAZ      0.058000
     17 N17        70.3040    2.3120  -95.0510 n2        1 NAZ     -0.208000
     18 N18        71.9320    6.4140  -93.3300 ns        1 NAZ     -0.316000
     19 C19        69.5240    0.1840  -95.9880 c3        1 NAZ     -0.191000
     20 O20        73.5790    7.6530  -94.2640 o         1 NAZ     -0.291000
     21 C21       -76.8270   -6.8010  107.1510 c3        1 NAZ     -0.266000
     22 C22       -75.8230   -7.7590  106.6000 c2        1 NAZ      0.266000
     23 N23       -74.8430   -7.4430  105.7710 n7        1 NAZ     -0.160000
     24 C24       -74.5410   -3.5240  105.1830 c1        1 NAZ      0.370000
     25 C25       -73.9290   -2.5880  104.6000 c1        1 NAZ     -0.484000
     26 N26       -71.5410   -5.7790  101.9090 n2        1 NAZ     -0.219000
     27 C27       -73.3360   -1.5680  104.0230 c2        1 NAZ      0.251000
     28 C28       -72.1670   -6.2550  102.8520 c1        1 NAZ      0.170000
     29 C29       -72.2340   -1.6980  103.0980 c2        1 NAZ     -0.470000
     30 C30       -71.4570   -8.1990  104.9600 c2        1 NAZ     -0.213000
     31 C31       -71.6760   -2.8140  102.6690 c1        1 NAZ      0.250000
     32 C32       -72.6820   -7.7790  104.5890 c2        1 NAZ     -0.038000
     33 N33       -73.0070   -6.8210  103.6180 n2        1 NAZ     -0.257000
     34 H36       -74.4450   -9.0420  104.4660 h1        1 NAZ      0.142000
     35 H37       -73.5700   -9.0980  106.0760 h1        1 NAZ      0.142000
     36 H38       -76.6260   -9.2100  107.5690 ho        1 NAZ      0.289000
     37 H39        71.7710    4.6460  -98.4290 h1        1 NAZ      0.143000
     38 H40        70.9240    3.2000  -97.6750 h1        1 NAZ      0.143000
     39 H41        72.6640    3.0970  -96.0050 hn        1 NAZ      0.296000
     40 H42        72.7590    5.9840  -96.8080 h4        1 NAZ      0.201000
     41 H43        73.6850    4.4490  -94.1940 hc        1 NAZ      0.170000
     42 H44        74.7140    5.6220  -95.1280 hc        1 NAZ      0.170000
     43 H45        70.0750    6.1470  -91.4240 ha        1 NAZ      0.169000
     44 H46        68.4590    4.2400  -91.2500 ha        1 NAZ      0.166000
     45 H47        67.6090    2.0490  -92.1770 ha        1 NAZ      0.161000
     46 H48        67.8100    0.2640  -93.9540 ha        1 NAZ      0.167000
     47 H49        71.6950    7.2190  -92.7810 hn        1 NAZ      0.273000
     48 H50        70.2760    0.3770  -96.7910 hc        1 NAZ      0.107333
     49 H51        68.5170    0.0660  -96.4620 hc        1 NAZ      0.107333
     50 H52        69.7910   -0.7720  -95.4720 hc        1 NAZ      0.107333
     51 H53        72.5610    2.9890  -98.4810 h1        1 NAZ      0.143000
     52 H54       -76.8220   -6.8640  108.2700 hc        1 NAZ      0.158667
     53 H55       -76.6140   -5.7400  106.8530 hc        1 NAZ      0.158667
     54 H56       -73.6690   -0.5290  104.2300 ha        1 NAZ      0.155000
     55 H35       -71.1220   -4.8730  101.8800 hn        1 NAZ      0.278000
     56 H57       -71.8190   -0.7390  102.7070 ha        1 NAZ      0.223000
     57 H58       -70.5360   -7.8320  104.4840 ha        1 NAZ      0.143000
     58 H59       -71.3080   -8.9470  105.7490 ha        1 NAZ      0.143000
     59 H421      -77.8450   -7.0810  106.7720 hc        1 NAZ      0.158667
     60 H232      -74.7570   -6.4810  105.4620 hn        1 NAZ      0.318000
     61 O34       -75.1000   -4.4420  105.7260 o         1 NAZ     -0.280000
@<TRIPOS>BOND
     1    1   23 1   
     2    1   32 1   
     3    1   34 1   
     4    1   35 1   
     5    2   22 1   
     6    2   36 1   
     7    3    4 1   
     8    3   37 1   
     9    3   38 1   
    10    3   51 1   
    11    4    5 1   
    12    4   39 1   
    13    5    6 1   
    14    5   40 1   
    15    6    7 1   
    16    6   41 1   
    17    6   42 1   
    18    7   18 1   
    19    7   20 1   
    20    8    9 1   
    21    8   10 1   
    22    8   18 1   
    23    9   11 1   
    24    9   43 1   
    25   10   12 1   
    26   11   13 1   
    27   11   44 1   
    28   12   13 1   
    29   12   17 1   
    30   13   15 1   
    31   14   15 1   
    32   14   16 1   
    33   14   46 1   
    34   15   45 1   
    35   16   17 1   
    36   16   19 1   
    37   18   47 1   
    38   19   48 1   
    39   19   49 1   
    40   19   50 1   
    41   21   22 1   
    42   21   52 1   
    43   21   53 1   
    44   21   59 1   
    45   22   23 1   
    46   23   60 1   
    47   24   25 1   
    48   24   61 1   
    49   25   27 1   
    50   26   28 1   
    51   26   55 1   
    52   27   29 1   
    53   27   54 1   
    54   28   33 1   
    55   29   31 1   
    56   29   56 1   
    57   30   32 1   
    58   30   57 1   
    59   30   58 1   
    60   32   33 1   
@<TRIPOS>SUBSTRUCTURE
     1 NAZ         1 TEMP              0 ****  ****    0 ROOT
