@<TRIPOS>MOLECULE
NAZ
   59    62     1     0     0
SMALL
bcc


@<TRIPOS>ATOM
      1 C1         -4.1130    1.2090    1.8350 c3        1 NAZ      0.029700
      2 O2         -3.1210   -1.0570    3.1390 o         1 NAZ     -0.597100
      3 C3         -0.5430   -1.2940    0.9470 c3        1 NAZ      0.168800
      4 N4          0.3550   -2.2720    0.3640 n3        1 NAZ     -0.826200
      5 C5          1.6620   -1.7220    0.0600 c3        1 NAZ      0.165800
      6 C6          2.5540   -2.7180   -0.6790 c3        1 NAZ     -0.165400
      7 C7          3.9050   -2.0840   -0.9750 c         1 NAZ      0.671100
      8 C8          5.9330   -1.1530    0.1540 ca        1 NAZ      0.558200
      9 C9          6.9690   -1.5780    1.0790 ca        1 NAZ     -0.275300
     10 N10         6.0400   -0.0670   -0.6260 nb        1 NAZ     -0.650000
     11 C11         8.1270   -0.8540    1.1410 ca        1 NAZ     -0.051000
     12 C12         7.2200    0.6610   -0.5650 ca        1 NAZ      0.671300
     13 C13         8.2940    0.2880    0.3160 ca        1 NAZ     -0.222300
     14 C14         9.5590    2.1680   -0.4940 ca        1 NAZ     -0.260300
     15 C15         9.4750    1.0760    0.3260 ca        1 NAZ     -0.063000
     16 C16         8.4430    2.4890   -1.3440 ca        1 NAZ      0.446600
     17 N17         7.3200    1.7810   -1.3880 nb        1 NAZ     -0.636000
     18 N18         4.7560   -1.9300    0.1210 n         1 NAZ     -0.575400
     19 C19         8.5950    3.6980   -2.2150 c3        1 NAZ     -0.156400
     20 O20         4.2310   -1.7830   -2.1300 o         1 NAZ     -0.534100
     21 C21        -1.9370   -1.8650    1.2000 c3        1 NAZ     -0.158400
     22 C22        -2.7920   -0.8630    1.9540 c         1 NAZ      0.653100
     23 N23        -3.1480    0.3040    1.2880 n         1 NAZ     -0.547900
     24 C24        -8.5560    0.0620   -2.2530 c         1 NAZ      0.694700
     25 C25        -9.6770    0.5100   -1.4150 cc        1 NAZ     -0.230200
     26 N26        -7.2640    0.1350   -1.7080 n         1 NAZ     -0.522400
     27 C27        -9.4700    0.9750   -0.1660 cd        1 NAZ     -0.026200
     28 C28        -7.0320    0.6120   -0.4190 ca        1 NAZ      0.563200
     29 C29        -8.1420    1.0450    0.3820 ca        1 NAZ     -0.247100
     30 C30        -6.5750    1.5570    2.1420 ca        1 NAZ     -0.281300
     31 C31        -7.8780    1.5200    1.6770 ca        1 NAZ     -0.032000
     32 C32        -5.5310    1.1110    1.2880 ca        1 NAZ      0.438600
     33 N33        -5.7350    0.6530    0.0460 nb        1 NAZ     -0.727000
     34 H36        -4.1620    1.0560    2.9540 h1        1 NAZ      0.083200
     35 H37        -3.7610    2.2630    1.6280 h1        1 NAZ      0.083200
     36 H38        -0.0990   -0.9710    1.9320 h1        1 NAZ      0.040700
     37 H39        -0.6370   -0.3700    0.3020 h1        1 NAZ      0.040700
     38 H40        -0.0550   -2.6870   -0.4530 hn        1 NAZ      0.359800
     39 H41         2.1400   -1.4460    1.0430 h1        1 NAZ      0.042200
     40 H42         1.5980   -0.7770   -0.5580 h1        1 NAZ      0.042200
     41 H43         2.0960   -3.0000   -1.6640 hc        1 NAZ      0.077700
     42 H44         2.6820   -3.6570   -0.0800 hc        1 NAZ      0.077700
     43 H45         6.8190   -2.4700    1.7020 ha        1 NAZ      0.146000
     44 H46         8.9420   -1.1450    1.8220 ha        1 NAZ      0.141000
     45 H47        10.4520    2.8070   -0.5230 ha        1 NAZ      0.146000
     46 H48        10.3020    0.7920    0.9950 ha        1 NAZ      0.138000
     47 H49         4.4760   -2.3160    0.9940 hn        1 NAZ      0.323500
     48 H50         9.4710    3.5500   -2.8930 hc        1 NAZ      0.058367
     49 H51         7.6880    3.8910   -2.8380 hc        1 NAZ      0.058367
     50 H52         8.7840    4.5910   -1.5700 hc        1 NAZ      0.058367
     51 H53        -2.4360   -2.1400    0.2350 hc        1 NAZ      0.078200
     52 H54        -1.8690   -2.7910    1.8310 hc        1 NAZ      0.078200
     53 H55        -3.0350    0.3220    0.3000 hn        1 NAZ      0.314500
     54 H56       -10.6710    0.4360   -1.8790 ha        1 NAZ      0.169000
     55 H35        -6.4950   -0.1670   -2.2690 hn        1 NAZ      0.344500
     56 H57       -10.3050    1.3120    0.4700 ha        1 NAZ      0.145000
     57 H58        -6.3410    1.9160    3.1530 ha        1 NAZ      0.154000
     58 H59        -8.7130    1.8550    2.3110 ha        1 NAZ      0.145000
     59 O34        -8.6760   -0.3770   -3.4120 o         1 NAZ     -0.621500
@<TRIPOS>BOND
     1    1   23 1   
     2    1   32 1   
     3    1   34 1   
     4    1   35 1   
     5    2   22 2   
     6    3    4 1   
     7    3   21 1   
     8    3   36 1   
     9    3   37 1   
    10    4    5 1   
    11    4   38 1   
    12    5    6 1   
    13    5   39 1   
    14    5   40 1   
    15    6    7 1   
    16    6   41 1   
    17    6   42 1   
    18    7   18 1   
    19    7   20 2   
    20    8    9 ar  
    21    8   10 ar  
    22    8   18 1   
    23    9   11 ar  
    24    9   43 1   
    25   10   12 ar  
    26   11   13 ar  
    27   11   44 1   
    28   12   13 ar  
    29   12   17 ar  
    30   13   15 ar  
    31   14   15 ar  
    32   14   16 ar  
    33   14   45 1   
    34   15   46 1   
    35   16   17 ar  
    36   16   19 1   
    37   18   47 1   
    38   19   48 1   
    39   19   49 1   
    40   19   50 1   
    41   21   22 1   
    42   21   51 1   
    43   21   52 1   
    44   22   23 1   
    45   23   53 1   
    46   24   25 1   
    47   24   26 1   
    48   24   59 2   
    49   25   27 2   
    50   25   54 1   
    51   26   28 1   
    52   26   55 1   
    53   27   29 1   
    54   27   56 1   
    55   28   29 ar  
    56   28   33 ar  
    57   29   31 ar  
    58   30   31 ar  
    59   30   32 ar  
    60   30   57 1   
    61   31   58 1   
    62   32   33 ar  
@<TRIPOS>SUBSTRUCTURE
     1 NAZ         1 TEMP              0 ****  ****    0 ROOT
