@<TRIPOS>MOLECULE
NB1
   33    34     1     0     0
SMALL
bcc


@<TRIPOS>ATOM
      1 C1          0.0630    0.1370    0.0340 c3        1 NB1      0.222200
      2 C2          1.6090   -0.0510    0.1210 c3        1 NB1      0.053500
      3 C3          2.1890    0.0860    1.5490 c3        1 NB1      0.110100
      4 C4          1.3820    1.0750    2.4040 c3        1 NB1      0.088100
      5 C5         -0.0890    0.6540    2.3800 c3        1 NB1      0.093100
      6 C6         -0.9520    1.5510    3.2710 c3        1 NB1      0.142400
      7 C7          0.9950   -2.1380   -0.6430 c2        1 NB1      0.470200
      8 C8          1.0820   -3.5210   -1.1950 c3        1 NB1     -0.110700
      9 CM          2.1030   -5.7830   -0.9950 c3        1 NB1     -0.095100
     10 N2          1.9950   -1.3340   -0.4560 n2        1 NB1     -0.572900
     11 O3          3.5460    0.4820    1.5260 oh        1 NB1     -0.581800
     12 O4          1.8230    1.0470    3.7490 oh        1 NB1     -0.589800
     13 O5         -0.5820    0.8470    1.0500 os        1 NB1     -0.386600
     14 O6         -2.2640    1.0500    3.3870 oh        1 NB1     -0.591800
     15 S1         -0.6050   -1.5460   -0.2690 ss        1 NB1     -0.338300
     16 C9          2.0910   -4.3760   -0.4530 c3        1 NB1     -0.076400
     17 H1         -0.1950    0.7290   -0.8900 h2        1 NB1      0.104700
     18 H2          2.0820    0.7490   -0.5240 h1        1 NB1      0.089700
     19 H3          2.2120   -0.9120    2.0790 h1        1 NB1      0.107700
     20 H4          1.4920    2.1210    2.0000 h1        1 NB1      0.050700
     21 HA          3.6220    1.2620    0.9620 ho        1 NB1      0.403000
     22 H5         -0.2060   -0.4230    2.6780 h1        1 NB1      0.083700
     23 HB          2.7910    1.0260    3.7250 ho        1 NB1      0.424000
     24 H6C1       -0.5310    1.5400    4.3130 h1        1 NB1      0.067700
     25 H6C2       -0.9630    2.5970    2.8650 h1        1 NB1      0.067700
     26 H6         -2.6380    1.0200    2.4970 ho        1 NB1      0.409000
     27 H8C1        0.0660   -3.9970   -1.1360 hc        1 NB1      0.068700
     28 H8C2        1.3650   -3.4610   -2.2820 hc        1 NB1      0.068700
     29 H9C1        3.1130   -3.9230   -0.5500 hc        1 NB1      0.054200
     30 H9C2        1.8370   -4.3940    0.6390 hc        1 NB1      0.054200
     31 HMC1        1.1000   -6.2610   -0.8820 hc        1 NB1      0.036033
     32 HMC2        2.8520   -6.4000   -0.4420 hc        1 NB1      0.036033
     33 HMC3        2.3740   -5.7870   -2.0780 hc        1 NB1      0.036033
@<TRIPOS>BOND
     1    1    2 1   
     2    1   13 1   
     3    1   15 1   
     4    1   17 1   
     5    2    3 1   
     6    2   10 1   
     7    2   18 1   
     8    3    4 1   
     9    3   11 1   
    10    3   19 1   
    11    4    5 1   
    12    4   12 1   
    13    4   20 1   
    14    5    6 1   
    15    5   13 1   
    16    5   22 1   
    17    6   14 1   
    18    6   24 1   
    19    6   25 1   
    20    7    8 1   
    21    7   10 2   
    22    7   15 1   
    23    8   16 1   
    24    8   27 1   
    25    8   28 1   
    26    9   16 1   
    27    9   31 1   
    28    9   32 1   
    29    9   33 1   
    30   11   21 1   
    31   12   23 1   
    32   14   26 1   
    33   16   29 1   
    34   16   30 1   
@<TRIPOS>SUBSTRUCTURE
     1 NB1         1 TEMP              0 ****  ****    0 ROOT
