@<TRIPOS>MOLECULE
NB1
   33    34     1     0     0
SMALL
bcc


@<TRIPOS>ATOM
      1 C1          2.2990   -1.1460   -1.6390 c3        1 NB1      0.222200
      2 C2          1.7880   -1.0540   -0.1680 c3        1 NB1      0.080500
      3 C3          1.2730    0.3310    0.2940 c3        1 NB1      0.164100
      4 C4          1.6150    1.4770   -0.6720 c3        1 NB1      0.078100
      5 C5          1.3800    1.0190   -2.1110 c3        1 NB1      0.061100
      6 C6          1.6200    2.1370   -3.1310 c3        1 NB1      0.137400
      7 C7          0.4680   -2.7910   -0.9360 c2        1 NB1      0.464200
      8 C8         -0.5120   -3.9150   -0.9520 c3        1 NB1     -0.108700
      9 CM         -2.8370   -4.6590   -0.4610 c3        1 NB1     -0.095100
     10 N2          0.7810   -2.0760    0.0970 n2        1 NB1     -0.573900
     11 O3          1.9110    0.5690    1.5400 oh        1 NB1     -0.595800
     12 O4          0.7540    2.5430   -0.3030 oh        1 NB1     -0.595800
     13 O5          2.3630    0.0240   -2.4090 os        1 NB1     -0.390600
     14 O6          1.3540    1.7030   -4.4450 oh        1 NB1     -0.588800
     15 S1          1.2890   -2.4500   -2.4360 ss        1 NB1     -0.339300
     16 C9         -1.8530   -3.5220   -0.3640 c3        1 NB1     -0.076400
     17 H1          3.3600   -1.5230   -1.6540 h2        1 NB1      0.107700
     18 H2          2.6710   -1.3050    0.5010 h1        1 NB1      0.117700
     19 H3          0.1540    0.3210    0.4380 h1        1 NB1      0.077700
     20 H4          2.6900    1.7840   -0.5400 h1        1 NB1      0.066700
     21 HA          1.4980    1.3590    1.9110 ho        1 NB1      0.418000
     22 H5          0.3480    0.5930   -2.2390 h1        1 NB1      0.083700
     23 HB          1.0350    3.3190   -0.8030 ho        1 NB1      0.410000
     24 H6C1        2.6760    2.5100   -3.0470 h1        1 NB1      0.054200
     25 H6C2        0.8940    2.9740   -2.9480 h1        1 NB1      0.054200
     26 H6          1.9050    0.9260   -4.6070 ho        1 NB1      0.417000
     27 H8C1       -0.0840   -4.7780   -0.3710 hc        1 NB1      0.068200
     28 H8C2       -0.6500   -4.2570   -2.0130 hc        1 NB1      0.068200
     29 H9C1       -2.2540   -2.6270   -0.9090 hc        1 NB1      0.053700
     30 H9C2       -1.7210   -3.2250    0.7100 hc        1 NB1      0.053700
     31 HMC1       -2.4630   -5.5540    0.0930 hc        1 NB1      0.035700
     32 HMC2       -3.0040   -4.9500   -1.5260 hc        1 NB1      0.035700
     33 HMC3       -3.8180   -4.3570   -0.0200 hc        1 NB1      0.035700
@<TRIPOS>BOND
     1    1    2 1   
     2    1   13 1   
     3    1   15 1   
     4    1   17 1   
     5    2    3 1   
     6    2   10 1   
     7    2   18 1   
     8    3    4 1   
     9    3   11 1   
    10    3   19 1   
    11    4    5 1   
    12    4   12 1   
    13    4   20 1   
    14    5    6 1   
    15    5   13 1   
    16    5   22 1   
    17    6   14 1   
    18    6   24 1   
    19    6   25 1   
    20    7    8 1   
    21    7   10 2   
    22    7   15 1   
    23    8   16 1   
    24    8   27 1   
    25    8   28 1   
    26    9   16 1   
    27    9   31 1   
    28    9   32 1   
    29    9   33 1   
    30   11   21 1   
    31   12   23 1   
    32   14   26 1   
    33   16   29 1   
    34   16   30 1   
@<TRIPOS>SUBSTRUCTURE
     1 NB1         1 TEMP              0 ****  ****    0 ROOT
