@<TRIPOS>MOLECULE
NB1
   33    34     1     0     0
SMALL
bcc


@<TRIPOS>ATOM
      1 C1          0.1000    0.1190    0.0170 c3        1 NB1      0.221200
      2 C2          1.6400   -0.1010    0.1310 c3        1 NB1      0.050500
      3 C3          2.1980    0.0200    1.5730 c3        1 NB1      0.118100
      4 C4          1.4140    1.0620    2.3810 c3        1 NB1      0.083100
      5 C5         -0.0650    0.6620    2.3560 c3        1 NB1      0.058100
      6 C6         -0.9200    1.5880    3.2270 c3        1 NB1      0.139400
      7 C7          0.9950   -2.1740   -0.6490 c2        1 NB1      0.467200
      8 C8          1.0610   -3.5560   -1.2060 c3        1 NB1     -0.109700
      9 CM          2.0560   -5.8310   -1.0240 c3        1 NB1     -0.095100
     10 N2          2.0080   -1.3910   -0.4430 n2        1 NB1     -0.566900
     11 O3          3.5760    0.3180    1.5540 oh        1 NB1     -0.564800
     12 O4          1.9050    1.1790    3.6990 oh        1 NB1     -0.573800
     13 O5         -0.5550    0.8360    1.0240 os        1 NB1     -0.382600
     14 O6         -2.1960    1.0360    3.4570 oh        1 NB1     -0.592800
     15 S1         -0.5990   -1.5490   -0.3000 ss        1 NB1     -0.345300
     16 C9          2.0660   -4.4270   -0.4770 c3        1 NB1     -0.076400
     17 H1         -0.1300    0.7190   -0.9100 h2        1 NB1      0.104700
     18 H2          2.1460    0.6890   -0.4990 h1        1 NB1      0.093700
     19 H3          2.1490   -0.9760    2.1040 h1        1 NB1      0.092700
     20 H4          1.5410    2.0920    1.9440 h1        1 NB1      0.090700
     21 HA          3.6820    1.2080    1.1950 ho        1 NB1      0.403000
     22 H5         -0.2040   -0.4070    2.6740 h1        1 NB1      0.072700
     23 HB          2.0270    0.2880    4.0500 ho        1 NB1      0.410000
     24 H6C1       -0.4450    1.6810    4.2410 h1        1 NB1      0.067700
     25 H6C2       -1.0040    2.5970    2.7440 h1        1 NB1      0.067700
     26 H6         -2.6250    0.9440    2.5960 ho        1 NB1      0.411000
     27 H8C1        1.3340   -3.4950   -2.2950 hc        1 NB1      0.068700
     28 H8C2        0.0400   -4.0200   -1.1390 hc        1 NB1      0.068700
     29 H9C1        1.8230   -4.4450    0.6180 hc        1 NB1      0.054200
     30 H9C2        3.0930   -3.9860   -0.5820 hc        1 NB1      0.054200
     31 HMC1        1.0480   -6.2970   -0.9030 hc        1 NB1      0.036033
     32 HMC2        2.8020   -6.4600   -0.4810 hc        1 NB1      0.036033
     33 HMC3        2.3160   -5.8350   -2.1100 hc        1 NB1      0.036033
@<TRIPOS>BOND
     1    1    2 1   
     2    1   13 1   
     3    1   15 1   
     4    1   17 1   
     5    2    3 1   
     6    2   10 1   
     7    2   18 1   
     8    3    4 1   
     9    3   11 1   
    10    3   19 1   
    11    4    5 1   
    12    4   12 1   
    13    4   20 1   
    14    5    6 1   
    15    5   13 1   
    16    5   22 1   
    17    6   14 1   
    18    6   24 1   
    19    6   25 1   
    20    7    8 1   
    21    7   10 2   
    22    7   15 1   
    23    8   16 1   
    24    8   27 1   
    25    8   28 1   
    26    9   16 1   
    27    9   31 1   
    28    9   32 1   
    29    9   33 1   
    30   11   21 1   
    31   12   23 1   
    32   14   26 1   
    33   16   29 1   
    34   16   30 1   
@<TRIPOS>SUBSTRUCTURE
     1 NB1         1 TEMP              0 ****  ****    0 ROOT
