@<TRIPOS>MOLECULE
NB1
   33    34     1     0     0
SMALL
bcc


@<TRIPOS>ATOM
      1 C1          0.1220    0.1570    0.0380 c3        1 NB1      0.231200
      2 C2          1.6570   -0.0780    0.1620 c3        1 NB1      0.042500
      3 C3          2.2130    0.0470    1.6020 c3        1 NB1      0.116100
      4 C4          1.4180    1.0580    2.4400 c3        1 NB1      0.124100
      5 C5         -0.0590    0.6580    2.3890 c3        1 NB1      0.092100
      6 C6         -0.9220    1.5690    3.2690 c3        1 NB1      0.142400
      7 C7          1.0060   -2.1430   -0.6330 c2        1 NB1      0.475200
      8 C8          1.0710   -3.5270   -1.1880 c3        1 NB1     -0.111700
      9 CM          2.0060   -5.8220   -0.9590 c3        1 NB1     -0.096100
     10 N2          2.0240   -1.3740   -0.3990 n2        1 NB1     -0.597900
     11 O3          3.5440    0.5330    1.5640 oh        1 NB1     -0.606800
     12 O4          1.8350    1.0100    3.7920 oh        1 NB1     -0.592800
     13 O5         -0.5330    0.8590    1.0540 os        1 NB1     -0.386600
     14 O6         -2.2440    1.0900    3.3590 oh        1 NB1     -0.592800
     15 S1         -0.5850   -1.5010   -0.3230 ss        1 NB1     -0.338300
     16 C9          2.0250   -4.4170   -0.4160 c3        1 NB1     -0.075400
     17 H1         -0.0950    0.7760   -0.8780 h2        1 NB1      0.104700
     18 H2          2.1740    0.7100   -0.4640 h1        1 NB1      0.105700
     19 H3          2.1920   -0.9490    2.1310 h1        1 NB1      0.066700
     20 H4          1.5610    2.0970    2.0320 h1        1 NB1      0.065700
     21 HA          4.0720   -0.1220    1.0900 ho        1 NB1      0.425000
     22 H5         -0.1980   -0.4170    2.6860 h1        1 NB1      0.081700
     23 HB          2.7900    1.1670    3.7880 ho        1 NB1      0.425000
     24 H6C1       -0.5190    1.5460    4.3170 h1        1 NB1      0.067700
     25 H6C2       -0.9070    2.6150    2.8650 h1        1 NB1      0.067700
     26 H6         -2.6020    1.0700    2.4620 ho        1 NB1      0.410000
     27 H8C1        1.3940   -3.4700   -2.2640 hc        1 NB1      0.069700
     28 H8C2        0.0390   -3.9710   -1.1680 hc        1 NB1      0.069700
     29 H9C1        1.7340   -4.4260    0.6680 hc        1 NB1      0.052200
     30 H9C2        3.0640   -4.0000   -0.4790 hc        1 NB1      0.052200
     31 HMC1        2.7160   -6.4650   -0.3840 hc        1 NB1      0.036700
     32 HMC2        2.3100   -5.8350   -2.0340 hc        1 NB1      0.036700
     33 HMC3        0.9840   -6.2660   -0.8790 hc        1 NB1      0.036700
@<TRIPOS>BOND
     1    1    2 1   
     2    1   13 1   
     3    1   15 1   
     4    1   17 1   
     5    2    3 1   
     6    2   10 1   
     7    2   18 1   
     8    3    4 1   
     9    3   11 1   
    10    3   19 1   
    11    4    5 1   
    12    4   12 1   
    13    4   20 1   
    14    5    6 1   
    15    5   13 1   
    16    5   22 1   
    17    6   14 1   
    18    6   24 1   
    19    6   25 1   
    20    7    8 1   
    21    7   10 2   
    22    7   15 1   
    23    8   16 1   
    24    8   27 1   
    25    8   28 1   
    26    9   16 1   
    27    9   31 1   
    28    9   32 1   
    29    9   33 1   
    30   11   21 1   
    31   12   23 1   
    32   14   26 1   
    33   16   29 1   
    34   16   30 1   
@<TRIPOS>SUBSTRUCTURE
     1 NB1         1 TEMP              0 ****  ****    0 ROOT
