@<TRIPOS>MOLECULE
NB8
   51    53     1     0     0
SMALL
bcc


@<TRIPOS>ATOM
      1 O2P        -2.0100    0.1450    2.7450 o         1 NB8     -0.813500
      2 P          -1.7580   -0.2700    1.3650 p5        1 NB8      1.457800
      3 O1P        -1.1420   -1.5020    0.8340 o         1 NB8     -0.813500
      4 O3P        -3.1420    0.0710    0.4410 os        1 NB8     -0.512500
      5 C          -4.1660   -0.7360    0.6910 c         1 NB8      0.633100
      6 O          -3.9570   -1.6270    1.5290 o         1 NB8     -0.587000
      7 CA         -5.4500   -0.5030   -0.0930 c3        1 NB8      0.112500
      8 N          -6.5360   -1.3920    0.2740 n3        1 NB8     -0.910800
      9 CB         -5.8200    0.9780    0.0380 c3        1 NB8     -0.150400
     10 CG         -7.1190    1.3670   -0.6180 c         1 NB8      0.606100
     11 OD1        -7.8070    2.3110   -0.1900 o         1 NB8     -0.592100
     12 ND2        -7.4740    0.7540   -1.8600 n         1 NB8     -0.353400
     13 OAJ        -8.7430    0.9560   -2.2350 oh        1 NB8     -0.446100
     14 O5'        -0.8740    0.9180    0.6140 os        1 NB8     -0.563200
     15 C5'         0.5070    0.7740    0.6550 c3        1 NB8      0.198400
     16 C4'         1.0480    0.1640   -0.6510 c3        1 NB8      0.063100
     17 C3'         1.3840   -1.3380   -0.5410 c3        1 NB8      0.112100
     18 O3'         0.5550   -2.0990   -1.3900 oh        1 NB8     -0.633800
     19 C2'         2.8420   -1.4760   -1.0260 c3        1 NB8      0.111100
     20 O2'         2.9880   -2.0750   -2.2910 oh        1 NB8     -0.586800
     21 C1'         3.3690   -0.0020   -1.1000 c3        1 NB8      0.212800
     22 O4'         2.2400    0.8680   -1.0450 os        1 NB8     -0.417600
     23 N9          4.3050    0.3350   -0.0450 na        1 NB8     -0.268000
     24 C4          5.6780    0.5750   -0.1980 ca        1 NB8      0.455800
     25 N3          6.4930    0.4980   -1.2940 nb        1 NB8     -0.719000
     26 C2          7.7770    0.8110   -1.0140 ca        1 NB8      0.668900
     27 N1          8.3580    1.1770    0.1630 nb        1 NB8     -0.799000
     28 C6          7.5510    1.2380    1.2720 ca        1 NB8      0.734200
     29 N6          8.0770    1.5180    2.5190 nh        1 NB8     -0.946500
     30 C5          6.1550    0.9520    1.1310 ca        1 NB8     -0.221200
     31 N7          5.0850    0.9610    2.0390 nc        1 NB8     -0.562100
     32 C8          4.0140    0.6030    1.3140 cd        1 NB8      0.427700
     33 HA         -5.1860   -0.7240   -1.1730 h1        1 NB8      0.086700
     34 HN1        -6.2030   -2.3390    0.2900 hn        1 NB8      0.363300
     35 HN2        -6.8790   -1.1650    1.1890 hn        1 NB8      0.363300
     36 HB1C       -5.8850    1.2650    1.1230 hc        1 NB8      0.104700
     37 HB2C       -4.9880    1.5830   -0.4190 hc        1 NB8      0.104700
     38 HD2        -7.3160   -0.2490   -1.8710 hn        1 NB8      0.315500
     39 HAJ        -8.8300    1.9200   -2.3750 ho        1 NB8      0.427000
     40 H5'1        0.9520    1.8040    0.7750 h1        1 NB8      0.026200
     41 H5'2        0.8020    0.1370    1.5360 h1        1 NB8      0.026200
     42 H4'         0.3080    0.3420   -1.4800 h1        1 NB8      0.096700
     43 H3'         1.2870   -1.7000    0.5190 h1        1 NB8      0.088700
     44 HB         -0.2690   -2.2610   -0.8960 ho        1 NB8      0.479000
     45 H2'         3.4500   -2.1110   -0.3290 h1        1 NB8      0.088700
     46 HC          2.1780   -1.9180   -2.7960 ho        1 NB8      0.427000
     47 H1'         3.8750    0.1930   -2.0930 h2        1 NB8      0.115700
     48 H8          2.9820    0.5250    1.6890 h5        1 NB8      0.087800
     49 H2          8.4740    0.7700   -1.8770 h5        1 NB8      0.043100
     50 H61N        8.9870    1.9050    2.5750 hn        1 NB8      0.429800
     51 H62N        7.4290    1.7610    3.2300 hn        1 NB8      0.429800
@<TRIPOS>BOND
     1    1    2 1   
     2    2    3 1   
     3    2    4 1   
     4    2   14 1   
     5    4    5 1   
     6    5    6 2   
     7    5    7 1   
     8    7    8 1   
     9    7    9 1   
    10    7   33 1   
    11    8   34 1   
    12    8   35 1   
    13    9   10 1   
    14    9   36 1   
    15    9   37 1   
    16   10   11 2   
    17   10   12 1   
    18   12   13 1   
    19   12   38 1   
    20   13   39 1   
    21   14   15 1   
    22   15   16 1   
    23   15   40 1   
    24   15   41 1   
    25   16   17 1   
    26   16   22 1   
    27   16   42 1   
    28   17   18 1   
    29   17   19 1   
    30   17   43 1   
    31   18   44 1   
    32   19   20 1   
    33   19   21 1   
    34   19   45 1   
    35   20   46 1   
    36   21   22 1   
    37   21   23 1   
    38   21   47 1   
    39   23   24 1   
    40   23   32 1   
    41   24   25 ar  
    42   24   30 ar  
    43   25   26 ar  
    44   26   27 ar  
    45   26   49 1   
    46   27   28 ar  
    47   28   29 1   
    48   28   30 ar  
    49   29   50 1   
    50   29   51 1   
    51   30   31 1   
    52   31   32 2   
    53   32   48 1   
@<TRIPOS>SUBSTRUCTURE
     1 NB8         1 TEMP              0 ****  ****    0 ROOT
