@<TRIPOS>MOLECULE
NBA
   43    42     1     0     0
SMALL
bcc


@<TRIPOS>ATOM
      1 O4          0.1660    0.6380   -0.1920 oh        1 NBA     -0.633800
      2 C4          1.4630    0.1140   -0.2080 c3        1 NBA      0.362900
      3 C5          1.8440   -0.1930    1.2600 c3        1 NBA     -0.152400
      4 C6          3.3560   -0.3130    1.3500 c3        1 NBA      0.110800
      5 N7          3.8420   -0.2420    2.7760 n4        1 NBA     -0.765000
      6 C8          5.3290   -0.2570    2.8430 c3        1 NBA      0.105800
      7 C9          5.8800   -0.1440    4.2680 c3        1 NBA     -0.138400
      8 C10         7.4090   -0.1450    4.1970 c3        1 NBA      0.109800
      9 N11         8.0560   -0.0320    5.5450 n4        1 NBA     -0.764000
     10 C12         9.5520   -0.0280    5.4400 c3        1 NBA      0.109800
     11 C13        10.2470    0.0860    6.8000 c3        1 NBA     -0.138400
     12 C14        11.7610    0.0820    6.5730 c3        1 NBA      0.101800
     13 N15        12.5520    0.1890    7.8340 n4        1 NBA     -0.756000
     14 C16        14.0170    0.1830    7.5670 c3        1 NBA      0.075100
     15 O4L         2.2860    1.1470   -0.6980 oh        1 NBA     -0.633800
     16 HO4        -0.3200    0.3090   -0.9620 ho        1 NBA      0.459500
     17 HC4         1.5990   -0.7900   -0.8610 h2        1 NBA      0.085700
     18 HC51        1.3350   -1.1410    1.5680 hc        1 NBA      0.092200
     19 HC52        1.4480    0.6440    1.8950 hc        1 NBA      0.092200
     20 HC61        3.7020   -1.2940    0.9170 hx        1 NBA      0.127200
     21 HC62        3.8370    0.5370    0.7750 hx        1 NBA      0.127200
     22 HN7         3.4550   -1.0370    3.3000 hn        1 NBA      0.459800
     23 HC81        5.6830   -1.2200    2.3680 hx        1 NBA      0.123700
     24 HC82        5.7070    0.6050    2.2160 hx        1 NBA      0.123700
     25 HC91        5.5190   -1.0090    4.8890 hc        1 NBA      0.094700
     26 HC92        5.5130    0.8040    4.7480 hc        1 NBA      0.094700
     27 H101        7.7650    0.7270    3.5710 hx        1 NBA      0.126700
     28 H102        7.7720   -1.1030    3.7210 hx        1 NBA      0.126700
     29 HN11        7.7440    0.8360    6.0020 hn        1 NBA      0.465800
     30 H121        9.8620   -0.9870    4.9290 hx        1 NBA      0.127200
     31 H122        9.8480    0.8420    4.7830 hx        1 NBA      0.127200
     32 H131        9.9370    1.0360    7.3160 hc        1 NBA      0.095700
     33 H132        9.9540   -0.7770    7.4590 hc        1 NBA      0.095700
     34 H141       12.0550    0.9520    5.9120 hx        1 NBA      0.125700
     35 H142       12.0720   -0.8740    6.0570 hx        1 NBA      0.125700
     36 HN51       12.3050    1.0610    8.3250 hn        1 NBA      0.466800
     37 H161       14.5630    0.2650    8.5510 hx        1 NBA      0.130033
     38 H162       14.2900    1.0570    6.9150 hx        1 NBA      0.130033
     39 H163       14.3080   -0.7770    7.0590 hx        1 NBA      0.130033
     40 HOL4        1.7460    1.9390   -0.8540 ho        1 NBA      0.459500
     41 H72         3.4780    0.6220    3.2010 hn        1 NBA      0.459800
     42 H112        7.7570   -0.8220    6.1340 hn        1 NBA      0.465800
     43 H152       12.3220   -0.5990    8.4550 hn        1 NBA      0.466800
@<TRIPOS>BOND
     1    1    2 1   
     2    1   16 1   
     3    2    3 1   
     4    2   15 1   
     5    2   17 1   
     6    3    4 1   
     7    3   18 1   
     8    3   19 1   
     9    4    5 1   
    10    4   20 1   
    11    4   21 1   
    12    5    6 1   
    13    5   22 1   
    14    5   41 1   
    15    6    7 1   
    16    6   23 1   
    17    6   24 1   
    18    7    8 1   
    19    7   25 1   
    20    7   26 1   
    21    8    9 1   
    22    8   27 1   
    23    8   28 1   
    24    9   10 1   
    25    9   29 1   
    26    9   42 1   
    27   10   11 1   
    28   10   30 1   
    29   10   31 1   
    30   11   12 1   
    31   11   32 1   
    32   11   33 1   
    33   12   13 1   
    34   12   34 1   
    35   12   35 1   
    36   13   14 1   
    37   13   36 1   
    38   13   43 1   
    39   14   37 1   
    40   14   38 1   
    41   14   39 1   
    42   15   40 1   
@<TRIPOS>SUBSTRUCTURE
     1 NBA         1 TEMP              0 ****  ****    0 ROOT
