@<TRIPOS>MOLECULE
NBA
   43    42     1     0     0
SMALL
bcc


@<TRIPOS>ATOM
      1 O4          0.1720    0.6350   -0.2030 oh        1 NBA     -0.633800
      2 C4          1.4670    0.1050   -0.2140 c3        1 NBA      0.362900
      3 C5          1.8460   -0.1920    1.2570 c3        1 NBA     -0.152400
      4 C6          3.3570   -0.3170    1.3490 c3        1 NBA      0.110800
      5 N7          3.8420   -0.2380    2.7750 ny        1 NBA     -0.765000
      6 C8          5.3290   -0.2590    2.8440 c3        1 NBA      0.105800
      7 C9          5.8790   -0.1380    4.2680 c3        1 NBA     -0.138400
      8 C10         7.4080   -0.1450    4.1990 c3        1 NBA      0.109800
      9 N11         8.0550   -0.0250    5.5470 ny        1 NBA     -0.764000
     10 C12         9.5500   -0.0280    5.4430 c3        1 NBA      0.109800
     11 C13        10.2440    0.0930    6.8020 c3        1 NBA     -0.138400
     12 C14        11.7590    0.0820    6.5770 c3        1 NBA      0.101800
     13 N15        12.5490    0.1950    7.8380 ny        1 NBA     -0.756000
     14 C16        14.0140    0.1800    7.5730 c3        1 NBA      0.075100
     15 O4L         2.2950    1.1310   -0.7110 oh        1 NBA     -0.633800
     16 HO4        -0.3150    0.3020   -0.9710 ho        1 NBA      0.459500
     17 HC4         1.5990   -0.8050   -0.8600 h2        1 NBA      0.085700
     18 HC51        1.3330   -1.1360    1.5720 hc        1 NBA      0.092200
     19 HC52        1.4530    0.6520    1.8850 hc        1 NBA      0.092200
     20 HC61        3.7000   -1.3020    0.9230 hx        1 NBA      0.127200
     21 HC62        3.8420    0.5270    0.7690 hx        1 NBA      0.127200
     22 HN7         3.4520   -1.0280    3.3040 hn        1 NBA      0.459800
     23 HC81        5.7110    0.5980    2.2110 hx        1 NBA      0.123700
     24 HC82        5.6800   -1.2260    2.3760 hx        1 NBA      0.123700
     25 HC91        5.5160    0.8150    4.7410 hc        1 NBA      0.094700
     26 HC92        5.5140   -0.9970    4.8950 hc        1 NBA      0.094700
     27 H101        7.7680    0.7210    3.5670 hx        1 NBA      0.126700
     28 H102        7.7680   -1.1080    3.7290 hx        1 NBA      0.126700
     29 HN11        7.7520   -0.8090    6.1410 hn        1 NBA      0.465800
     30 H121        9.8570   -0.9920    4.9390 hx        1 NBA      0.127200
     31 H122        9.8500    0.8370    4.7790 hx        1 NBA      0.127200
     32 H131        9.9470   -0.7640    7.4670 hc        1 NBA      0.095700
     33 H132        9.9380    1.0480    7.3110 hc        1 NBA      0.095700
     34 H141       12.0570    0.9450    5.9110 hx        1 NBA      0.125700
     35 H142       12.0660   -0.8800    6.0680 hx        1 NBA      0.125700
     36 HN51       12.3060    1.0700    8.3220 hn        1 NBA      0.466800
     37 H161       14.3020   -0.7840    7.0720 hx        1 NBA      0.130033
     38 H162       14.5590    0.2670    8.5560 hx        1 NBA      0.130033
     39 H163       14.2910    1.0490    6.9150 hx        1 NBA      0.130033
     40 HOL4        1.7590    1.9230   -0.8740 ho        1 NBA      0.459500
     41 H72         3.4820    0.6300    3.1940 hn        1 NBA      0.459800
     42 H112        7.7450    0.8480    5.9970 hn        1 NBA      0.465800
     43 H152       12.3150   -0.5890    8.4650 hn        1 NBA      0.466800
@<TRIPOS>BOND
     1    1    2 1   
     2    1   16 1   
     3    2    3 1   
     4    2   15 1   
     5    2   17 1   
     6    3    4 1   
     7    3   18 1   
     8    3   19 1   
     9    4    5 1   
    10    4   20 1   
    11    4   21 1   
    12    5    6 1   
    13    5   22 1   
    14    5   41 1   
    15    6    7 1   
    16    6   23 1   
    17    6   24 1   
    18    7    8 1   
    19    7   25 1   
    20    7   26 1   
    21    8    9 1   
    22    8   27 1   
    23    8   28 1   
    24    9   10 1   
    25    9   29 1   
    26    9   42 1   
    27   10   11 1   
    28   10   30 1   
    29   10   31 1   
    30   11   12 1   
    31   11   32 1   
    32   11   33 1   
    33   12   13 1   
    34   12   34 1   
    35   12   35 1   
    36   13   14 1   
    37   13   36 1   
    38   13   43 1   
    39   14   37 1   
    40   14   38 1   
    41   14   39 1   
    42   15   40 1   
@<TRIPOS>SUBSTRUCTURE
     1 NBA         1 TEMP              0 ****  ****    0 ROOT
