@<TRIPOS>MOLECULE
NBA
   43    42     1     0     0
SMALL
bcc


@<TRIPOS>ATOM
      1 O4          0.1740    0.6560   -0.2030 oh        1 NBA     -0.633800
      2 C4          1.4650    0.1160   -0.2100 c3        1 NBA      0.362900
      3 C5          1.8420   -0.1730    1.2620 c3        1 NBA     -0.152400
      4 C6          3.3520   -0.3100    1.3550 c3        1 NBA      0.110800
      5 N7          3.8390   -0.2210    2.7800 n4        1 NBA     -0.765000
      6 C8          5.3260   -0.2560    2.8470 c3        1 NBA      0.105800
      7 C9          5.8780   -0.1240    4.2700 c3        1 NBA     -0.138400
      8 C10         7.4070   -0.1480    4.2000 c3        1 NBA      0.109800
      9 N11         8.0560   -0.0170    5.5460 n4        1 NBA     -0.764000
     10 C12         9.5510   -0.0390    5.4420 c3        1 NBA      0.109800
     11 C13        10.2470    0.0940    6.7980 c3        1 NBA     -0.138400
     12 C14        11.7610    0.0610    6.5730 c3        1 NBA      0.101800
     13 N15        12.5530    0.1840    7.8320 n4        1 NBA     -0.756000
     14 C16        14.0180    0.1470    7.5660 c3        1 NBA      0.075100
     15 O4L         2.3010    1.1310   -0.7160 oh        1 NBA     -0.633800
     16 HO4        -0.3150    0.3210   -0.9680 ho        1 NBA      0.459500
     17 HC4         1.5900   -0.8000   -0.8490 h2        1 NBA      0.085700
     18 HC51        1.3210   -1.1090    1.5850 hc        1 NBA      0.092200
     19 HC52        1.4570    0.6790    1.8840 hc        1 NBA      0.092200
     20 HC61        3.6850   -1.3030    0.9390 hx        1 NBA      0.127200
     21 HC62        3.8440    0.5230    0.7660 hx        1 NBA      0.127200
     22 HN7         3.4410   -1.0010    3.3170 hn        1 NBA      0.459800
     23 HC81        5.7160    0.5890    2.2040 hx        1 NBA      0.123700
     24 HC82        5.6660   -1.2320    2.3910 hx        1 NBA      0.123700
     25 HC91        5.5250    0.8390    4.7320 hc        1 NBA      0.094700
     26 HC92        5.5040   -0.9710    4.9080 hc        1 NBA      0.094700
     27 H101        7.7760    0.7050    3.5560 hx        1 NBA      0.126700
     28 H102        7.7560   -1.1210    3.7440 hx        1 NBA      0.126700
     29 HN11        7.7440   -0.7890    6.1510 hn        1 NBA      0.465800
     30 H121        9.8470   -1.0140    4.9520 hx        1 NBA      0.127200
     31 H122        9.8610    0.8120    4.7650 hx        1 NBA      0.127200
     32 H131        9.9400   -0.7480    7.4770 hc        1 NBA      0.095700
     33 H132        9.9530    1.0610    7.2930 hc        1 NBA      0.095700
     34 H141       12.0690    0.9100    5.8930 hx        1 NBA      0.125700
     35 H142       12.0570   -0.9120    6.0790 hx        1 NBA      0.125700
     36 HN51       12.3210    1.0710    8.3020 hn        1 NBA      0.466800
     37 H161       14.2930   -0.8290    7.0810 hx        1 NBA      0.130033
     38 H162       14.5650    0.2440    8.5480 hx        1 NBA      0.130033
     39 H163       14.3060    1.0010    6.8940 hx        1 NBA      0.130033
     40 HOL4        1.7710    1.9270   -0.8850 ho        1 NBA      0.459500
     41 H72         3.4870    0.6550    3.1890 hn        1 NBA      0.459800
     42 H112        7.7570    0.8660    5.9840 hn        1 NBA      0.465800
     43 H152       12.3100   -0.5860    8.4710 hn        1 NBA      0.466800
@<TRIPOS>BOND
     1    1    2 1   
     2    1   16 1   
     3    2    3 1   
     4    2   15 1   
     5    2   17 1   
     6    3    4 1   
     7    3   18 1   
     8    3   19 1   
     9    4    5 1   
    10    4   20 1   
    11    4   21 1   
    12    5    6 1   
    13    5   22 1   
    14    5   41 1   
    15    6    7 1   
    16    6   23 1   
    17    6   24 1   
    18    7    8 1   
    19    7   25 1   
    20    7   26 1   
    21    8    9 1   
    22    8   27 1   
    23    8   28 1   
    24    9   10 1   
    25    9   29 1   
    26    9   42 1   
    27   10   11 1   
    28   10   30 1   
    29   10   31 1   
    30   11   12 1   
    31   11   32 1   
    32   11   33 1   
    33   12   13 1   
    34   12   34 1   
    35   12   35 1   
    36   13   14 1   
    37   13   36 1   
    38   13   43 1   
    39   14   37 1   
    40   14   38 1   
    41   14   39 1   
    42   15   40 1   
@<TRIPOS>SUBSTRUCTURE
     1 NBA         1 TEMP              0 ****  ****    0 ROOT
