@<TRIPOS>MOLECULE
NBA
   40    39     1     0     0
SMALL
bcc


@<TRIPOS>ATOM
      1 O4          0.6060    0.4140   -7.3490 oh        1 NBA     -0.632800
      2 C4         -0.2070    0.5080   -6.1980 c3        1 NBA      0.332900
      3 C5          0.6500    0.1140   -4.9990 c3        1 NBA     -0.110400
      4 C6         -0.1700    0.2630   -3.7200 c3        1 NBA      0.163800
      5 N7          0.5190   -0.2430   -2.5500 n3        1 NBA     -0.823200
      6 C8         -0.2020    0.0080   -1.3180 c3        1 NBA      0.165800
      7 C9          0.6090   -0.3410   -0.0720 c3        1 NBA     -0.088400
      8 C10        -0.2530   -0.0940    1.1650 c3        1 NBA      0.165800
      9 N11         0.4190   -0.4450    2.4010 n3        1 NBA     -0.823200
     10 C12        -0.3240   -0.0510    3.5800 c3        1 NBA      0.165800
     11 C13         0.4650   -0.2420    4.8740 c3        1 NBA     -0.088400
     12 C14        -0.4170    0.1500    6.0570 c3        1 NBA      0.162800
     13 N15         0.2320   -0.0440    7.3390 n3        1 NBA     -0.826200
     14 C16        -0.5090    0.4970    8.4470 c3        1 NBA      0.153100
     15 O4L        -1.2910   -0.3550   -6.4460 oh        1 NBA     -0.632800
     16 HO4         0.0500    0.6160   -8.1110 ho        1 NBA      0.416500
     17 HC4        -0.6610    1.5330   -6.0830 h2        1 NBA      0.068700
     18 HC51        1.5550    0.7720   -4.9740 hc        1 NBA      0.067200
     19 HC52        1.0020   -0.9430   -5.1260 hc        1 NBA      0.067200
     20 HC61       -1.1260   -0.3260   -3.8340 h1        1 NBA      0.035700
     21 HC62       -0.4610    1.3500   -3.6090 h1        1 NBA      0.035700
     22 HN7         1.4500    0.1260   -2.5000 hn        1 NBA      0.356800
     23 HC81       -1.1330   -0.6280   -1.3420 h1        1 NBA      0.030200
     24 HC82       -0.5390    1.0850   -1.2360 h1        1 NBA      0.030200
     25 HC91        1.5360    0.2880   -0.0270 hc        1 NBA      0.053700
     26 HC92        0.9280   -1.4150   -0.1090 hc        1 NBA      0.053700
     27 H101       -1.1820   -0.7290    1.0990 h1        1 NBA      0.029200
     28 H102       -0.5890    0.9870    1.1570 h1        1 NBA      0.029200
     29 HN11        1.3470   -0.0660    2.4210 hn        1 NBA      0.355800
     30 H121       -1.2520   -0.6910    3.6190 h1        1 NBA      0.029200
     31 H122       -0.6680    1.0260    3.5260 h1        1 NBA      0.029200
     32 H131        1.3900    0.3910    4.8570 hc        1 NBA      0.053700
     33 H132        0.7880   -1.3110    4.9730 hc        1 NBA      0.053700
     34 H141       -1.3440   -0.4910    6.0530 h1        1 NBA      0.028700
     35 H142       -0.7550    1.2210    5.9120 h1        1 NBA      0.028700
     36 HN51        1.1640    0.3250    7.3210 hn        1 NBA      0.356800
     37 H161        0.0590    0.2900    9.3920 h1        1 NBA      0.029367
     38 H162       -0.6920    1.6050    8.3750 h1        1 NBA      0.029367
     39 H163       -1.5060   -0.0160    8.5060 h1        1 NBA      0.029367
     40 HOL4       -0.9620   -1.2630   -6.4420 ho        1 NBA      0.416500
@<TRIPOS>BOND
     1    1    2 1   
     2    1   16 1   
     3    2    3 1   
     4    2   15 1   
     5    2   17 1   
     6    3    4 1   
     7    3   18 1   
     8    3   19 1   
     9    4    5 1   
    10    4   20 1   
    11    4   21 1   
    12    5    6 1   
    13    5   22 1   
    14    6    7 1   
    15    6   23 1   
    16    6   24 1   
    17    7    8 1   
    18    7   25 1   
    19    7   26 1   
    20    8    9 1   
    21    8   27 1   
    22    8   28 1   
    23    9   10 1   
    24    9   29 1   
    25   10   11 1   
    26   10   30 1   
    27   10   31 1   
    28   11   12 1   
    29   11   32 1   
    30   11   33 1   
    31   12   13 1   
    32   12   34 1   
    33   12   35 1   
    34   13   14 1   
    35   13   36 1   
    36   14   37 1   
    37   14   38 1   
    38   14   39 1   
    39   15   40 1   
@<TRIPOS>SUBSTRUCTURE
     1 NBA         1 TEMP              0 ****  ****    0 ROOT
