@<TRIPOS>MOLECULE
NBB
   29    29     1     0     0
SMALL
bcc


@<TRIPOS>ATOM
      1 O1S        -2.1260   -0.8320   -0.6870 o         1 NBB     -0.655800
      2 S          -1.0420   -0.0060   -0.3160 sy        1 NBB      1.516200
      3 O2S        -1.3350    1.3320    0.0290 o         1 NBB     -0.655800
      4 N10        -0.2350   -0.7310    0.8790 n3        1 NBB     -0.921100
      5 C11         0.5280   -0.0510    1.8860 c3        1 NBB      0.224800
      6 C12         0.1970   -0.4760    3.3170 c3        1 NBB     -0.095400
      7 C13         1.0570    0.2930    4.2980 c3        1 NBB     -0.079400
      8 C14         0.7590   -0.1080    5.7190 c3        1 NBB     -0.093100
      9 C4          0.0730    0.0040   -1.5860 ca        1 NBB     -0.379500
     10 C5          0.9140    1.1040   -1.7930 ca        1 NBB     -0.017500
     11 C6          1.8170    1.1240   -2.8520 ca        1 NBB     -0.157000
     12 C1          1.8890    0.0370   -3.7240 ca        1 NBB     -0.067000
     13 C2          1.0520   -1.0630   -3.5370 ca        1 NBB     -0.157000
     14 C3          0.1510   -1.0750   -2.4750 ca        1 NBB     -0.017500
     15 H10        -0.2520   -1.7160    0.9910 hn        1 NBB      0.447800
     16 H111        0.3440    1.0600    1.7870 h1        1 NBB      0.049700
     17 H112        1.6290   -0.2350    1.7080 h1        1 NBB      0.049700
     18 H121        0.3740   -1.5760    3.4430 hc        1 NBB      0.048700
     19 H122       -0.8870   -0.2840    3.5350 hc        1 NBB      0.048700
     20 H131        0.8760    1.3930    4.1710 hc        1 NBB      0.041700
     21 H132        2.1410    0.1070    4.0730 hc        1 NBB      0.041700
     22 H141        1.4010    0.4690    6.4270 hc        1 NBB      0.035367
     23 H142       -0.3110    0.0920    5.9700 hc        1 NBB      0.035367
     24 H143        0.9560   -1.1970    5.8720 hc        1 NBB      0.035367
     25 H5          0.8420    1.9720   -1.1130 ha        1 NBB      0.152000
     26 H6          2.4690    1.9970   -3.0030 ha        1 NBB      0.141000
     27 H1          2.6030    0.0500   -4.5630 ha        1 NBB      0.137000
     28 H2          1.0990   -1.9170   -4.2280 ha        1 NBB      0.141000
     29 H3         -0.5280   -1.9360   -2.3390 ha        1 NBB      0.152000
@<TRIPOS>BOND
     1    1    2 2   
     2    2    3 2   
     3    2    4 1   
     4    2    9 1   
     5    4    5 1   
     6    4   15 1   
     7    5    6 1   
     8    5   16 1   
     9    5   17 1   
    10    6    7 1   
    11    6   18 1   
    12    6   19 1   
    13    7    8 1   
    14    7   20 1   
    15    7   21 1   
    16    8   22 1   
    17    8   23 1   
    18    8   24 1   
    19    9   10 ar  
    20    9   14 ar  
    21   10   11 ar  
    22   10   25 1   
    23   11   12 ar  
    24   11   26 1   
    25   12   13 ar  
    26   12   27 1   
    27   13   14 ar  
    28   13   28 1   
    29   14   29 1   
@<TRIPOS>SUBSTRUCTURE
     1 NBB         1 TEMP              0 ****  ****    0 ROOT
