@<TRIPOS>MOLECULE
NBB
   30    30     1     0     0
SMALL
bcc


@<TRIPOS>ATOM
      1 O1S         1.5670   -0.1810    0.4470 o         1 NBB     -0.569800
      2 S           2.5970    0.5190   -0.1480 sy        1 NBB      1.487200
      3 O2S         3.8340    0.6370    0.4530 o         1 NBB     -0.569800
      4 N10         3.0110   -0.6240   -1.6220 n4        1 NBB     -0.697900
      5 C11         3.5300   -1.9260   -1.1410 c3        1 NBB      0.091800
      6 C12         3.8910   -2.9000   -2.2550 c3        1 NBB     -0.102400
      7 C13         4.4100   -4.1920   -1.6540 c3        1 NBB     -0.078400
      8 C14         4.7760   -5.1770   -2.7340 c3        1 NBB     -0.099100
      9 C4          2.1410    1.7920   -1.0100 ca        1 NBB     -0.547500
     10 C5          3.0640    2.8020   -1.3630 ca        1 NBB      0.008000
     11 C6          2.6570    3.9400   -2.0430 ca        1 NBB     -0.145000
     12 C1          1.3110    4.1060   -2.3870 ca        1 NBB      0.005000
     13 C2          0.3780    3.1220   -2.0450 ca        1 NBB     -0.145000
     14 C3          0.7870    1.9840   -1.3650 ca        1 NBB      0.008000
     15 H10         3.7080   -0.1990   -2.2290 hn        1 NBB      0.442800
     16 H111        4.4470   -1.7160   -0.5130 hx        1 NBB      0.111700
     17 H112        2.7350   -2.3860   -0.4810 hx        1 NBB      0.111700
     18 H121        4.6770   -2.4550   -2.9210 hc        1 NBB      0.061700
     19 H122        2.9900   -3.1180   -2.8880 hc        1 NBB      0.061700
     20 H131        5.3100   -3.9770   -1.0190 hc        1 NBB      0.054700
     21 H132        3.6270   -4.6380   -0.9860 hc        1 NBB      0.054700
     22 H141        5.1560   -6.1220   -2.2740 hc        1 NBB      0.049700
     23 H142        3.8870   -5.4260   -3.3640 hc        1 NBB      0.049700
     24 H143        5.5740   -4.7630   -3.3970 hc        1 NBB      0.049700
     25 H5          4.1250    2.6890   -1.0700 ha        1 NBB      0.168000
     26 H6          3.3930    4.7200   -2.3030 ha        1 NBB      0.177000
     27 H1          0.9850    5.0150   -2.9230 ha        1 NBB      0.174000
     28 H2         -0.6860    3.2550   -2.3070 ha        1 NBB      0.177000
     29 H3          0.0390    1.2220   -1.0740 ha        1 NBB      0.168000
     30 H102        2.1840   -0.7940   -2.1920 hn        1 NBB      0.442800
@<TRIPOS>BOND
     1    1    2 2   
     2    2    3 2   
     3    2    4 1   
     4    2    9 1   
     5    4    5 1   
     6    4   15 1   
     7    4   30 1   
     8    5    6 1   
     9    5   16 1   
    10    5   17 1   
    11    6    7 1   
    12    6   18 1   
    13    6   19 1   
    14    7    8 1   
    15    7   20 1   
    16    7   21 1   
    17    8   22 1   
    18    8   23 1   
    19    8   24 1   
    20    9   10 ar  
    21    9   14 ar  
    22   10   11 ar  
    23   10   25 1   
    24   11   12 ar  
    25   11   26 1   
    26   12   13 ar  
    27   12   27 1   
    28   13   14 ar  
    29   13   28 1   
    30   14   29 1   
@<TRIPOS>SUBSTRUCTURE
     1 NBB         1 TEMP              0 ****  ****    0 ROOT
