@<TRIPOS>MOLECULE
NBB
   29    25     1     0     0
SMALL
bcc


@<TRIPOS>ATOM
      1 O1S        -2.0240    1.0890    0.9680 o         1 NBB     -0.935000
      2 S          -0.5880    1.0780    0.9500 ss        1 NBB      2.855000
      3 O2S        -0.2900    1.0870    2.3550 o         1 NBB     -0.935000
      4 N10        -0.0120   -0.2790    0.2270 n2        1 NBB     -0.894000
      5 C11        -0.8270   -1.4410    0.1440 c3        1 NBB     -0.011000
      6 C12         0.0180   -2.6690    0.3970 c3        1 NBB     -0.174000
      7 C13        -0.6210   -3.8660   -0.2700 c3        1 NBB     -0.158000
      8 C14         0.0940   -5.1270    0.1640 c3        1 NBB     -0.211000
      9 C4          0.0560    2.5210    0.1470 c1        1 NBB     -0.824000
     10 C5          1.2120    3.1210    0.6230 c1        1 NBB     -0.018000
     11 C6          1.6790    4.2870    0.0380 c1        1 NBB     -0.112000
     12 C1          0.9900    4.8550   -1.0220 c1        1 NBB     -0.112000
     13 C2         -0.1660    4.2560   -1.4980 c1        1 NBB     -0.157000
     14 C3         -0.6320    3.0890   -0.9140 c2        1 NBB     -0.017000
     15 H10         0.8410   -0.2960   -0.0970 hn        1 NBB      0.243000
     16 H111       -1.2250   -1.4960   -0.7500 h1        1 NBB      0.089000
     17 H112       -1.5380   -1.3890    0.8150 h1        1 NBB      0.089000
     18 H121        0.9130   -2.5300    0.0300 hc        1 NBB      0.088000
     19 H122        0.0810   -2.8280    1.3600 hc        1 NBB      0.088000
     20 H131       -0.5550   -3.7720   -1.2420 hc        1 NBB      0.081000
     21 H132       -1.5630   -3.9200   -0.0120 hc        1 NBB      0.081000
     22 H141       -0.2520   -5.8900   -0.3440 hc        1 NBB      0.074667
     23 H142       -0.0590   -5.2750    1.1210 hc        1 NBB      0.074667
     24 H143        1.0550   -5.0310   -0.0020 hc        1 NBB      0.074667
     25 H5          1.6970    2.7210    1.3690 ha        1 NBB      0.152000
     26 H6          2.4930    4.7100    0.3730 ha        1 NBB      0.139000
     27 H1          1.3190    5.6770   -1.4340 ha        1 NBB      0.139000
     28 H2         -0.6510    4.6550   -2.2450 ha        1 NBB      0.141000
     29 H3         -1.4460    2.6670   -1.2490 ha        1 NBB      0.152000
@<TRIPOS>BOND
     1    1    2 1   
     2    2    3 1   
     3    4    5 1   
     4    4   15 1   
     5    5    6 1   
     6    5   16 1   
     7    5   17 1   
     8    6    7 1   
     9    6   18 1   
    10    6   19 1   
    11    7    8 1   
    12    7   20 1   
    13    7   21 1   
    14    8   22 1   
    15    8   23 1   
    16    8   24 1   
    17    9   10 1   
    18    9   14 1   
    19   10   25 1   
    20   11   12 1   
    21   11   26 1   
    22   12   27 1   
    23   13   14 1   
    24   13   28 1   
    25   14   29 1   
@<TRIPOS>SUBSTRUCTURE
     1 NBB         1 TEMP              0 ****  ****    0 ROOT
