@<TRIPOS>MOLECULE
NBB
   30    30     1     0     0
SMALL
bcc


@<TRIPOS>ATOM
      1 O1S         1.5490   -0.2340    0.4210 o         1 NBB     -0.569800
      2 S           2.5830    0.4920   -0.1350 sy        1 NBB      1.487200
      3 O2S         3.8040    0.6130    0.4950 o         1 NBB     -0.569800
      4 N10         3.0460   -0.6120   -1.6240 n4        1 NBB     -0.697900
      5 C11         3.5270   -1.9350   -1.1610 c3        1 NBB      0.091800
      6 C12         3.9190   -2.8820   -2.2870 c3        1 NBB     -0.102400
      7 C13         4.3940   -4.1990   -1.7040 c3        1 NBB     -0.078400
      8 C14         4.7900   -5.1580   -2.7970 c3        1 NBB     -0.099100
      9 C4          2.1280    1.7780   -0.9790 ca        1 NBB     -0.547500
     10 C5          3.0450    2.8080   -1.2880 ca        1 NBB      0.008000
     11 C6          2.6380    3.9560   -1.9520 ca        1 NBB     -0.145000
     12 C1          1.2980    4.1100   -2.3250 ca        1 NBB      0.005000
     13 C2          0.3710    3.1060   -2.0260 ca        1 NBB     -0.145000
     14 C3          0.7800    1.9590   -1.3620 ca        1 NBB      0.008000
     15 H10         2.2450   -0.7520   -2.2360 hn        1 NBB      0.442800
     16 H111        2.7000   -2.4010   -0.5470 hx        1 NBB      0.111700
     17 H112        4.4200   -1.7560   -0.4900 hx        1 NBB      0.111700
     18 H121        3.0420   -3.0670   -2.9630 hc        1 NBB      0.061700
     19 H122        4.7390   -2.4310   -2.9070 hc        1 NBB      0.061700
     20 H131        3.5760   -4.6510   -1.0820 hc        1 NBB      0.054700
     21 H132        5.2690   -4.0160   -1.0260 hc        1 NBB      0.054700
     22 H141        5.6210   -4.7380   -3.4130 hc        1 NBB      0.049700
     23 H142        3.9250   -5.3740   -3.4700 hc        1 NBB      0.049700
     24 H143        5.1360   -6.1220   -2.3490 hc        1 NBB      0.049700
     25 H5          4.1010    2.7040   -0.9720 ha        1 NBB      0.168000
     26 H6          3.3680    4.7520   -2.1770 ha        1 NBB      0.177000
     27 H1          0.9720    5.0260   -2.8480 ha        1 NBB      0.174000
     28 H2         -0.6880    3.2300   -2.3110 ha        1 NBB      0.177000
     29 H3          0.0370    1.1800   -1.1060 ha        1 NBB      0.168000
     30 H102        3.7760   -0.1780   -2.1850 hn        1 NBB      0.442800
@<TRIPOS>BOND
     1    1    2 2   
     2    2    3 2   
     3    2    4 1   
     4    2    9 1   
     5    4    5 1   
     6    4   15 1   
     7    4   30 1   
     8    5    6 1   
     9    5   16 1   
    10    5   17 1   
    11    6    7 1   
    12    6   18 1   
    13    6   19 1   
    14    7    8 1   
    15    7   20 1   
    16    7   21 1   
    17    8   22 1   
    18    8   23 1   
    19    8   24 1   
    20    9   10 ar  
    21    9   14 ar  
    22   10   11 ar  
    23   10   25 1   
    24   11   12 ar  
    25   11   26 1   
    26   12   13 ar  
    27   12   27 1   
    28   13   14 ar  
    29   13   28 1   
    30   14   29 1   
@<TRIPOS>SUBSTRUCTURE
     1 NBB         1 TEMP              0 ****  ****    0 ROOT
