@<TRIPOS>MOLECULE
NBB
   30    30     1     0     0
SMALL
bcc


@<TRIPOS>ATOM
      1 O1S         1.5720   -0.1480    0.4340 o         1 NBB     -0.569800
      2 S           2.5860    0.5600   -0.1790 sy        1 NBB      1.487200
      3 O2S         3.8180    0.7260    0.4200 o         1 NBB     -0.569800
      4 N10         3.0320   -0.6150   -1.6190 ny        1 NBB     -0.697900
      5 C11         3.5590   -1.8980   -1.0990 c3        1 NBB      0.091800
      6 C12         3.9430   -2.8960   -2.1840 c3        1 NBB     -0.102400
      7 C13         4.4690   -4.1670   -1.5440 c3        1 NBB     -0.078400
      8 C14         4.8570   -5.1750   -2.5950 c3        1 NBB     -0.099100
      9 C4          2.1000    1.7950   -1.0780 ca        1 NBB     -0.547500
     10 C5          2.9980    2.8180   -1.4580 ca        1 NBB      0.008000
     11 C6          2.5640    3.9260   -2.1710 ca        1 NBB     -0.145000
     12 C1          1.2160    4.0470   -2.5230 ca        1 NBB      0.005000
     13 C2          0.3060    3.0500   -2.1550 ca        1 NBB     -0.145000
     14 C3          0.7420    1.9430   -1.4410 ca        1 NBB      0.008000
     15 H10         2.2160   -0.8070   -2.1960 hn        1 NBB      0.442800
     16 H111        2.7620   -2.3500   -0.4360 hx        1 NBB      0.111700
     17 H112        4.4660   -1.6620   -0.4660 hx        1 NBB      0.111700
     18 H121        3.0530   -3.1390   -2.8210 hc        1 NBB      0.061700
     19 H122        4.7330   -2.4600   -2.8510 hc        1 NBB      0.061700
     20 H131        3.6820   -4.6040   -0.8740 hc        1 NBB      0.054700
     21 H132        5.3590   -3.9260   -0.9040 hc        1 NBB      0.054700
     22 H141        5.6590   -4.7690   -3.2580 hc        1 NBB      0.049700
     23 H142        3.9790   -5.4490   -3.2280 hc        1 NBB      0.049700
     24 H143        5.2420   -6.1040   -2.1060 hc        1 NBB      0.049700
     25 H5          4.0610    2.7410   -1.1600 ha        1 NBB      0.168000
     26 H6          3.2810    4.7160   -2.4520 ha        1 NBB      0.177000
     27 H1          0.8680    4.9310   -3.0860 ha        1 NBB      0.174000
     28 H2         -0.7600    3.1480   -2.4230 ha        1 NBB      0.177000
     29 H3          0.0130    1.1700   -1.1300 ha        1 NBB      0.168000
     30 H102        3.7330   -0.1960   -2.2260 hn        1 NBB      0.442800
@<TRIPOS>BOND
     1    1    2 2   
     2    2    3 2   
     3    2    4 1   
     4    2    9 1   
     5    4    5 1   
     6    4   15 1   
     7    4   30 1   
     8    5    6 1   
     9    5   16 1   
    10    5   17 1   
    11    6    7 1   
    12    6   18 1   
    13    6   19 1   
    14    7    8 1   
    15    7   20 1   
    16    7   21 1   
    17    8   22 1   
    18    8   23 1   
    19    8   24 1   
    20    9   10 ar  
    21    9   14 ar  
    22   10   11 ar  
    23   10   25 1   
    24   11   12 ar  
    25   11   26 1   
    26   12   13 ar  
    27   12   27 1   
    28   13   14 ar  
    29   13   28 1   
    30   14   29 1   
@<TRIPOS>SUBSTRUCTURE
     1 NBB         1 TEMP              0 ****  ****    0 ROOT
