@<TRIPOS>MOLECULE
NBE
   13    10     1     0     0
SMALL
bcc


@<TRIPOS>ATOM
      1 C1         -0.5470    0.0780   -0.9400 c1        1 NBE     -0.210000
      2 N          -1.2570    0.0970   -2.1690 n1        1 NBE      0.220000
      3 O          -1.5280   -0.9520   -2.7350 o         1 NBE     -0.195000
      4 C2          0.8390    0.0780   -0.9400 c2        1 NBE     -0.084000
      5 C3          1.5320    0.0780    0.2600 c1        1 NBE     -0.146000
      6 C4          0.8390    0.0780    1.4600 c1        1 NBE     -0.121500
      7 C5         -0.5470    0.0780    1.4600 c1        1 NBE     -0.121500
      8 C6         -1.2400    0.0780    0.2600 c1        1 NBE     -0.054000
      9 H2          1.3270    0.0780   -1.7860 ha        1 NBE      0.149000
     10 H3          2.5080    0.0780    0.2600 ha        1 NBE      0.139000
     11 H4          1.3270    0.0780    2.3060 ha        1 NBE      0.138000
     12 H5         -1.0350    0.0780    2.3060 ha        1 NBE      0.138000
     13 H6         -2.2160    0.0780    0.2600 ha        1 NBE      0.147000
@<TRIPOS>BOND
     1    1    4 1   
     2    1    8 1   
     3    2    3 1   
     4    4    5 1   
     5    4    9 1   
     6    5   10 1   
     7    6    7 1   
     8    6   11 1   
     9    7   12 1   
    10    8   13 1   
@<TRIPOS>SUBSTRUCTURE
     1 NBE         1 TEMP              0 ****  ****    0 ROOT
