@<TRIPOS>MOLECULE
NBE
   13    13     1     0     0
SMALL
bcc


@<TRIPOS>ATOM
      1 C1          0.2420    0.0000   -0.5160 ca        1 NBE     -0.070600
      2 N           0.6060    0.0010   -1.9270 ne        1 NBE      0.033900
      3 O          -0.2330    0.0010   -2.7270 o         1 NBE     -0.148300
      4 C2          1.2900    0.0000    0.4240 ca        1 NBE     -0.069000
      5 C3          1.0020   -0.0000    1.7870 ca        1 NBE     -0.149000
      6 C4         -0.3210   -0.0010    2.2290 ca        1 NBE     -0.091000
      7 C5         -1.3650   -0.0010    1.3050 ca        1 NBE     -0.149000
      8 C6         -1.0900   -0.0000   -0.0590 ca        1 NBE     -0.069000
      9 H2          2.3400    0.0010    0.0880 ha        1 NBE      0.148000
     10 H3          1.8250   -0.0000    2.5180 ha        1 NBE      0.139000
     11 H4         -0.5400   -0.0010    3.3080 ha        1 NBE      0.137000
     12 H5         -2.4090   -0.0010    1.6530 ha        1 NBE      0.139000
     13 H6         -1.9160   -0.0000   -0.7900 ha        1 NBE      0.148000
@<TRIPOS>BOND
     1    1    2 1   
     2    1    4 ar  
     3    1    8 ar  
     4    2    3 2   
     5    4    5 ar  
     6    4    9 1   
     7    5    6 ar  
     8    5   10 1   
     9    6    7 ar  
    10    6   11 1   
    11    7    8 ar  
    12    7   12 1   
    13    8   13 1   
@<TRIPOS>SUBSTRUCTURE
     1 NBE         1 TEMP              0 ****  ****    0 ROOT
