@<TRIPOS>MOLECULE
NBE
   13    13     1     0     0
SMALL
bcc


@<TRIPOS>ATOM
      1 C1         -0.0250    0.0010    0.0190 ca        1 NBE     -0.070600
      2 N          -0.7110    0.0010   -1.2660 ne        1 NBE      0.033900
      3 O          -1.8690    0.0010   -1.2890 o         1 NBE     -0.148300
      4 C2          1.3830    0.0000    0.0030 ca        1 NBE     -0.069000
      5 C3          2.0920   -0.0000    1.2020 ca        1 NBE     -0.149000
      6 C4          1.4170   -0.0010    2.4220 ca        1 NBE     -0.091000
      7 C5          0.0210   -0.0000    2.4470 ca        1 NBE     -0.149000
      8 C6         -0.6980    0.0000    1.2560 ca        1 NBE     -0.069000
      9 H2          1.9290    0.0010   -0.9540 ha        1 NBE      0.148000
     10 H3          3.1920   -0.0000    1.1840 ha        1 NBE      0.139000
     11 H4          1.9840   -0.0010    3.3650 ha        1 NBE      0.137000
     12 H5         -0.5120   -0.0010    3.4100 ha        1 NBE      0.139000
     13 H6         -1.8000    0.0000    1.2760 ha        1 NBE      0.148000
@<TRIPOS>BOND
     1    1    2 1   
     2    1    4 ar  
     3    1    8 ar  
     4    2    3 2   
     5    4    5 ar  
     6    4    9 1   
     7    5    6 ar  
     8    5   10 1   
     9    6    7 ar  
    10    6   11 1   
    11    7    8 ar  
    12    7   12 1   
    13    8   13 1   
@<TRIPOS>SUBSTRUCTURE
     1 NBE         1 TEMP              0 ****  ****    0 ROOT
