@<TRIPOS>MOLECULE
NBG
   30    30     1     0     0
SMALL
bcc


@<TRIPOS>ATOM
      1 C1          0.3560    0.0860    0.7430 c3        1 NBG      0.247500
      2 C2          1.6120   -0.2340   -0.1160 c3        1 NBG      0.086100
      3 C3          1.4080    0.3340   -1.5300 c3        1 NBG      0.108100
      4 C4          0.1010   -0.2060   -2.1330 c3        1 NBG      0.118100
      5 C5         -1.0650    0.1040   -1.1770 c3        1 NBG      0.150100
      6 C6         -2.3630   -0.5290   -1.6820 c3        1 NBG      0.135400
      7 C8         -0.2230   -0.5270    4.4530 c3        1 NBG     -0.177100
      8 N1          0.4240   -0.5000    2.0600 n         1 NBG     -0.551900
      9 O3          2.4500   -0.0840   -2.3950 oh        1 NBG     -0.608800
     10 O2          2.7680    0.4110    0.3870 oh        1 NBG     -0.602800
     11 O4         -0.1790    0.4310   -3.3660 oh        1 NBG     -0.594800
     12 O5         -0.7960   -0.4910    0.0920 os        1 NBG     -0.443600
     13 O6         -3.4290    0.2440   -1.1550 oh        1 NBG     -0.595800
     14 O7         -0.0430    1.4820    3.1380 o         1 NBG     -0.579100
     15 H1          0.2320    1.2080    0.8260 h2        1 NBG      0.103700
     16 H2          1.7840   -1.3440   -0.1700 h1        1 NBG      0.058700
     17 H3          1.3820    1.4580   -1.4880 h1        1 NBG      0.068700
     18 H4          0.1910   -1.3170   -2.2920 h1        1 NBG      0.058700
     19 H5         -1.1950    1.2160   -1.0650 h1        1 NBG      0.083700
     20 H61        -2.3760   -0.4870   -2.8050 h1        1 NBG      0.045700
     21 H62        -2.4400   -1.5920   -1.3330 h1        1 NBG      0.045700
     22 H81        -0.4260    0.1990    5.2780 hc        1 NBG      0.069700
     23 H82        -1.1100   -1.1940    4.3300 hc        1 NBG      0.069700
     24 H83         0.6650   -1.1460    4.7240 hc        1 NBG      0.069700
     25 HN1         0.2250   -1.4760    2.0870 hn        1 NBG      0.303500
     26 HO3         3.2780    0.2040   -1.9870 ho        1 NBG      0.428000
     27 HO2         2.8750    0.1410    1.3070 ho        1 NBG      0.423000
     28 HO4         0.6180    0.3390   -3.9070 ho        1 NBG      0.425000
     29 HO6        -4.2440   -0.1900   -1.4330 ho        1 NBG      0.403000
     30 C7          0.0270    0.2420    3.1800 c         1 NBG      0.650100
@<TRIPOS>BOND
     1    1    2 1   
     2    1    8 1   
     3    1   12 1   
     4    1   15 1   
     5    2    3 1   
     6    2   10 1   
     7    2   16 1   
     8    3    4 1   
     9    3    9 1   
    10    3   17 1   
    11    4    5 1   
    12    4   11 1   
    13    4   18 1   
    14    5    6 1   
    15    5   12 1   
    16    5   19 1   
    17    6   13 1   
    18    6   20 1   
    19    6   21 1   
    20    7   22 1   
    21    7   23 1   
    22    7   24 1   
    23    7   30 1   
    24    8   25 1   
    25    8   30 1   
    26    9   26 1   
    27   10   27 1   
    28   11   28 1   
    29   13   29 1   
    30   14   30 2   
@<TRIPOS>SUBSTRUCTURE
     1 NBG         1 TEMP              0 ****  ****    0 ROOT
