@<TRIPOS>MOLECULE
NBH
   65    67     1     0     0
SMALL
bcc


@<TRIPOS>ATOM
      1 C01         6.9650   -2.6380   -3.1370 c3        1 NBH     -0.095100
      2 C02         5.7180   -1.9770   -2.6070 c3        1 NBH     -0.080400
      3 C03         6.0850   -0.7130   -1.8310 c3        1 NBH      0.165800
      4 N04         4.9620   -0.1020   -1.1290 n3        1 NBH     -0.733600
      5 C05         5.3940    0.7670   -0.0390 c3        1 NBH      0.209100
      6 C06         6.0410    0.0360    1.1010 ca        1 NBH     -0.084300
      7 C07         7.2920    0.4460    1.5740 ca        1 NBH     -0.118000
      8 C08         7.8720   -0.1960    2.6670 ca        1 NBH     -0.133500
      9 C09         7.2110   -1.2540    3.2900 ca        1 NBH     -0.130000
     10 C10         5.9650   -1.6680    2.8190 ca        1 NBH     -0.133500
     11 C11         5.3800   -1.0250    1.7290 ca        1 NBH     -0.118000
     12 C12         4.0400    0.5720   -2.0380 c3        1 NBH      0.216100
     13 C13         2.7370    0.9740   -1.4140 ca        1 NBH     -0.112300
     14 C14         2.2060    2.2400   -1.6670 ca        1 NBH     -0.093500
     15 C15         0.9720    2.6220   -1.1490 ca        1 NBH     -0.171000
     16 C16         0.2330    1.7260   -0.3500 ca        1 NBH      0.065600
     17 N17        -1.0110    2.0490    0.2210 n         1 NBH     -0.466100
     18 C18        -1.7830    3.1710   -0.0230 c         1 NBH      0.669100
     19 O19        -1.4420    4.0980   -0.7800 o         1 NBH     -0.584100
     20 C20        -3.1040    3.2600    0.7360 c3        1 NBH     -0.130100
     21 C21        -3.9160    2.0190    0.6510 ca        1 NBH     -0.027300
     22 C22        -4.7790    1.8140   -0.4320 ca        1 NBH     -0.154000
     23 C23        -5.5490    0.6560   -0.5020 ca        1 NBH     -0.015000
     24 C24        -5.4760   -0.3210    0.4980 ca        1 NBH     -0.380500
     25 C25        -4.6200   -0.1000    1.5840 ca        1 NBH     -0.015000
     26 C26        -3.8450    1.0530    1.6630 ca        1 NBH     -0.154000
     27 S27        -6.4280   -1.7030    0.4220 sy        1 NBH      1.383300
     28 O28        -6.5800   -2.2440    1.7070 o         1 NBH     -0.651800
     29 O29        -7.5880   -1.4410   -0.3200 o         1 NBH     -0.651800
     30 C30        -5.3810   -2.7000   -0.4930 c3        1 NBH     -0.310600
     31 C31        -5.9920   -4.0530   -0.7450 c3        1 NBH     -0.077100
     32 C32         0.7760    0.4420   -0.0940 ca        1 NBH     -0.171000
     33 C33         2.0080    0.0810   -0.6220 ca        1 NBH     -0.093500
     34 H1          7.5300   -1.9420   -3.8040 hc        1 NBH      0.034033
     35 H2          7.6380   -2.9450   -2.3000 hc        1 NBH      0.034033
     36 H3          6.6970   -3.5490   -3.7250 hc        1 NBH      0.034033
     37 H4          5.0380   -1.7250   -3.4620 hc        1 NBH      0.045200
     38 H5          5.1660   -2.6890   -1.9400 hc        1 NBH      0.045200
     39 H6          6.8590   -0.9920   -1.0580 h1        1 NBH      0.036200
     40 H7          6.5710    0.0160   -2.5450 h1        1 NBH      0.036200
     41 H9          6.0990    1.5700   -0.4110 h1        1 NBH      0.044200
     42 H10         4.4750    1.2860    0.3650 h1        1 NBH      0.044200
     43 H11         7.8190    1.2790    1.0860 ha        1 NBH      0.135500
     44 H12         8.8550    0.1330    3.0370 ha        1 NBH      0.130000
     45 H13         7.6710   -1.7600    4.1510 ha        1 NBH      0.130000
     46 H14         5.4430   -2.5030    3.3080 ha        1 NBH      0.130000
     47 H15         4.3970   -1.3510    1.3550 ha        1 NBH      0.135500
     48 H16         4.5210    1.4840   -2.5040 h1        1 NBH      0.040700
     49 H17         3.8060   -0.1490   -2.8750 h1        1 NBH      0.040700
     50 H18         2.7660    2.9580   -2.2880 ha        1 NBH      0.141000
     51 H19         0.5830    3.6290   -1.3730 ha        1 NBH      0.149500
     52 H20        -1.4130    1.3430    0.7990 hn        1 NBH      0.319500
     53 H21        -2.8730    3.5090    1.8080 hc        1 NBH      0.091700
     54 H22        -3.6760    4.1260    0.3020 hc        1 NBH      0.091700
     55 H23        -4.8520    2.5720   -1.2280 ha        1 NBH      0.147500
     56 H24        -6.2430    0.5100   -1.3500 ha        1 NBH      0.159500
     57 H25        -4.5760   -0.8490    2.3970 ha        1 NBH      0.159500
     58 H26        -3.1880    1.2130    2.5320 ha        1 NBH      0.147500
     59 H27        -5.1320   -2.2310   -1.4820 h1        1 NBH      0.109200
     60 H28        -4.3970   -2.8440    0.0260 h1        1 NBH      0.109200
     61 H29        -5.2990   -4.6890   -1.3460 hc        1 NBH      0.053700
     62 H30        -6.1980   -4.5760    0.2220 hc        1 NBH      0.053700
     63 H31        -6.9520   -3.9500   -1.3110 hc        1 NBH      0.053700
     64 H32         0.2290   -0.2830    0.5270 ha        1 NBH      0.149500
     65 H33         2.4180   -0.9200   -0.4100 ha        1 NBH      0.141000
@<TRIPOS>BOND
     1    1    2 1   
     2    1   34 1   
     3    1   35 1   
     4    1   36 1   
     5    2    3 1   
     6    2   37 1   
     7    2   38 1   
     8    3    4 1   
     9    3   39 1   
    10    3   40 1   
    11    4    5 1   
    12    4   12 1   
    13    5    6 1   
    14    5   41 1   
    15    5   42 1   
    16    6    7 ar  
    17    6   11 ar  
    18    7    8 ar  
    19    7   43 1   
    20    8    9 ar  
    21    8   44 1   
    22    9   10 ar  
    23    9   45 1   
    24   10   11 ar  
    25   10   46 1   
    26   11   47 1   
    27   12   13 1   
    28   12   48 1   
    29   12   49 1   
    30   13   14 ar  
    31   13   33 ar  
    32   14   15 ar  
    33   14   50 1   
    34   15   16 ar  
    35   15   51 1   
    36   16   17 1   
    37   16   32 ar  
    38   17   18 1   
    39   17   52 1   
    40   18   19 2   
    41   18   20 1   
    42   20   21 1   
    43   20   53 1   
    44   20   54 1   
    45   21   22 ar  
    46   21   26 ar  
    47   22   23 ar  
    48   22   55 1   
    49   23   24 ar  
    50   23   56 1   
    51   24   25 ar  
    52   24   27 1   
    53   25   26 ar  
    54   25   57 1   
    55   26   58 1   
    56   27   28 2   
    57   27   29 2   
    58   27   30 1   
    59   30   31 1   
    60   30   59 1   
    61   30   60 1   
    62   31   61 1   
    63   31   62 1   
    64   31   63 1   
    65   32   33 ar  
    66   32   64 1   
    67   33   65 1   
@<TRIPOS>SUBSTRUCTURE
     1 NBH         1 TEMP              0 ****  ****    0 ROOT
