@<TRIPOS>MOLECULE
NBH
   66    68     1     0     0
SMALL
bcc


@<TRIPOS>ATOM
      1 C01         0.6620   -1.6610    0.1140 c3        1 NBH     -0.101100
      2 C02         2.1260   -1.3870    0.3570 c3        1 NBH     -0.100400
      3 C03         2.2770   -0.4740    1.5680 c3        1 NBH      0.099800
      4 N04         3.6960   -0.1100    1.8750 n4        1 NBH     -0.692400
      5 C05         3.7640    1.1760    2.6550 c3        1 NBH      0.171100
      6 C06         3.4780    2.3670    1.8050 ca        1 NBH     -0.175300
      7 C07         2.2490    3.0290    1.9120 ca        1 NBH     -0.107000
      8 C08         2.0080    4.1710    1.1480 ca        1 NBH     -0.118000
      9 C09         2.9860    4.6490    0.2750 ca        1 NBH     -0.084000
     10 C10         4.2110    3.9890    0.1680 ca        1 NBH     -0.118000
     11 C11         4.4600    2.8500    0.9320 ca        1 NBH     -0.107000
     12 C12         4.3970   -1.2220    2.6150 c3        1 NBH      0.183100
     13 C13         5.8770   -1.1060    2.5270 ca        1 NBH     -0.229300
     14 C14         6.6150   -0.5790    3.5920 ca        1 NBH     -0.069000
     15 C15         8.0000   -0.5100    3.5380 ca        1 NBH     -0.178500
     16 C16         8.6980   -0.9770    2.3970 ca        1 NBH      0.133600
     17 N17        10.0840   -0.9320    2.2730 n         1 NBH     -0.472100
     18 C18        11.0010   -0.4020    3.1860 c         1 NBH      0.675100
     19 O19        10.6520    0.1410    4.2450 o         1 NBH     -0.562100
     20 C20        12.4690   -0.4800    2.7930 c3        1 NBH     -0.121100
     21 C21        12.8780   -1.8080    2.2640 ca        1 NBH     -0.047300
     22 C22        13.3340   -2.8020    3.1370 ca        1 NBH     -0.154000
     23 C23        13.7500   -4.0330    2.6340 ca        1 NBH     -0.014500
     24 C24        13.7130   -4.3000    1.2610 ca        1 NBH     -0.363500
     25 C25        13.2650   -3.2950    0.3960 ca        1 NBH     -0.014500
     26 C26        12.8490   -2.0610    0.8870 ca        1 NBH     -0.154000
     27 S27        14.2640   -5.7760    0.6490 sy        1 NBH      1.381300
     28 O28        14.4840   -5.6470   -0.7270 o         1 NBH     -0.642800
     29 O29        15.3020   -6.2550    1.4540 o         1 NBH     -0.642800
     30 C30        12.8560   -6.7100    0.9180 c3        1 NBH     -0.311600
     31 C31        13.0620   -8.1400    0.4880 c3        1 NBH     -0.080100
     32 C32         7.9370   -1.5190    1.3230 ca        1 NBH     -0.178500
     33 C33         6.5550   -1.5790    1.3960 ca        1 NBH     -0.069000
     34 H1          0.1980   -2.1630    0.9970 hc        1 NBH      0.058700
     35 H2          0.1080   -0.7130   -0.0900 hc        1 NBH      0.058700
     36 H3          0.5490   -2.3320   -0.7730 hc        1 NBH      0.058700
     37 H4          2.5730   -0.9020   -0.5520 hc        1 NBH      0.061200
     38 H5          2.6650   -2.3570    0.5240 hc        1 NBH      0.061200
     39 H6          1.7130    0.4870    1.3770 hx        1 NBH      0.101700
     40 H7          1.8390   -0.9670    2.4820 hx        1 NBH      0.101700
     41 H9          3.0310    1.0990    3.5080 hx        1 NBH      0.104700
     42 H10         4.8100    1.2490    3.0800 hx        1 NBH      0.104700
     43 H11         1.4790    2.6640    2.6080 ha        1 NBH      0.138000
     44 H12         1.0440    4.6970    1.2400 ha        1 NBH      0.157000
     45 H13         2.7930    5.5530   -0.3250 ha        1 NBH      0.159000
     46 H14         4.9860    4.3720   -0.5150 ha        1 NBH      0.157000
     47 H15         5.4360    2.3460    0.8610 ha        1 NBH      0.138000
     48 H16         4.0570   -2.1950    2.1560 hx        1 NBH      0.099700
     49 H17         4.0500   -1.1880    3.6870 hx        1 NBH      0.099700
     50 H18         6.1000   -0.2240    4.5000 ha        1 NBH      0.137000
     51 H19         8.5490   -0.0920    4.4020 ha        1 NBH      0.172500
     52 H20        10.4660   -1.3740    1.4630 hn        1 NBH      0.333500
     53 H21        13.0680   -0.2270    3.7130 hc        1 NBH      0.101200
     54 H22        12.6640    0.3250    2.0310 hc        1 NBH      0.101200
     55 H23        13.3800   -2.6080    4.2200 ha        1 NBH      0.145500
     56 H24        14.1360   -4.8040    3.3250 ha        1 NBH      0.165000
     57 H25        13.2660   -3.4820   -0.6950 ha        1 NBH      0.165000
     58 H26        12.5280   -1.2750    0.1870 ha        1 NBH      0.145500
     59 H27        12.5610   -6.7020    2.0000 h1        1 NBH      0.106200
     60 H28        11.9760   -6.2940    0.3610 h1        1 NBH      0.106200
     61 H29        13.9040   -8.6030    1.0610 hc        1 NBH      0.057367
     62 H30        12.1400   -8.7410    0.6760 hc        1 NBH      0.057367
     63 H31        13.2960   -8.1910   -0.6040 hc        1 NBH      0.057367
     64 H32         8.4410   -1.9050    0.4230 ha        1 NBH      0.172500
     65 H33         5.9910   -2.0180    0.5580 ha        1 NBH      0.137000
     66 H041        4.1910    0.0410    0.9840 hn        1 NBH      0.446800
@<TRIPOS>BOND
     1    1    2 1   
     2    1   34 1   
     3    1   35 1   
     4    1   36 1   
     5    2    3 1   
     6    2   37 1   
     7    2   38 1   
     8    3    4 1   
     9    3   39 1   
    10    3   40 1   
    11    4    5 1   
    12    4   12 1   
    13    4   66 1   
    14    5    6 1   
    15    5   41 1   
    16    5   42 1   
    17    6    7 ar  
    18    6   11 ar  
    19    7    8 ar  
    20    7   43 1   
    21    8    9 ar  
    22    8   44 1   
    23    9   10 ar  
    24    9   45 1   
    25   10   11 ar  
    26   10   46 1   
    27   11   47 1   
    28   12   13 1   
    29   12   48 1   
    30   12   49 1   
    31   13   14 ar  
    32   13   33 ar  
    33   14   15 ar  
    34   14   50 1   
    35   15   16 ar  
    36   15   51 1   
    37   16   17 1   
    38   16   32 ar  
    39   17   18 1   
    40   17   52 1   
    41   18   19 2   
    42   18   20 1   
    43   20   21 1   
    44   20   53 1   
    45   20   54 1   
    46   21   22 ar  
    47   21   26 ar  
    48   22   23 ar  
    49   22   55 1   
    50   23   24 ar  
    51   23   56 1   
    52   24   25 ar  
    53   24   27 1   
    54   25   26 ar  
    55   25   57 1   
    56   26   58 1   
    57   27   28 2   
    58   27   29 2   
    59   27   30 1   
    60   30   31 1   
    61   30   59 1   
    62   30   60 1   
    63   31   61 1   
    64   31   62 1   
    65   31   63 1   
    66   32   33 ar  
    67   32   64 1   
    68   33   65 1   
@<TRIPOS>SUBSTRUCTURE
     1 NBH         1 TEMP              0 ****  ****    0 ROOT
