@<TRIPOS>MOLECULE
NBH
   66    68     1     0     0
SMALL
bcc


@<TRIPOS>ATOM
      1 C01         0.6230   -1.6950    0.3230 c3        1 NBH     -0.101100
      2 C02         2.0930   -1.4170    0.5170 c3        1 NBH     -0.100400
      3 C03         2.2780   -0.4700    1.6970 c3        1 NBH      0.099800
      4 N04         3.7050   -0.0990    1.9530 nx        1 NBH     -0.692400
      5 C05         3.7960    1.2080    2.6950 c3        1 NBH      0.171100
      6 C06         3.4860    2.3750    1.8200 ca        1 NBH     -0.175300
      7 C07         2.2620    3.0420    1.9430 ca        1 NBH     -0.107000
      8 C08         1.9990    4.1620    1.1550 ca        1 NBH     -0.118000
      9 C09         2.9530    4.6140    0.2420 ca        1 NBH     -0.084000
     10 C10         4.1740    3.9490    0.1180 ca        1 NBH     -0.118000
     11 C11         4.4440    2.8320    0.9060 ca        1 NBH     -0.107000
     12 C12         4.4270   -1.1900    2.7040 c3        1 NBH      0.183100
     13 C13         5.9030   -1.0790    2.5710 ca        1 NBH     -0.229300
     14 C14         6.6720   -0.5220    3.6000 ca        1 NBH     -0.069000
     15 C15         8.0550   -0.4570    3.5050 ca        1 NBH     -0.178500
     16 C16         8.7190   -0.9570    2.3570 ca        1 NBH      0.133600
     17 N17        10.1010   -0.9160    2.1940 ns        1 NBH     -0.472100
     18 C18        11.0450   -0.3630    3.0650 c         1 NBH      0.675100
     19 O19        10.7260    0.2090    4.1190 o         1 NBH     -0.562100
     20 C20        12.5010   -0.4520    2.6330 c3        1 NBH     -0.121100
     21 C21        12.8940   -1.7940    2.1280 ca        1 NBH     -0.047300
     22 C22        13.3750   -2.7650    3.0130 ca        1 NBH     -0.154000
     23 C23        13.7760   -4.0090    2.5320 ca        1 NBH     -0.014500
     24 C24        13.7010   -4.3130    1.1680 ca        1 NBH     -0.363500
     25 C25        13.2290   -3.3300    0.2890 ca        1 NBH     -0.014500
     26 C26        12.8260   -2.0840    0.7590 ca        1 NBH     -0.154000
     27 S27        14.2350   -5.8050    0.5800 sy        1 NBH      1.381300
     28 O28        14.4170   -5.7110   -0.8050 o         1 NBH     -0.642800
     29 O29        15.2950   -6.2620    1.3680 o         1 NBH     -0.642800
     30 C30        12.8350   -6.7300    0.9110 c3        1 NBH     -0.311600
     31 C31        13.0300   -8.1710    0.5140 c3        1 NBH     -0.080100
     32 C32         7.9280   -1.5270    1.3220 ca        1 NBH     -0.178500
     33 C33         6.5490   -1.5840    1.4360 ca        1 NBH     -0.069000
     34 H1          0.0630   -0.7530    0.1080 hc        1 NBH      0.058700
     35 H2          0.1820   -2.1710    1.2330 hc        1 NBH      0.058700
     36 H3          0.4840   -2.3920   -0.5400 hc        1 NBH      0.058700
     37 H4          2.6360   -2.3830    0.6970 hc        1 NBH      0.061200
     38 H5          2.5140   -0.9590   -0.4170 hc        1 NBH      0.061200
     39 H6          1.8660   -0.9370    2.6360 hx        1 NBH      0.101700
     40 H7          1.7100    0.4860    1.4940 hx        1 NBH      0.101700
     41 H9          3.0870    1.1560    3.5700 hx        1 NBH      0.104700
     42 H10         4.8540    1.2910    3.0880 hx        1 NBH      0.104700
     43 H11         1.5110    2.6980    2.6710 ha        1 NBH      0.138000
     44 H12         1.0390    4.6920    1.2590 ha        1 NBH      0.157000
     45 H13         2.7440    5.5020   -0.3780 ha        1 NBH      0.159000
     46 H14         4.9300    4.3120   -0.5970 ha        1 NBH      0.157000
     47 H15         5.4170    2.3250    0.8220 ha        1 NBH      0.138000
     48 H16         4.1110   -1.1270    3.7840 hx        1 NBH      0.099700
     49 H17         4.0740   -2.1760    2.2830 hx        1 NBH      0.099700
     50 H18         6.1830   -0.1420    4.5110 ha        1 NBH      0.137000
     51 H19         8.6270   -0.0150    4.3400 ha        1 NBH      0.172500
     52 H20        10.4610   -1.3810    1.3850 hn        1 NBH      0.333500
     53 H21        13.1250   -0.1760    3.5280 hc        1 NBH      0.101200
     54 H22        12.6740    0.3320    1.8450 hc        1 NBH      0.101200
     55 H23        13.4510   -2.5430    4.0890 ha        1 NBH      0.145500
     56 H24        14.1820   -4.7620    3.2320 ha        1 NBH      0.165000
     57 H25        13.1990   -3.5460   -0.7950 ha        1 NBH      0.165000
     58 H26        12.4860   -1.3160    0.0480 ha        1 NBH      0.145500
     59 H27        11.9400   -6.3290    0.3680 h1        1 NBH      0.106200
     60 H28        12.5690   -6.6940    2.0010 h1        1 NBH      0.106200
     61 H29        12.1140   -8.7660    0.7430 hc        1 NBH      0.057367
     62 H30        13.8870   -8.6190    1.0760 hc        1 NBH      0.057367
     63 H31        13.2340   -8.2510   -0.5820 hc        1 NBH      0.057367
     64 H32         8.4070   -1.9390    0.4180 ha        1 NBH      0.172500
     65 H33         5.9610   -2.0460    0.6260 ha        1 NBH      0.137000
     66 H041        4.1750    0.0260    1.0450 hn        1 NBH      0.446800
@<TRIPOS>BOND
     1    1    2 1   
     2    1   34 1   
     3    1   35 1   
     4    1   36 1   
     5    2    3 1   
     6    2   37 1   
     7    2   38 1   
     8    3    4 1   
     9    3   39 1   
    10    3   40 1   
    11    4    5 1   
    12    4   12 1   
    13    4   66 1   
    14    5    6 1   
    15    5   41 1   
    16    5   42 1   
    17    6    7 ar  
    18    6   11 ar  
    19    7    8 ar  
    20    7   43 1   
    21    8    9 ar  
    22    8   44 1   
    23    9   10 ar  
    24    9   45 1   
    25   10   11 ar  
    26   10   46 1   
    27   11   47 1   
    28   12   13 1   
    29   12   48 1   
    30   12   49 1   
    31   13   14 ar  
    32   13   33 ar  
    33   14   15 ar  
    34   14   50 1   
    35   15   16 ar  
    36   15   51 1   
    37   16   17 1   
    38   16   32 ar  
    39   17   18 1   
    40   17   52 1   
    41   18   19 2   
    42   18   20 1   
    43   20   21 1   
    44   20   53 1   
    45   20   54 1   
    46   21   22 ar  
    47   21   26 ar  
    48   22   23 ar  
    49   22   55 1   
    50   23   24 ar  
    51   23   56 1   
    52   24   25 ar  
    53   24   27 1   
    54   25   26 ar  
    55   25   57 1   
    56   26   58 1   
    57   27   28 2   
    58   27   29 2   
    59   27   30 1   
    60   30   31 1   
    61   30   59 1   
    62   30   60 1   
    63   31   61 1   
    64   31   62 1   
    65   31   63 1   
    66   32   33 ar  
    67   32   64 1   
    68   33   65 1   
@<TRIPOS>SUBSTRUCTURE
     1 NBH         1 TEMP              0 ****  ****    0 ROOT
