@<TRIPOS>MOLECULE
NBH
   67    69     1     0     0
SMALL
bcc


@<TRIPOS>ATOM
      1 C01         0.4630    0.8100   -0.6620 c3        1 NBH     -0.104100
      2 C02         1.9510    0.7040   -0.4300 c3        1 NBH     -0.101400
      3 C03         2.2010    0.0310    0.9140 c3        1 NBH      0.099800
      4 N04         3.6580   -0.0780    1.2730 n4        1 NBH     -0.691400
      5 C05         3.8290   -0.2190    2.7690 c3        1 NBH      0.181100
      6 C06         3.5640    1.0610    3.4810 ca        1 NBH     -0.191300
      7 C07         2.3910    1.2180    4.2280 ca        1 NBH     -0.106500
      8 C08         2.1710    2.3990    4.9370 ca        1 NBH     -0.112000
      9 C09         3.1150    3.4260    4.8960 ca        1 NBH     -0.070000
     10 C10         4.2860    3.2720    4.1470 ca        1 NBH     -0.112000
     11 C11         4.5120    2.0920    3.4430 ca        1 NBH     -0.106500
     12 C12         4.2980   -1.2240    0.5520 c3        1 NBH      0.148100
     13 C13         5.7940   -1.1650    0.5110 ca        1 NBH     -0.105300
     14 C14         6.5490   -2.1240    1.1970 ca        1 NBH     -0.089500
     15 C15         7.9380   -2.1500    1.0800 ca        1 NBH     -0.088500
     16 C16         8.5820   -1.1970    0.2710 ca        1 NBH     -0.017400
     17 N17        10.0400   -1.2160    0.1370 n4        1 NBH     -0.566200
     18 C18        10.4980   -1.5200   -1.2980 c         1 NBH      0.566100
     19 O19        10.2310   -0.6600   -2.1180 o         1 NBH     -0.399100
     20 C20        11.2110   -2.8220   -1.5070 c3        1 NBH     -0.105100
     21 C21        12.0090   -3.2970   -0.3470 ca        1 NBH     -0.125300
     22 C22        12.9180   -2.4390    0.2890 ca        1 NBH     -0.159000
     23 C23        13.7500   -2.9280    1.2930 ca        1 NBH     -0.008500
     24 C24        13.6860   -4.2700    1.6850 ca        1 NBH     -0.312500
     25 C25        12.7770   -5.1160    1.0480 ca        1 NBH     -0.008500
     26 C26        11.9340   -4.6370    0.0420 ca        1 NBH     -0.159000
     27 S27        14.8060   -4.8900    2.8370 sy        1 NBH      1.374300
     28 O28        15.0520   -6.2210    2.5100 o         1 NBH     -0.622300
     29 O29        15.8530   -3.9750    2.9300 o         1 NBH     -0.622300
     30 C30        13.8140   -4.7940    4.2170 c3        1 NBH     -0.320600
     31 C31        14.5440   -5.3140    5.4330 c3        1 NBH     -0.087100
     32 C32         7.8300   -0.2200   -0.4090 ca        1 NBH     -0.088500
     33 C33         6.4420   -0.2140   -0.2850 ca        1 NBH     -0.089500
     34 H1         -0.0140   -0.2000   -0.6730 hc        1 NBH      0.066033
     35 H2          0.2730    1.3000   -1.6490 hc        1 NBH      0.066033
     36 H3         -0.0240    1.4260    0.1340 hc        1 NBH      0.066033
     37 H4          2.4160    0.1140   -1.2630 hc        1 NBH      0.059700
     38 H5          2.4040    1.7320   -0.4420 hc        1 NBH      0.059700
     39 H6          1.7040    0.6360    1.7300 hx        1 NBH      0.112200
     40 H7          1.7620   -1.0060    0.9200 hx        1 NBH      0.112200
     41 H9          4.8930   -0.5520    2.9460 hx        1 NBH      0.099200
     42 H10         3.1280   -1.0310    3.1170 hx        1 NBH      0.099200
     43 H11         1.6460    0.4070    4.2760 ha        1 NBH      0.132000
     44 H12         1.2520    2.5180    5.5340 ha        1 NBH      0.165500
     45 H13         2.9410    4.3590    5.4580 ha        1 NBH      0.170000
     46 H14         5.0320    4.0820    4.1220 ha        1 NBH      0.165500
     47 H15         5.4450    1.9660    2.8740 ha        1 NBH      0.132000
     48 H16         3.9540   -2.1770    1.0510 hx        1 NBH      0.119200
     49 H17         3.9070   -1.2250   -0.5110 hx        1 NBH      0.119200
     50 H18         6.0520   -2.8820    1.8280 ha        1 NBH      0.172500
     51 H19         8.5060   -2.9240    1.6270 ha        1 NBH      0.182000
     52 H20        10.4000   -0.2880    0.4020 hn        1 NBH      0.474300
     53 H21        10.4350   -3.5840   -1.8100 hc        1 NBH      0.140200
     54 H22        11.8980   -2.6760   -2.3970 hc        1 NBH      0.140200
     55 H23        13.0300   -1.3970   -0.0480 ha        1 NBH      0.145500
     56 H24        14.4990   -2.2610    1.7630 ha        1 NBH      0.184000
     57 H25        12.7480   -6.1900    1.3180 ha        1 NBH      0.184000
     58 H26        11.2450   -5.3310   -0.4660 ha        1 NBH      0.145500
     59 H27        12.8700   -5.3880    4.0960 h1        1 NBH      0.106200
     60 H28        13.4900   -3.7420    4.4290 h1        1 NBH      0.106200
     61 H29        13.8890   -5.2560    6.3350 hc        1 NBH      0.066700
     62 H30        15.4630   -4.7060    5.6300 hc        1 NBH      0.066700
     63 H31        14.8390   -6.3840    5.2860 hc        1 NBH      0.066700
     64 H32         8.3210    0.5290   -1.0590 ha        1 NBH      0.182000
     65 H33         5.8620    0.5380   -0.8460 ha        1 NBH      0.172500
     66 H041        4.1200    0.7960    0.9870 hn        1 NBH      0.445800
     67 H172       10.4450   -1.9190    0.7720 hn        1 NBH      0.474300
@<TRIPOS>BOND
     1    1    2 1   
     2    1   34 1   
     3    1   35 1   
     4    1   36 1   
     5    2    3 1   
     6    2   37 1   
     7    2   38 1   
     8    3    4 1   
     9    3   39 1   
    10    3   40 1   
    11    4    5 1   
    12    4   12 1   
    13    4   66 1   
    14    5    6 1   
    15    5   41 1   
    16    5   42 1   
    17    6    7 ar  
    18    6   11 ar  
    19    7    8 ar  
    20    7   43 1   
    21    8    9 ar  
    22    8   44 1   
    23    9   10 ar  
    24    9   45 1   
    25   10   11 ar  
    26   10   46 1   
    27   11   47 1   
    28   12   13 1   
    29   12   48 1   
    30   12   49 1   
    31   13   14 ar  
    32   13   33 ar  
    33   14   15 ar  
    34   14   50 1   
    35   15   16 ar  
    36   15   51 1   
    37   16   17 1   
    38   16   32 ar  
    39   17   18 1   
    40   17   52 1   
    41   17   67 1   
    42   18   19 2   
    43   18   20 1   
    44   20   21 1   
    45   20   53 1   
    46   20   54 1   
    47   21   22 ar  
    48   21   26 ar  
    49   22   23 ar  
    50   22   55 1   
    51   23   24 ar  
    52   23   56 1   
    53   24   25 ar  
    54   24   27 1   
    55   25   26 ar  
    56   25   57 1   
    57   26   58 1   
    58   27   28 2   
    59   27   29 2   
    60   27   30 1   
    61   30   31 1   
    62   30   59 1   
    63   30   60 1   
    64   31   61 1   
    65   31   62 1   
    66   31   63 1   
    67   32   33 ar  
    68   32   64 1   
    69   33   65 1   
@<TRIPOS>SUBSTRUCTURE
     1 NBH         1 TEMP              0 ****  ****    0 ROOT
