@<TRIPOS>MOLECULE
NBI
   28    29     1     0     0
SMALL
bcc


@<TRIPOS>ATOM
      1 C1          0.1440    0.3440    0.0910 ca        1 NBI     -0.134200
      2 N1          2.7100    0.8430   -1.7780 n         1 NBI     -0.446100
      3 O1          2.6630   -1.4590   -1.4720 o         1 NBI     -0.568100
      4 C2          1.4620   -0.1350    0.0910 ca        1 NBI     -0.088600
      5 N2         -0.5230    0.8240   -1.1560 no        1 NBI      0.307200
      6 O2         -1.5900    0.3650   -1.4480 o         1 NBI     -0.196000
      7 C3          2.0260   -0.5580    1.3010 ca        1 NBI     -0.090000
      8 O3          0.0020    1.6910   -1.8030 o         1 NBI     -0.196000
      9 C4          1.2940   -0.5010    2.4850 ca        1 NBI     -0.100000
     10 C5         -0.0210   -0.0390    2.4720 ca        1 NBI     -0.115000
     11 C6         -0.6070    0.3760    1.2790 ca        1 NBI     -0.086000
     12 C7          2.3050   -0.3150   -1.1410 c         1 NBI      0.663700
     13 C8          3.4790    0.9020   -2.9580 ca        1 NBI      0.053600
     14 C9          3.4090    2.0730   -3.7510 ca        1 NBI     -0.155500
     15 C10         4.1940    2.1910   -4.8930 ca        1 NBI     -0.109000
     16 C11         5.0520    1.1610   -5.2750 ca        1 NBI     -0.149000
     17 C12         5.1210    0.0040   -4.5030 ca        1 NBI     -0.109000
     18 C13         4.3480   -0.1360   -3.3530 ca        1 NBI     -0.155500
     19 HN1         2.2180    1.6840   -1.5490 hn        1 NBI      0.336500
     20 H3          3.0550   -0.9550    1.3000 ha        1 NBI      0.165000
     21 H4          1.7540   -0.8330    3.4290 ha        1 NBI      0.152000
     22 H5         -0.6070   -0.0060    3.4040 ha        1 NBI      0.153000
     23 H6         -1.6550    0.7210    1.2670 ha        1 NBI      0.166000
     24 H9          2.7310    2.8950   -3.4750 ha        1 NBI      0.151000
     25 H10         4.1290    3.1070   -5.5000 ha        1 NBI      0.133500
     26 H11         5.6670    1.2610   -6.1810 ha        1 NBI      0.133000
     27 H12         5.7920   -0.8170   -4.8010 ha        1 NBI      0.133500
     28 H13         4.4150   -1.0660   -2.7660 ha        1 NBI      0.151000
@<TRIPOS>BOND
     1    1    4 ar  
     2    1    5 1   
     3    1   11 ar  
     4    2   12 1   
     5    2   13 1   
     6    2   19 1   
     7    3   12 2   
     8    4    7 ar  
     9    4   12 1   
    10    5    6 1   
    11    5    8 1   
    12    7    9 ar  
    13    7   20 1   
    14    9   10 ar  
    15    9   21 1   
    16   10   11 ar  
    17   10   22 1   
    18   11   23 1   
    19   13   14 ar  
    20   13   18 ar  
    21   14   15 ar  
    22   14   24 1   
    23   15   16 ar  
    24   15   25 1   
    25   16   17 ar  
    26   16   26 1   
    27   17   18 ar  
    28   17   27 1   
    29   18   28 1   
@<TRIPOS>SUBSTRUCTURE
     1 NBI         1 TEMP              0 ****  ****    0 ROOT
