@<TRIPOS>MOLECULE
NBI
   28    24     1     0     0
SMALL
bcc


@<TRIPOS>ATOM
      1 C1         -2.5430    0.1220    1.3320 c1        1 NBI     -0.089000
      2 N1          1.0190   -0.0450   -0.0380 n         1 NBI     -0.300000
      3 O1         -1.0330   -0.0270   -1.0620 o         1 NBI     -0.329000
      4 C2         -1.1540    0.0980    1.3150 c1        1 NBI     -0.068000
      5 N2         -3.5370    0.1590    0.3220 n2        1 NBI      0.453400
      6 O2         -3.3440    0.9150   -0.7970 o         1 NBI     -0.291700
      7 C3         -0.4480    0.0590    2.5060 c1        1 NBI     -0.111750
      8 O3         -4.5570   -0.5000    0.4450 o         1 NBI     -0.291700
      9 C4         -1.1290    0.0440    3.7180 c1        1 NBI     -0.111750
     10 C5         -2.5140    0.0690    3.7350 c1        1 NBI     -0.115000
     11 C6         -3.2220    0.1080    2.5430 c2        1 NBI     -0.086000
     12 C7         -0.4110   -0.0190   -0.0180 c2        1 NBI      0.337000
     13 C8          1.7190   -0.0800   -1.2950 c2        1 NBI      0.061000
     14 C9          2.2180   -1.2820   -1.7770 c2        1 NBI     -0.145000
     15 C10         2.9880   -1.3010   -2.9340 c1        1 NBI     -0.110000
     16 C11         3.2580   -0.1190   -3.6070 c1        1 NBI     -0.111750
     17 C12         2.7590    1.0830   -3.1250 c1        1 NBI     -0.111750
     18 C13         1.9900    1.1030   -1.9700 c1        1 NBI     -0.166000
     19 HN1         1.4850   -0.1010    0.7440 hn        1 NBI      0.250000
     20 H3          0.5270    0.0410    2.4940 ha        1 NBI      0.145750
     21 H4         -0.6320    0.0170    4.5570 ha        1 NBI      0.145750
     22 H5         -2.9930    0.0590    4.5870 ha        1 NBI      0.153000
     23 H6         -4.1990    0.1250    2.5550 ha        1 NBI      0.166000
     24 H9          2.0270   -2.1150   -1.3040 ha        1 NBI      0.164000
     25 H10         3.3390   -2.1470   -3.2740 ha        1 NBI      0.134000
     26 H11         3.8000   -0.1320   -4.4220 ha        1 NBI      0.145750
     27 H12         2.9490    1.9160   -3.6000 ha        1 NBI      0.145750
     28 H13         1.6390    1.9480   -1.6310 ha        1 NBI      0.138000
@<TRIPOS>BOND
     1    1    4 1   
     2    1   11 1   
     3    2   12 1   
     4    2   13 1   
     5    2   19 1   
     6    3   12 1   
     7    4   12 1   
     8    5    6 2   
     9    5    8 2   
    10    7    9 1   
    11    7   20 1   
    12    9   21 1   
    13   10   11 1   
    14   10   22 1   
    15   11   23 1   
    16   13   14 1   
    17   13   18 1   
    18   14   15 1   
    19   14   24 1   
    20   15   25 1   
    21   16   17 1   
    22   16   26 1   
    23   17   27 1   
    24   18   28 1   
@<TRIPOS>SUBSTRUCTURE
     1 NBI         1 TEMP              0 ****  ****    0 ROOT
