@<TRIPOS>MOLECULE
NBI
   28    29     1     0     0
SMALL
bcc


@<TRIPOS>ATOM
      1 C1         -2.2820    0.1420    0.4070 ca        1 NBI     -0.134200
      2 N1          0.8670   -0.4960    0.3060 n         1 NBI     -0.446100
      3 O1          0.2280   -0.4130   -1.9260 o         1 NBI     -0.568100
      4 C2         -1.4880   -0.7580   -0.3200 ca        1 NBI     -0.088600
      5 N2         -1.7320    1.4200    0.9490 no        1 NBI      0.307200
      6 O2         -2.3030    2.4420    0.6940 o         1 NBI     -0.196000
      7 C3         -2.0680   -1.9430   -0.7880 ca        1 NBI     -0.090000
      8 O3         -0.7660    1.3850    1.6650 o         1 NBI     -0.196000
      9 C4         -3.4080   -2.2270   -0.5340 ca        1 NBI     -0.100000
     10 C5         -4.1930   -1.3190    0.1760 ca        1 NBI     -0.115000
     11 C6         -3.6410   -0.1280    0.6410 ca        1 NBI     -0.086000
     12 C7         -0.0600   -0.5080   -0.7190 c         1 NBI      0.663700
     13 C8          2.2480   -0.2540    0.1570 ca        1 NBI      0.053600
     14 C9          2.9770    0.2060    1.2810 ca        1 NBI     -0.155500
     15 C10         4.3500    0.4040    1.1900 ca        1 NBI     -0.109000
     16 C11         5.0250    0.1590   -0.0050 ca        1 NBI     -0.149000
     17 C12         4.3140   -0.2870   -1.1170 ca        1 NBI     -0.109000
     18 C13         2.9380   -0.4970   -1.0480 ca        1 NBI     -0.155500
     19 HN1         0.5140   -0.3900    1.2360 hn        1 NBI      0.336500
     20 H3         -1.4520   -2.6420   -1.3780 ha        1 NBI      0.165000
     21 H4         -3.8490   -3.1670   -0.9040 ha        1 NBI      0.152000
     22 H5         -5.2560   -1.5350    0.3660 ha        1 NBI      0.153000
     23 H6         -4.2680    0.5990    1.1830 ha        1 NBI      0.166000
     24 H9          2.4630    0.4170    2.2320 ha        1 NBI      0.151000
     25 H10         4.9040    0.7620    2.0710 ha        1 NBI      0.133500
     26 H11         6.1100    0.3210   -0.0700 ha        1 NBI      0.133000
     27 H12         4.8380   -0.4780   -2.0650 ha        1 NBI      0.133500
     28 H13         2.3980   -0.8420   -1.9440 ha        1 NBI      0.151000
@<TRIPOS>BOND
     1    1    4 ar  
     2    1    5 1   
     3    1   11 ar  
     4    2   12 1   
     5    2   13 1   
     6    2   19 1   
     7    3   12 2   
     8    4    7 ar  
     9    4   12 1   
    10    5    6 1   
    11    5    8 1   
    12    7    9 ar  
    13    7   20 1   
    14    9   10 ar  
    15    9   21 1   
    16   10   11 ar  
    17   10   22 1   
    18   11   23 1   
    19   13   14 ar  
    20   13   18 ar  
    21   14   15 ar  
    22   14   24 1   
    23   15   16 ar  
    24   15   25 1   
    25   16   17 ar  
    26   16   26 1   
    27   17   18 ar  
    28   17   27 1   
    29   18   28 1   
@<TRIPOS>SUBSTRUCTURE
     1 NBI         1 TEMP              0 ****  ****    0 ROOT
