@<TRIPOS>MOLECULE
NBI
   28    29     1     0     0
SMALL
bcc


@<TRIPOS>ATOM
      1 C1          0.1510    0.3660    0.1040 ca        1 NBI     -0.134200
      2 N1          2.7120    0.8380   -1.7810 ns        1 NBI     -0.446100
      3 O1          2.6410   -1.4640   -1.4770 o         1 NBI     -0.568100
      4 C2          1.4650   -0.1270    0.0950 ca        1 NBI     -0.088600
      5 N2         -0.5180    0.8530   -1.1390 no        1 NBI      0.307200
      6 O2         -1.5930    0.4060   -1.4230 o         1 NBI     -0.196000
      7 C3          2.0320   -0.5560    1.3010 ca        1 NBI     -0.090000
      8 O3          0.0120    1.7130   -1.7910 o         1 NBI     -0.196000
      9 C4          1.3080   -0.4920    2.4900 ca        1 NBI     -0.100000
     10 C5         -0.0030   -0.0160    2.4860 ca        1 NBI     -0.115000
     11 C6         -0.5920    0.4050    1.2960 ca        1 NBI     -0.086000
     12 C7          2.2980   -0.3160   -1.1420 c         1 NBI      0.663700
     13 C8          3.4750    0.8890   -2.9660 ca        1 NBI      0.053600
     14 C9          3.4130    2.0620   -3.7570 ca        1 NBI     -0.155500
     15 C10         4.1920    2.1720   -4.9030 ca        1 NBI     -0.109000
     16 C11         5.0370    1.1330   -5.2910 ca        1 NBI     -0.149000
     17 C12         5.0970   -0.0260   -4.5210 ca        1 NBI     -0.109000
     18 C13         4.3290   -0.1580   -3.3670 ca        1 NBI     -0.155500
     19 HN1         2.2300    1.6840   -1.5490 hn        1 NBI      0.336500
     20 H3          3.0570   -0.9630    1.2940 ha        1 NBI      0.165000
     21 H4          1.7710   -0.8280    3.4320 ha        1 NBI      0.152000
     22 H5         -0.5820    0.0230    3.4210 ha        1 NBI      0.153000
     23 H6         -1.6360    0.7610    1.2910 ha        1 NBI      0.166000
     24 H9          2.7460    2.8910   -3.4760 ha        1 NBI      0.151000
     25 H10         4.1350    3.0890   -5.5090 ha        1 NBI      0.133500
     26 H11         5.6470    1.2270   -6.2000 ha        1 NBI      0.133000
     27 H12         5.7570   -0.8540   -4.8230 ha        1 NBI      0.133500
     28 H13         4.3890   -1.0890   -2.7800 ha        1 NBI      0.151000
@<TRIPOS>BOND
     1    1    4 ar  
     2    1    5 1   
     3    1   11 ar  
     4    2   12 1   
     5    2   13 1   
     6    2   19 1   
     7    3   12 2   
     8    4    7 ar  
     9    4   12 1   
    10    5    6 1   
    11    5    8 1   
    12    7    9 ar  
    13    7   20 1   
    14    9   10 ar  
    15    9   21 1   
    16   10   11 ar  
    17   10   22 1   
    18   11   23 1   
    19   13   14 ar  
    20   13   18 ar  
    21   14   15 ar  
    22   14   24 1   
    23   15   16 ar  
    24   15   25 1   
    25   16   17 ar  
    26   16   26 1   
    27   17   18 ar  
    28   17   27 1   
    29   18   28 1   
@<TRIPOS>SUBSTRUCTURE
     1 NBI         1 TEMP              0 ****  ****    0 ROOT
