@<TRIPOS>MOLECULE
NBL
   54    55     1     0     0
SMALL
bcc


@<TRIPOS>ATOM
      1 C1          0.9240   -0.0640    1.1430 c3        1 NBL     -0.109100
      2 C2          2.3940    0.1210    0.8360 c3        1 NBL     -0.065700
      3 C3          3.1790    0.3010    2.1230 c3        1 NBL     -0.109100
      4 C4          2.9780   -1.0620    0.0700 c3        1 NBL     -0.117400
      5 C5          2.3080   -1.2390   -1.3020 c3        1 NBL      0.069500
      6 N6          2.8500   -2.4310   -2.0390 n4        1 NBL     -0.665800
      7 C7          2.1350   -2.6250   -3.3700 c         1 NBL      0.650100
      8 O8          1.5730   -1.6500   -3.8710 o         1 NBL     -0.529000
      9 O9          2.2210   -3.8610   -3.7950 os        1 NBL     -0.386900
     10 C10         1.5740   -4.1950   -5.1430 c3        1 NBL      0.248700
     11 C11         1.5510   -5.6600   -5.1540 ca        1 NBL     -0.186300
     12 C12         0.4010   -6.3510   -4.7380 ca        1 NBL     -0.071000
     13 C13         0.3570   -7.7400   -4.8180 ca        1 NBL     -0.131000
     14 C14         1.4600   -8.4500   -5.3000 ca        1 NBL     -0.050000
     15 C15         2.6110   -7.7680   -5.7050 ca        1 NBL     -0.131000
     16 C16         2.6610   -6.3780   -5.6310 ca        1 NBL     -0.071000
     17 C17         2.5500    0.0340   -2.1370 c         1 NBL      0.529100
     18 O18         3.6470    0.3670   -2.5560 o         1 NBL     -0.372100
     19 N19         1.3500    0.8730   -2.4210 n4        1 NBL     -0.659800
     20 C20         1.6050    2.0330   -3.3620 c3        1 NBL      0.089500
     21 C21         0.4100    3.0100   -3.3810 c3        1 NBL     -0.136400
     22 C22        -0.3240    2.7510   -4.7160 c3        1 NBL      0.139800
     23 N23         0.3540    1.6470   -5.4210 n3        1 NBL     -0.469200
     24 C24         1.6980    1.5500   -4.8440 c3        1 NBL      0.135800
     25 C25        -0.3310    0.4470   -5.3880 c1        1 NBL      0.258600
     26 N26        -0.8990   -0.5710   -5.4570 n1        1 NBL     -0.332800
     27 H11         0.7450   -1.0250    1.6850 hc        1 NBL      0.061533
     28 H12A        0.5640    0.7680    1.8010 hc        1 NBL      0.061533
     29 H13A        0.3080   -0.0590    0.2100 hc        1 NBL      0.061533
     30 H2          2.5290    1.0520    0.2130 hc        1 NBL      0.025700
     31 H31         4.2630    0.4570    1.9080 hc        1 NBL      0.061533
     32 H32         3.0660   -0.5940    2.7830 hc        1 NBL      0.061533
     33 H33         2.7970    1.1940    2.6770 hc        1 NBL      0.061533
     34 H41         4.0840   -0.9020   -0.0620 hc        1 NBL      0.103700
     35 H42         2.8270   -1.9950    0.6790 hc        1 NBL      0.103700
     36 H5          1.2000   -1.4300   -1.1530 hx        1 NBL      0.139700
     37 HN6         2.7310   -3.2760   -1.4590 hn        1 NBL      0.493800
     38 H101        0.5660   -3.7100   -5.1310 h1        1 NBL      0.096200
     39 H102        2.2620   -3.7340   -5.8950 h1        1 NBL      0.096200
     40 H12        -0.4750   -5.7950   -4.3710 ha        1 NBL      0.139500
     41 H13        -0.5520   -8.2810   -4.5070 ha        1 NBL      0.165500
     42 H14         1.4210   -9.5500   -5.3670 ha        1 NBL      0.168000
     43 H15         3.4770   -8.3300   -6.0920 ha        1 NBL      0.165500
     44 H16         3.5650   -5.8430   -5.9600 ha        1 NBL      0.139500
     45 H19         0.6340    0.2630   -2.8500 hn        1 NBL      0.479300
     46 H20         2.5610    2.5300   -3.0330 hx        1 NBL      0.142700
     47 H211        0.8080    4.0590   -3.3590 hc        1 NBL      0.102200
     48 H212       -0.2840    2.9000   -2.5130 hc        1 NBL      0.102200
     49 H221       -1.4150    2.5430   -4.5540 h1        1 NBL      0.114700
     50 H222       -0.2360    3.6520   -5.3890 h1        1 NBL      0.114700
     51 H241        2.3490    2.2850   -5.4020 h1        1 NBL      0.117700
     52 H242        2.1420    0.5250   -4.9510 h1        1 NBL      0.117700
     53 H62         3.8580   -2.3090   -2.2220 hn        1 NBL      0.493800
     54 H192        0.9860    1.2390   -1.5270 hn        1 NBL      0.479300
@<TRIPOS>BOND
     1    1    2 1   
     2    1   27 1   
     3    1   28 1   
     4    1   29 1   
     5    2    3 1   
     6    2    4 1   
     7    2   30 1   
     8    3   31 1   
     9    3   32 1   
    10    3   33 1   
    11    4    5 1   
    12    4   34 1   
    13    4   35 1   
    14    5    6 1   
    15    5   17 1   
    16    5   36 1   
    17    6    7 1   
    18    6   37 1   
    19    6   53 1   
    20    7    8 2   
    21    7    9 1   
    22    9   10 1   
    23   10   11 1   
    24   10   38 1   
    25   10   39 1   
    26   11   12 ar  
    27   11   16 ar  
    28   12   13 ar  
    29   12   40 1   
    30   13   14 ar  
    31   13   41 1   
    32   14   15 ar  
    33   14   42 1   
    34   15   16 ar  
    35   15   43 1   
    36   16   44 1   
    37   17   18 2   
    38   17   19 1   
    39   19   20 1   
    40   19   45 1   
    41   19   54 1   
    42   20   21 1   
    43   20   24 1   
    44   20   46 1   
    45   21   22 1   
    46   21   47 1   
    47   21   48 1   
    48   22   23 1   
    49   22   49 1   
    50   22   50 1   
    51   23   24 1   
    52   23   25 1   
    53   24   51 1   
    54   24   52 1   
    55   25   26 3   
@<TRIPOS>SUBSTRUCTURE
     1 NBL         1 TEMP              0 ****  ****    0 ROOT
