@<TRIPOS>MOLECULE
NBL
   52    53     1     0     0
SMALL
bcc


@<TRIPOS>ATOM
      1 C1         -2.0680    3.7730    2.0200 c3        1 NBL     -0.094100
      2 C2         -2.1770    3.5960    0.5190 c3        1 NBL     -0.068700
      3 C3         -2.7010    4.8680   -0.1180 c3        1 NBL     -0.094100
      4 C4         -0.8340    3.2310   -0.0970 c3        1 NBL     -0.084400
      5 C5         -0.4980    1.7430    0.1120 c3        1 NBL      0.039700
      6 N6          0.9090    1.4790   -0.0960 n         1 NBL     -0.512900
      7 C7          1.5210    0.4900    0.6590 c         1 NBL      0.730100
      8 O8          1.1200   -0.0190    1.7190 o         1 NBL     -0.588000
      9 O9          2.7480    0.1170    0.1540 os        1 NBL     -0.434900
     10 C10         3.4870   -0.8020    0.9880 c3        1 NBL      0.196700
     11 C11         4.7630   -1.1170    0.2840 ca        1 NBL     -0.098300
     12 C12         5.4350   -0.1490   -0.4690 ca        1 NBL     -0.110500
     13 C13         6.6460   -0.4610   -1.0860 ca        1 NBL     -0.131500
     14 C14         7.1930   -1.7360   -0.9490 ca        1 NBL     -0.123000
     15 C15         6.5240   -2.7040   -0.1990 ca        1 NBL     -0.131500
     16 C16         5.3090   -2.3990    0.4140 ca        1 NBL     -0.110500
     17 C17        -1.3580    0.9250   -0.8900 c         1 NBL      0.629100
     18 O18        -1.1460    1.0120   -2.1160 o         1 NBL     -0.608100
     19 N19        -2.3380    0.1090   -0.3730 n         1 NBL     -0.562900
     20 C20        -3.2100   -0.6790   -1.2020 c3        1 NBL      0.078700
     21 C21        -4.7040   -0.2860   -1.0930 c3        1 NBL     -0.123400
     22 C22        -5.4520   -1.5340   -0.6100 c3        1 NBL      0.158800
     23 N23        -4.4770   -2.5870   -0.2780 n3        1 NBL     -0.513200
     24 C24        -3.1810   -2.2020   -0.8490 c3        1 NBL      0.141800
     25 C25        -4.4410   -2.9320    1.0530 c1        1 NBL      0.299600
     26 N26        -4.4460   -3.3270    2.1530 n1        1 NBL     -0.387800
     27 H11        -3.0690    4.0160    2.4510 hc        1 NBL      0.038533
     28 H12A       -1.6900    2.8420    2.5060 hc        1 NBL      0.038533
     29 H13A       -1.3670    4.6080    2.2660 hc        1 NBL      0.038533
     30 H2         -2.9120    2.7690    0.3080 hc        1 NBL      0.043700
     31 H31        -1.9780    5.7060    0.0290 hc        1 NBL      0.038533
     32 H32        -2.8570    4.7220   -1.2140 hc        1 NBL      0.038533
     33 H33        -3.6760    5.1560    0.3450 hc        1 NBL      0.038533
     34 H41        -0.8490    3.4470   -1.1990 hc        1 NBL      0.068200
     35 H42        -0.0330    3.8670    0.3650 hc        1 NBL      0.068200
     36 H5         -0.7450    1.4580    1.1800 h1        1 NBL      0.098700
     37 HN6         1.2570    1.6310   -1.0180 hn        1 NBL      0.333500
     38 H101        3.6810   -0.3050    1.9760 h1        1 NBL      0.065700
     39 H102        2.8600   -1.7190    1.1520 h1        1 NBL      0.065700
     40 H12         4.9960    0.8550   -0.5780 ha        1 NBL      0.139000
     41 H13         7.1690    0.3020   -1.6800 ha        1 NBL      0.133000
     42 H14         8.1490   -1.9810   -1.4330 ha        1 NBL      0.132000
     43 H15         6.9530   -3.7110   -0.0910 ha        1 NBL      0.133000
     44 H16         4.7810   -3.1660    0.9990 ha        1 NBL      0.139000
     45 H19        -2.4680    0.0620    0.6100 hn        1 NBL      0.319500
     46 H20        -2.8690   -0.5550   -2.2720 h1        1 NBL      0.105700
     47 H211       -4.8680    0.5650   -0.3870 hc        1 NBL      0.064700
     48 H212       -5.0820    0.0290   -2.0960 hc        1 NBL      0.064700
     49 H221       -6.1220   -1.2940    0.2570 h1        1 NBL      0.068700
     50 H222       -6.0880   -1.9550   -1.4380 h1        1 NBL      0.068700
     51 H241       -3.0790   -2.7860   -1.8060 h1        1 NBL      0.079700
     52 H242       -2.3260   -2.4740   -0.1770 h1        1 NBL      0.079700
@<TRIPOS>BOND
     1    1    2 1   
     2    1   27 1   
     3    1   28 1   
     4    1   29 1   
     5    2    3 1   
     6    2    4 1   
     7    2   30 1   
     8    3   31 1   
     9    3   32 1   
    10    3   33 1   
    11    4    5 1   
    12    4   34 1   
    13    4   35 1   
    14    5    6 1   
    15    5   17 1   
    16    5   36 1   
    17    6    7 1   
    18    6   37 1   
    19    7    8 2   
    20    7    9 1   
    21    9   10 1   
    22   10   11 1   
    23   10   38 1   
    24   10   39 1   
    25   11   12 ar  
    26   11   16 ar  
    27   12   13 ar  
    28   12   40 1   
    29   13   14 ar  
    30   13   41 1   
    31   14   15 ar  
    32   14   42 1   
    33   15   16 ar  
    34   15   43 1   
    35   16   44 1   
    36   17   18 2   
    37   17   19 1   
    38   19   20 1   
    39   19   45 1   
    40   20   21 1   
    41   20   24 1   
    42   20   46 1   
    43   21   22 1   
    44   21   47 1   
    45   21   48 1   
    46   22   23 1   
    47   22   49 1   
    48   22   50 1   
    49   23   24 1   
    50   23   25 1   
    51   24   51 1   
    52   24   52 1   
    53   25   26 3   
@<TRIPOS>SUBSTRUCTURE
     1 NBL         1 TEMP              0 ****  ****    0 ROOT
