@<TRIPOS>MOLECULE
NBL
   54    55     1     0     0
SMALL
bcc


@<TRIPOS>ATOM
      1 C1          0.8780    0.7370    1.1340 c3        1 NBL     -0.108600
      2 C2          2.3120    0.3380    0.8630 c3        1 NBL     -0.064700
      3 C3          3.1710    0.6070    2.0870 c3        1 NBL     -0.108600
      4 C4          2.4420   -1.1360    0.4900 c3        1 NBL     -0.117400
      5 C5          1.7120   -1.4520   -0.8250 c3        1 NBL      0.069500
      6 N6          1.7810   -2.9120   -1.1710 n4        1 NBL     -0.667800
      7 C7          0.9130   -3.2300   -2.3830 c         1 NBL      0.660100
      8 O8          0.6270   -2.3090   -3.1450 o         1 NBL     -0.514000
      9 O9          0.5590   -4.4950   -2.3930 os        1 NBL     -0.385900
     10 C10        -0.1670   -5.0390   -3.5990 c3        1 NBL      0.238700
     11 C11         0.8060   -5.4650   -4.6140 ca        1 NBL     -0.214300
     12 C12         1.5600   -6.6330   -4.4170 ca        1 NBL     -0.083000
     13 C13         2.4210   -7.0830   -5.4150 ca        1 NBL     -0.130500
     14 C14         2.5300   -6.3770   -6.6150 ca        1 NBL     -0.060000
     15 C15         1.7790   -5.2160   -6.8160 ca        1 NBL     -0.130500
     16 C16         0.9210   -4.7570   -5.8200 ca        1 NBL     -0.083000
     17 C17         2.3560   -0.6260   -1.9550 c         1 NBL      0.526100
     18 O18         3.4960   -0.8080   -2.3550 o         1 NBL     -0.371100
     19 N19         1.5050    0.4330   -2.5670 n4        1 NBL     -0.662800
     20 C20         2.2230    1.3180   -3.5660 c3        1 NBL      0.089500
     21 C21         1.3370    2.5080   -3.9900 c3        1 NBL     -0.136400
     22 C22         0.8440    2.1810   -5.4170 c3        1 NBL      0.141800
     23 N23         1.3650    0.8560   -5.8040 n3        1 NBL     -0.472200
     24 C24         2.4930    0.5750   -4.9120 c3        1 NBL      0.138800
     25 C25         0.4190   -0.1500   -5.8140 c1        1 NBL      0.256600
     26 N26        -0.3540   -1.0190   -5.9210 n1        1 NBL     -0.327800
     27 H11         0.8410    1.7900    1.5120 hc        1 NBL      0.061700
     28 H12A        0.2550    0.6770    0.2080 hc        1 NBL      0.061700
     29 H13A        0.4210    0.0820    1.9160 hc        1 NBL      0.061700
     30 H2          2.7150    0.9580    0.0110 hc        1 NBL      0.024700
     31 H31         3.1240    1.6920    2.3500 hc        1 NBL      0.061700
     32 H32         2.8040    0.0180    2.9630 hc        1 NBL      0.061700
     33 H33         4.2360    0.3360    1.8910 hc        1 NBL      0.061700
     34 H41         3.5310   -1.3970    0.3950 hc        1 NBL      0.104200
     35 H42         2.0020   -1.7570    1.3180 hc        1 NBL      0.104200
     36 H5          0.6110   -1.2020   -0.7070 hx        1 NBL      0.141700
     37 HN6         2.7530   -3.1870   -1.3810 hn        1 NBL      0.494300
     38 H101       -0.6910   -5.8970   -3.0890 h1        1 NBL      0.114700
     39 H102       -0.8770   -4.2480   -3.9500 h1        1 NBL      0.114700
     40 H12         1.4560   -7.2040   -3.4810 ha        1 NBL      0.146500
     41 H13         3.0040   -8.0060   -5.2630 ha        1 NBL      0.164500
     42 H14         3.2000   -6.7450   -7.4110 ha        1 NBL      0.167000
     43 H15         1.8530   -4.6720   -7.7720 ha        1 NBL      0.164500
     44 H16         0.3110   -3.8560   -5.9930 ha        1 NBL      0.146500
     45 H19         1.1210    1.0260   -1.8150 hn        1 NBL      0.482300
     46 H20         3.1860    1.6460   -3.0850 hx        1 NBL      0.137700
     47 H211        1.9700    3.4350   -4.0060 hc        1 NBL      0.102200
     48 H212        0.4770    2.7050   -3.3040 hc        1 NBL      0.102200
     49 H221        1.2770    2.9150   -6.1560 h1        1 NBL      0.114200
     50 H222       -0.2750    2.2330   -5.4900 h1        1 NBL      0.114200
     51 H241        2.6880   -0.5220   -4.7870 h1        1 NBL      0.116700
     52 H242        3.4060    1.0480   -5.3810 h1        1 NBL      0.116700
     53 H62         1.4600   -3.4700   -0.3640 hn        1 NBL      0.494300
     54 H192        0.7210   -0.0400   -3.0530 hn        1 NBL      0.482300
@<TRIPOS>BOND
     1    1    2 1   
     2    1   27 1   
     3    1   28 1   
     4    1   29 1   
     5    2    3 1   
     6    2    4 1   
     7    2   30 1   
     8    3   31 1   
     9    3   32 1   
    10    3   33 1   
    11    4    5 1   
    12    4   34 1   
    13    4   35 1   
    14    5    6 1   
    15    5   17 1   
    16    5   36 1   
    17    6    7 1   
    18    6   37 1   
    19    6   53 1   
    20    7    8 2   
    21    7    9 1   
    22    9   10 1   
    23   10   11 1   
    24   10   38 1   
    25   10   39 1   
    26   11   12 ar  
    27   11   16 ar  
    28   12   13 ar  
    29   12   40 1   
    30   13   14 ar  
    31   13   41 1   
    32   14   15 ar  
    33   14   42 1   
    34   15   16 ar  
    35   15   43 1   
    36   16   44 1   
    37   17   18 2   
    38   17   19 1   
    39   19   20 1   
    40   19   45 1   
    41   19   54 1   
    42   20   21 1   
    43   20   24 1   
    44   20   46 1   
    45   21   22 1   
    46   21   47 1   
    47   21   48 1   
    48   22   23 1   
    49   22   49 1   
    50   22   50 1   
    51   23   24 1   
    52   23   25 1   
    53   24   51 1   
    54   24   52 1   
    55   25   26 3   
@<TRIPOS>SUBSTRUCTURE
     1 NBL         1 TEMP              0 ****  ****    0 ROOT
