@<TRIPOS>MOLECULE
NBL
   54    55     1     0     0
SMALL
bcc


@<TRIPOS>ATOM
      1 C1          0.8910    0.7840    1.1480 c3        1 NBL     -0.108600
      2 C2          2.3250    0.3980    0.8560 c3        1 NBL     -0.064700
      3 C3          3.1990    0.6760    2.0670 c3        1 NBL     -0.108600
      4 C4          2.4640   -1.0740    0.4820 c3        1 NBL     -0.117400
      5 C5          1.7180   -1.3980   -0.8220 c3        1 NBL      0.069500
      6 N6          1.7960   -2.8580   -1.1680 ny        1 NBL     -0.667800
      7 C7          0.9130   -3.1850   -2.3670 c         1 NBL      0.660100
      8 O8          0.6070   -2.2670   -3.1250 o         1 NBL     -0.514000
      9 O9          0.5710   -4.4540   -2.3700 os        1 NBL     -0.385900
     10 C10        -0.1680   -5.0050   -3.5650 c3        1 NBL      0.238700
     11 C11         0.7930   -5.4240   -4.5940 ca        1 NBL     -0.214300
     12 C12         1.5610   -6.5850   -4.4070 ca        1 NBL     -0.083000
     13 C13         2.4110   -7.0280   -5.4170 ca        1 NBL     -0.130500
     14 C14         2.4960   -6.3230   -6.6200 ca        1 NBL     -0.060000
     15 C15         1.7320   -5.1690   -6.8110 ca        1 NBL     -0.130500
     16 C16         0.8840   -4.7170   -5.8030 ca        1 NBL     -0.083000
     17 C17         2.3380   -0.5670   -1.9620 c         1 NBL      0.526100
     18 O18         3.4730   -0.7380   -2.3780 o         1 NBL     -0.371100
     19 N19         1.4680    0.4830   -2.5620 ny        1 NBL     -0.662800
     20 C20         2.1630    1.3750   -3.5710 c3        1 NBL      0.089500
     21 C21         1.2580    2.5570   -3.9830 c3        1 NBL     -0.136400
     22 C22         0.7510    2.2240   -5.4030 c3        1 NBL      0.141800
     23 N23         1.2810    0.9050   -5.7970 n3        1 NBL     -0.472200
     24 C24         2.4230    0.6350   -4.9200 c3        1 NBL      0.138800
     25 C25         0.3450   -0.1110   -5.7950 c1        1 NBL      0.256600
     26 N26        -0.4190   -0.9890   -5.8920 n1        1 NBL     -0.327800
     27 H11         0.4520    0.1240    1.9360 hc        1 NBL      0.061700
     28 H12A        0.2560    0.7170    0.2310 hc        1 NBL      0.061700
     29 H13A        0.8490    1.8370    1.5250 hc        1 NBL      0.061700
     30 H2          2.7090    1.0220   -0.0020 hc        1 NBL      0.024700
     31 H31         4.2640    0.4160    1.8550 hc        1 NBL      0.061700
     32 H32         2.8510    0.0850    2.9480 hc        1 NBL      0.061700
     33 H33         3.1460    1.7620    2.3300 hc        1 NBL      0.061700
     34 H41         2.0420   -1.6990    1.3160 hc        1 NBL      0.104200
     35 H42         3.5540   -1.3240    0.3710 hc        1 NBL      0.104200
     36 H5          0.6160   -1.1590   -0.6890 hx        1 NBL      0.141700
     37 HN6         1.4930   -3.4180   -0.3560 hn        1 NBL      0.494300
     38 H101       -0.6770   -5.8670   -3.0460 h1        1 NBL      0.114700
     39 H102       -0.8900   -4.2210   -3.9060 h1        1 NBL      0.114700
     40 H12         1.4750   -7.1560   -3.4690 ha        1 NBL      0.146500
     41 H13         3.0040   -7.9460   -5.2730 ha        1 NBL      0.164500
     42 H14         3.1570   -6.6860   -7.4250 ha        1 NBL      0.167000
     43 H15         1.7860   -4.6260   -7.7680 ha        1 NBL      0.164500
     44 H16         0.2640   -3.8210   -5.9680 ha        1 NBL      0.146500
     45 H19         1.0870    1.0720   -1.8060 hn        1 NBL      0.482300
     46 H20         3.1280    1.7140   -3.1020 hx        1 NBL      0.137700
     47 H211        0.4060    2.7440   -3.2860 hc        1 NBL      0.102200
     48 H212        1.8820    3.4900   -4.0070 hc        1 NBL      0.102200
     49 H221       -0.3700    2.2640   -5.4610 h1        1 NBL      0.114200
     50 H222        1.1650    2.9620   -6.1480 h1        1 NBL      0.114200
     51 H241        3.3250    1.1180   -5.4010 h1        1 NBL      0.116700
     52 H242        2.6320   -0.4590   -4.7980 h1        1 NBL      0.116700
     53 H62         2.7670   -3.1230   -1.3930 hn        1 NBL      0.494300
     54 H192        0.6820    0.0020   -3.0380 hn        1 NBL      0.482300
@<TRIPOS>BOND
     1    1    2 1   
     2    1   27 1   
     3    1   28 1   
     4    1   29 1   
     5    2    3 1   
     6    2    4 1   
     7    2   30 1   
     8    3   31 1   
     9    3   32 1   
    10    3   33 1   
    11    4    5 1   
    12    4   34 1   
    13    4   35 1   
    14    5    6 1   
    15    5   17 1   
    16    5   36 1   
    17    6    7 1   
    18    6   37 1   
    19    6   53 1   
    20    7    8 2   
    21    7    9 1   
    22    9   10 1   
    23   10   11 1   
    24   10   38 1   
    25   10   39 1   
    26   11   12 ar  
    27   11   16 ar  
    28   12   13 ar  
    29   12   40 1   
    30   13   14 ar  
    31   13   41 1   
    32   14   15 ar  
    33   14   42 1   
    34   15   16 ar  
    35   15   43 1   
    36   16   44 1   
    37   17   18 2   
    38   17   19 1   
    39   19   20 1   
    40   19   45 1   
    41   19   54 1   
    42   20   21 1   
    43   20   24 1   
    44   20   46 1   
    45   21   22 1   
    46   21   47 1   
    47   21   48 1   
    48   22   23 1   
    49   22   49 1   
    50   22   50 1   
    51   23   24 1   
    52   23   25 1   
    53   24   51 1   
    54   24   52 1   
    55   25   26 3   
@<TRIPOS>SUBSTRUCTURE
     1 NBL         1 TEMP              0 ****  ****    0 ROOT
