@<TRIPOS>MOLECULE
NBN
   15    14     1     0     0
SMALL
bcc


@<TRIPOS>ATOM
      1 C          -3.0980   -0.4350    0.0000 c1        1 NBN      0.431800
      2 N          -2.0300    0.0680    0.0000 n1        1 NBN     -0.848300
      3 C1         -0.7630    0.6750   -0.0000 c3        1 NBN      0.274100
      4 C2          0.4150   -0.3040   -0.0000 c3        1 NBN     -0.096400
      5 C3          1.7190    0.4660   -0.0000 c3        1 NBN     -0.080400
      6 C4          2.9030   -0.4660    0.0000 c3        1 NBN     -0.093100
      7 H11        -0.6850    1.3370    0.9130 h1        1 NBN      0.055700
      8 H12        -0.6850    1.3370   -0.9130 h1        1 NBN      0.055700
      9 H21         0.3670   -0.9660   -0.9040 hc        1 NBN      0.054700
     10 H22         0.3670   -0.9660    0.9040 hc        1 NBN      0.054700
     11 H31         1.7630    1.1310    0.9030 hc        1 NBN      0.041700
     12 H32         1.7630    1.1310   -0.9030 hc        1 NBN      0.041700
     13 H41         3.8540    0.1190    0.0000 hc        1 NBN      0.037033
     14 H42         2.8910   -1.1200    0.9050 hc        1 NBN      0.037033
     15 H43         2.8910   -1.1200   -0.9050 hc        1 NBN      0.037033
@<TRIPOS>BOND
     1    1    2 3   
     2    2    3 1   
     3    3    4 1   
     4    3    7 1   
     5    3    8 1   
     6    4    5 1   
     7    4    9 1   
     8    4   10 1   
     9    5    6 1   
    10    5   11 1   
    11    5   12 1   
    12    6   13 1   
    13    6   14 1   
    14    6   15 1   
@<TRIPOS>SUBSTRUCTURE
     1 NBN         1 TEMP              0 ****  ****    0 ROOT
