@<TRIPOS>MOLECULE
NBN
   15    14     1     0     0
SMALL
bcc


@<TRIPOS>ATOM
      1 C          -1.0980    0.0470   -2.3520 c1        1 NBN      0.431800
      2 N          -0.5870   -0.0100   -1.2890 n1        1 NBN     -0.848300
      3 C1          0.0110   -0.0790   -0.0200 c3        1 NBN      0.274100
      4 C2          1.5400    0.0120   -0.0280 c3        1 NBN     -0.096400
      5 C3          2.0640   -0.0740    1.3900 c3        1 NBN     -0.080400
      6 C4          3.5680    0.0120    1.4210 c3        1 NBN     -0.093100
      7 H11        -0.2930   -1.0540    0.4640 h1        1 NBN      0.055700
      8 H12        -0.4000    0.7620    0.6140 h1        1 NBN      0.055700
      9 H21         1.8670    0.9780   -0.4940 hc        1 NBN      0.054700
     10 H22         1.9730   -0.8210   -0.6420 hc        1 NBN      0.054700
     11 H31         1.7320   -1.0400    1.8560 hc        1 NBN      0.041700
     12 H32         1.6260    0.7570    2.0030 hc        1 NBN      0.041700
     13 H41         3.9370   -0.0530    2.4740 hc        1 NBN      0.037033
     14 H42         3.9180    0.9780    0.9840 hc        1 NBN      0.037033
     15 H43         4.0240   -0.8230    0.8360 hc        1 NBN      0.037033
@<TRIPOS>BOND
     1    1    2 3   
     2    2    3 1   
     3    3    4 1   
     4    3    7 1   
     5    3    8 1   
     6    4    5 1   
     7    4    9 1   
     8    4   10 1   
     9    5    6 1   
    10    5   11 1   
    11    5   12 1   
    12    6   13 1   
    13    6   14 1   
    14    6   15 1   
@<TRIPOS>SUBSTRUCTURE
     1 NBN         1 TEMP              0 ****  ****    0 ROOT
