@<TRIPOS>MOLECULE
NBN
   15    14     1     0     0
SMALL
bcc


@<TRIPOS>ATOM
      1 C          -1.0780    0.0540   -2.3710 c1        1 NBN      0.431800
      2 N          -0.5750   -0.0050   -1.3040 n1        1 NBN     -0.848300
      3 C1          0.0150   -0.0760   -0.0310 c3        1 NBN      0.274100
      4 C2          1.5440    0.0120   -0.0290 c3        1 NBN     -0.096400
      5 C3          2.0580   -0.0750    1.3930 c3        1 NBN     -0.080400
      6 C4          3.5620    0.0070    1.4350 c3        1 NBN     -0.093100
      7 H11        -0.2940   -1.0500    0.4510 h1        1 NBN      0.055700
      8 H12        -0.3990    0.7660    0.6000 h1        1 NBN      0.055700
      9 H21         1.8760    0.9780   -0.4910 hc        1 NBN      0.054700
     10 H22         1.9790   -0.8210   -0.6400 hc        1 NBN      0.054700
     11 H31         1.7200   -1.0410    1.8560 hc        1 NBN      0.041700
     12 H32         1.6170    0.7560    2.0040 hc        1 NBN      0.041700
     13 H41         3.9220   -0.0590    2.4900 hc        1 NBN      0.037033
     14 H42         3.9160    0.9730    1.0010 hc        1 NBN      0.037033
     15 H43         4.0200   -0.8280    0.8520 hc        1 NBN      0.037033
@<TRIPOS>BOND
     1    1    2 3   
     2    2    3 1   
     3    3    4 1   
     4    3    7 1   
     5    3    8 1   
     6    4    5 1   
     7    4    9 1   
     8    4   10 1   
     9    5    6 1   
    10    5   11 1   
    11    5   12 1   
    12    6   13 1   
    13    6   14 1   
    14    6   15 1   
@<TRIPOS>SUBSTRUCTURE
     1 NBN         1 TEMP              0 ****  ****    0 ROOT
