@<TRIPOS>MOLECULE
NBO
   33    30     1     0     0
SMALL
bcc


@<TRIPOS>ATOM
      1 C1         -4.8360   -0.7520   -3.5120 c3        1 NBO     -0.273000
      2 O1         -2.7790   -0.1300   -4.5230 o         1 NBO     -0.292000
      3 C2         -3.3430   -0.4880   -3.5000 c2        1 NBO      0.224000
      4 C3         -2.5720   -0.5480   -2.1890 c3        1 NBO     -0.209000
      5 C4         -1.0660   -0.5310   -2.4830 c3        1 NBO     -0.117000
      6 C10'        0.0280   -1.7200   -0.5480 c1        1 NBO     -0.117000
      7 C1'        -0.3000   -0.5310   -1.1870 c2        1 NBO     -0.083000
      8 C11'        3.6970    1.1110    4.8710 c3        1 NBO     -0.075000
      9 C2'         0.1790    0.6760   -0.6980 c2        1 NBO     -0.103000
     10 O2'         3.5610    0.2390    3.7230 os        1 NBO     -0.211000
     11 C3'         1.0010    0.6980    0.4520 c1        1 NBO     -0.064000
     12 C4'         1.5150    1.9300    0.9360 c1        1 NBO     -0.134500
     13 C5'         2.3460    1.9480    2.0480 c1        1 NBO     -0.134500
     14 C6'         2.6780    0.7540    2.6930 c1        1 NBO      0.077000
     15 C7'         2.1720   -0.4610    2.2180 c1        1 NBO     -0.158000
     16 C8'         1.3260   -0.4780    1.0850 c1        1 NBO     -0.006000
     17 C9'         0.8400   -1.7010    0.5880 c1        1 NBO     -0.123000
     18 H1         -5.1830   -0.6320   -4.4220 hc        1 NBO      0.103000
     19 H1A        -5.2820   -0.1250   -2.9050 hc        1 NBO      0.103000
     20 H1B        -5.0100   -1.6750   -3.2150 hc        1 NBO      0.103000
     21 H3         -2.8080    0.2310   -1.6340 hc        1 NBO      0.107500
     22 H3A        -2.8040   -1.3760   -1.7100 hc        1 NBO      0.107500
     23 H4         -0.8430    0.2740   -2.9950 hc        1 NBO      0.101500
     24 H4A        -0.8270   -1.3240   -3.0030 hc        1 NBO      0.101500
     25 H10'       -0.2260   -2.5720   -0.9490 ha        1 NBO      0.131000
     26 H11'        2.8300    1.2000    5.3190 h1        1 NBO      0.083333
     27 H11A        4.0050    1.9930    4.5760 h1        1 NBO      0.083333
     28 H11B        4.3570    0.7250    5.5030 h1        1 NBO      0.083333
     29 H2'        -0.0600    1.5080   -1.1420 ha        1 NBO      0.133000
     30 H4'         1.2820    2.7720    0.4820 ha        1 NBO      0.136000
     31 H5'         2.7050    2.8020    2.3790 ha        1 NBO      0.136000
     32 H7'         2.3490   -1.2860    2.7060 ha        1 NBO      0.150000
     33 H9'         1.0690   -2.5310    1.0350 ha        1 NBO      0.135000
@<TRIPOS>BOND
     1    1    3 1   
     2    1   18 1   
     3    1   19 1   
     4    1   20 1   
     5    2    3 1   
     6    3    4 1   
     7    4    5 1   
     8    4   21 1   
     9    4   22 1   
    10    5    7 1   
    11    5   23 1   
    12    5   24 1   
    13    6    7 1   
    14    6   25 1   
    15    7    9 1   
    16    8   10 1   
    17    8   26 1   
    18    8   27 1   
    19    8   28 1   
    20    9   11 1   
    21    9   29 1   
    22   10   14 1   
    23   11   16 1   
    24   12   13 1   
    25   12   30 1   
    26   13   31 1   
    27   14   15 1   
    28   15   32 1   
    29   16   17 1   
    30   17   33 1   
@<TRIPOS>SUBSTRUCTURE
     1 NBO         1 TEMP              0 ****  ****    0 ROOT
