@<TRIPOS>MOLECULE
NBO
   33    34     1     0     0
SMALL
bcc


@<TRIPOS>ATOM
      1 C1          5.8730    0.5130   -1.4210 c3        1 NBO     -0.205100
      2 O1          5.5290    0.0780    0.9080 o         1 NBO     -0.531100
      3 C2          5.0380    0.2050   -0.2180 c         1 NBO      0.563100
      4 C3          3.5680    0.0600   -0.4930 c3        1 NBO     -0.180400
      5 C4          2.7430   -0.0160    0.7760 c3        1 NBO     -0.031100
      6 C10'        0.8850   -1.5250    0.0230 ca        1 NBO     -0.117000
      7 C1'         1.3040   -0.2440    0.4790 ca        1 NBO     -0.089300
      8 C11'       -5.9870    0.7130   -0.2920 c3        1 NBO      0.114700
      9 C2'         0.3710    0.7530    0.6510 ca        1 NBO     -0.105000
     10 C3'        -1.0040    0.5220    0.3730 ca        1 NBO     -0.064000
     11 C4'        -1.9790    1.5400    0.5450 ca        1 NBO     -0.085000
     12 C5'        -3.3040    1.3040    0.2740 ca        1 NBO     -0.184000
     13 C6'        -3.7070    0.0220   -0.1860 ca        1 NBO      0.122100
     14 C7'        -2.7830   -0.9950   -0.3640 ca        1 NBO     -0.158000
     15 C8'        -1.4150   -0.7560   -0.0850 ca        1 NBO     -0.006000
     16 C9'        -0.4340   -1.7750   -0.2520 ca        1 NBO     -0.123000
     17 H1          6.9600    0.4220   -1.1830 hc        1 NBO      0.063700
     18 H1A         5.6210   -0.1860   -2.2540 hc        1 NBO      0.063700
     19 H1B         5.6650    1.5590   -1.7570 hc        1 NBO      0.063700
     20 H3          3.2300    0.9260   -1.1210 hc        1 NBO      0.068200
     21 H3A         3.4170   -0.8730   -1.1010 hc        1 NBO      0.068200
     22 H4          3.1340   -0.8510    1.4200 hc        1 NBO      0.062700
     23 H4A         2.8780    0.9340    1.3600 hc        1 NBO      0.062700
     24 H10'        1.6430   -2.3130   -0.1010 ha        1 NBO      0.132000
     25 H11'       -6.9470    0.2160   -0.5840 h1        1 NBO      0.043700
     26 H11A       -6.0190    1.0290    0.7790 h1        1 NBO      0.043700
     27 H11B       -5.7800    1.5880   -0.9540 h1        1 NBO      0.043700
     28 H2'         0.6730    1.7500    1.0090 ha        1 NBO      0.132000
     29 H4'        -1.6520    2.5280    0.9030 ha        1 NBO      0.134000
     30 H5'        -4.0480    2.1020    0.4110 ha        1 NBO      0.138000
     31 H7'        -3.1070   -1.9830   -0.7190 ha        1 NBO      0.150000
     32 H9'        -0.7600   -2.7660   -0.6030 ha        1 NBO      0.135000
     33 O2'        -5.0160   -0.3080   -0.4880 os        1 NBO     -0.327900
@<TRIPOS>BOND
     1    1    3 1   
     2    1   17 1   
     3    1   18 1   
     4    1   19 1   
     5    2    3 2   
     6    3    4 1   
     7    4    5 1   
     8    4   20 1   
     9    4   21 1   
    10    5    7 1   
    11    5   22 1   
    12    5   23 1   
    13    6    7 ar  
    14    6   16 ar  
    15    6   24 1   
    16    7    9 ar  
    17    8   25 1   
    18    8   26 1   
    19    8   27 1   
    20    8   33 1   
    21    9   10 ar  
    22    9   28 1   
    23   10   11 ar  
    24   10   15 ar  
    25   11   12 ar  
    26   11   29 1   
    27   12   13 ar  
    28   12   30 1   
    29   13   14 ar  
    30   13   33 1   
    31   14   15 ar  
    32   14   31 1   
    33   15   16 ar  
    34   16   32 1   
@<TRIPOS>SUBSTRUCTURE
     1 NBO         1 TEMP              0 ****  ****    0 ROOT
