@<TRIPOS>MOLECULE
NBO
   33    32     1     0     0
SMALL
bcc


@<TRIPOS>ATOM
      1 C1         -1.0410    0.7900   -1.7110 c3        1 NBO     -0.290000
      2 O1          0.6410   -0.3170   -0.4040 o         1 NBO     -0.297000
      3 C2         -0.0480   -0.2820   -1.4250 c2        1 NBO      0.186000
      4 C3          2.7640   -0.1030    2.3070 c2        1 NBO     -0.197000
      5 C4          3.8720   -0.8400    2.4200 c2        1 NBO     -0.139000
      6 C10'        5.8820   -1.7500    3.5450 c2        1 NBO     -0.094000
      7 C1'         4.8210   -0.7480    3.5280 c2        1 NBO      0.001000
      8 C11'        8.9040    3.2130    7.4770 c3        1 NBO     -0.076000
      9 C2'         4.7230    0.1880    4.4530 c1        1 NBO     -0.124000
     10 C3'         4.6240    1.0820    5.3940 c2        1 NBO     -0.148000
     11 C4'         5.2920    2.4120    5.3820 c3        1 NBO     -0.167000
     12 C5'         6.5380    2.6120    6.0810 c1        1 NBO     -0.073000
     13 C6'         7.4250    1.5600    6.6040 c3        1 NBO      0.109000
     14 C7'         7.4350    0.3500    5.8210 c1        1 NBO     -0.157000
     15 C8'         7.3120   -0.6160    5.1210 c1        1 NBO     -0.095000
     16 C9'         7.0190   -1.6860    4.2670 c2        1 NBO     -0.058000
     17 H1         -2.0560    0.3370   -1.8310 hc        1 NBO      0.105000
     18 H1A        -1.0770    1.5440   -0.8870 hc        1 NBO      0.105000
     19 H1B        -0.7690    1.3080   -2.6630 hc        1 NBO      0.105000
     20 H3          0.0400   -1.0710   -2.2070 h4        1 NBO      0.085000
     21 H3A         2.4710    0.6450    3.0560 ha        1 NBO      0.126500
     22 H4          2.0800   -0.2070    1.4520 ha        1 NBO      0.126500
     23 H4A         4.1300   -1.5830    1.6460 ha        1 NBO      0.126000
     24 H10'        5.7140   -2.6200    2.8860 ha        1 NBO      0.135000
     25 H11'        8.5930    3.0380    8.5370 h1        1 NBO      0.080333
     26 H11A        8.2920    4.0340    7.0280 h1        1 NBO      0.080333
     27 H11B        9.9960    3.4520    7.4220 h1        1 NBO      0.080333
     28 H2'         4.0090    0.8740    6.2890 ha        1 NBO      0.141000
     29 H4'         5.5440    2.7280    4.3190 hc        1 NBO      0.152500
     30 H5'         4.5600    3.1850    5.7640 hc        1 NBO      0.152500
     31 H7'         7.0340    1.3340    7.6540 h1        1 NBO      0.126000
     32 H9'         7.7750   -2.4890    4.2040 ha        1 NBO      0.145000
     33 O2'         8.7820    2.0150    6.7280 os        1 NBO     -0.252000
@<TRIPOS>BOND
     1    1    3 1   
     2    1   17 1   
     3    1   18 1   
     4    1   19 1   
     5    2    3 1   
     6    3   20 1   
     7    4    5 1   
     8    4   21 1   
     9    4   22 1   
    10    5    7 1   
    11    5   23 1   
    12    6    7 1   
    13    6   16 1   
    14    6   24 1   
    15    7    9 1   
    16    8   25 1   
    17    8   26 1   
    18    8   27 1   
    19    8   33 1   
    20    9   10 1   
    21   10   11 1   
    22   10   28 1   
    23   11   12 1   
    24   11   29 1   
    25   11   30 1   
    26   12   13 1   
    27   13   14 1   
    28   13   31 1   
    29   13   33 1   
    30   14   15 1   
    31   15   16 1   
    32   16   32 1   
@<TRIPOS>SUBSTRUCTURE
     1 NBO         1 TEMP              0 ****  ****    0 ROOT
