@<TRIPOS>MOLECULE
NBO
   33    34     1     0     0
SMALL
bcc


@<TRIPOS>ATOM
      1 C1          0.0120    0.0240   -3.0230 c3        1 NBO     -0.222100
      2 O1          0.6790    0.0090   -0.7170 o         1 NBO     -0.534100
      3 C2          0.9780   -0.1470   -1.9020 c         1 NBO      0.565900
      4 C3          2.1490    0.4750    2.3570 c2        1 NBO     -0.206000
      5 C4          3.0470   -0.3740    2.8620 ce        1 NBO     -0.136000
      6 C10'        4.4120   -1.3330    4.6980 ce        1 NBO     -0.110000
      7 C1'         3.8210   -0.1520    4.0750 ce        1 NBO     -0.055000
      8 C11'       10.0410    2.4790    6.3730 c3        1 NBO      0.114700
      9 C2'         4.0220    1.0800    4.6040 c2        1 NBO     -0.128200
     10 C3'         4.7470    1.2490    5.8800 c3        1 NBO     -0.009100
     11 C4'         5.5930    2.5180    6.0770 c2        1 NBO     -0.072200
     12 C5'         6.7770    2.1130    6.5360 ce        1 NBO     -0.275200
     13 C6'         8.0200    1.4380    6.9860 cx        1 NBO      0.346500
     14 C7'         6.8660    0.6280    6.5650 ce        1 NBO     -0.215200
     15 C8'         5.7360    0.0750    6.1200 cf        1 NBO      0.006800
     16 C9'         5.3300   -1.2300    5.6850 cf        1 NBO     -0.110000
     17 H1         -0.0680   -0.9320   -3.5960 hc        1 NBO      0.065700
     18 H1A        -1.0020    0.3070   -2.6500 hc        1 NBO      0.065700
     19 H1B         0.3790    0.8220   -3.7140 hc        1 NBO      0.065700
     20 H3          2.0120   -0.4300   -2.2030 h4        1 NBO     -0.006800
     21 H3A         1.9030    1.4350    2.8270 ha        1 NBO      0.123500
     22 H4          1.5950    0.2540    1.4320 ha        1 NBO      0.123500
     23 H4A         3.2470   -1.3350    2.3560 ha        1 NBO      0.123000
     24 H10'        4.0960   -2.3140    4.3140 ha        1 NBO      0.133000
     25 H11'       10.4340    2.4380    7.4190 h1        1 NBO      0.041367
     26 H11A        9.5430    3.4610    6.1850 h1        1 NBO      0.041367
     27 H11B       10.8640    2.3040    5.6350 h1        1 NBO      0.041367
     28 H2'         3.9850    1.2380    6.7160 hc        1 NBO      0.092700
     29 H4'         3.6180    1.9900    4.1380 ha        1 NBO      0.135000
     30 H5'         5.1920    3.5110    5.8910 ha        1 NBO      0.152000
     31 H7'         8.3000    1.4910    8.0630 h1        1 NBO      0.086700
     32 H9'         5.8180   -2.1090    6.1300 ha        1 NBO      0.141000
     33 O2'         9.1360    1.4070    6.1370 os        1 NBO     -0.385600
@<TRIPOS>BOND
     1    1    3 1   
     2    1   17 1   
     3    1   18 1   
     4    1   19 1   
     5    2    3 2   
     6    3   20 1   
     7    4    5 2   
     8    4   21 1   
     9    4   22 1   
    10    5    7 1   
    11    5   23 1   
    12    6    7 1   
    13    6   16 2   
    14    6   24 1   
    15    7    9 2   
    16    8   25 1   
    17    8   26 1   
    18    8   27 1   
    19    8   33 1   
    20    9   10 1   
    21    9   29 1   
    22   10   11 1   
    23   10   15 1   
    24   10   28 1   
    25   11   12 2   
    26   11   30 1   
    27   12   13 1   
    28   12   14 1   
    29   13   14 1   
    30   13   31 1   
    31   13   33 1   
    32   14   15 2   
    33   15   16 1   
    34   16   32 1   
@<TRIPOS>SUBSTRUCTURE
     1 NBO         1 TEMP              0 ****  ****    0 ROOT
