@<TRIPOS>MOLECULE
NBQ
   52    54     1     0     0
SMALL
bcc


@<TRIPOS>ATOM
      1 N           5.1480  -13.6060    5.6960 n3        1 NBQ     -0.888800
      2 CA          4.8150  -12.2080    5.9490 c3        1 NBQ      0.032500
      3 CB          3.3060  -12.0270    6.1930 c3        1 NBQ     -0.017100
      4 CQ1         2.7620  -10.7490    5.6610 ca        1 NBQ     -0.095300
      5 CQ2         1.4470  -10.6650    5.1530 ca        1 NBQ      0.143100
      6 OQ2         0.6970  -11.8220    5.1400 oh        1 NBQ     -0.494100
      7 CQ3         0.9170   -9.4580    4.6860 ca        1 NBQ     -0.262000
      8 CQ4         1.7020   -8.2960    4.7270 ca        1 NBQ      0.169100
      9 OQ4         1.1020   -7.1550    4.2440 oh        1 NBQ     -0.514100
     10 CQ5         3.0230   -8.3480    5.2210 ca        1 NBQ     -0.047400
     11 CQ6         3.5200   -9.5820    5.6800 ca        1 NBQ     -0.095000
     12 NQ5         3.8380   -7.1680    5.2520 nh        1 NBQ     -0.597400
     13 CAD         4.4500   -6.9160    6.5120 c2        1 NBQ      0.152800
     14 CAC         3.7110   -6.4840    7.5650 ce        1 NBQ     -0.312200
     15 CAB         4.2460   -6.1810    8.8890 c         1 NBQ      0.577100
     16 OAA         3.6490   -5.4630    9.7000 o         1 NBQ     -0.561100
     17 CAE         5.9410   -7.1350    6.6590 c3        1 NBQ      0.107600
     18 OAF         6.5800   -6.7980    5.4170 os        1 NBQ     -0.356900
     19 CAG         7.8880   -7.2430    5.2940 ca        1 NBQ      0.118100
     20 CAP         8.2600   -8.5900    5.5610 ca        1 NBQ     -0.148000
     21 CAO         9.5530   -8.9830    5.3220 ca        1 NBQ     -0.106000
     22 CAN        10.5180   -8.0740    4.8080 ca        1 NBQ     -0.053000
     23 CAM        11.8590   -8.4710    4.5540 ca        1 NBQ     -0.107000
     24 CAI        10.1330   -6.7340    4.5400 ca        1 NBQ     -0.024000
     25 CAH         8.7990   -6.3270    4.8000 ca        1 NBQ     -0.161000
     26 CAJ        11.0990   -5.8270    4.0230 ca        1 NBQ     -0.122000
     27 CAK        12.3880   -6.2390    3.7880 ca        1 NBQ     -0.137000
     28 CAL        12.7720   -7.5750    4.0560 ca        1 NBQ     -0.148000
     29 C           5.6190  -11.6250    7.1550 c         1 NBQ      0.888600
     30 OXT         6.1280  -10.4660    7.0340 o         1 NBQ     -0.851800
     31 O           5.7560  -12.3390    8.1830 o         1 NBQ     -0.851800
     32 H           4.8870  -14.1440    6.5040 hn        1 NBQ      0.333800
     33 H2          6.1470  -13.6740    5.6140 hn        1 NBQ      0.333800
     34 HA          5.1070  -11.6310    5.0250 h1        1 NBQ      0.047700
     35 HB2         2.7310  -12.8770    5.7330 hc        1 NBQ      0.059700
     36 HB3         3.1200  -12.0630    7.3020 hc        1 NBQ      0.059700
     37 HQ2        -0.1560  -11.6140    4.7340 ho        1 NBQ      0.407000
     38 HQ3        -0.1060   -9.4000    4.2920 ha        1 NBQ      0.137000
     39 HQ4         1.6880   -6.4040    4.4230 ho        1 NBQ      0.435000
     40 HQ6         4.5560   -9.6330    6.0850 ha        1 NBQ      0.211000
     41 HQ5         4.5340   -7.2210    4.5250 hn        1 NBQ      0.401800
     42 HAC         2.6190   -6.3550    7.4680 ha        1 NBQ      0.153000
     43 HAB         5.2200   -6.6520    9.1600 h4        1 NBQ     -0.001800
     44 HAE1        6.1150   -8.2200    6.9300 h1        1 NBQ      0.092700
     45 HAE2        6.3740   -6.4650    7.4470 h1        1 NBQ      0.092700
     46 HAP         7.5150   -9.3130    5.9550 ha        1 NBQ      0.221000
     47 HAO         9.8580  -10.0220    5.5250 ha        1 NBQ      0.142000
     48 HAM        12.1470   -9.5120    4.7670 ha        1 NBQ      0.129000
     49 HAH         8.4940   -5.2920    4.5930 ha        1 NBQ      0.139000
     50 HAJ        10.7910   -4.7920    3.8180 ha        1 NBQ      0.125000
     51 HAK        13.1360   -5.5390    3.3890 ha        1 NBQ      0.120000
     52 HAL        13.8090   -7.8810    3.8600 ha        1 NBQ      0.121000
@<TRIPOS>BOND
     1    1    2 1   
     2    1   32 1   
     3    1   33 1   
     4    2    3 1   
     5    2   29 1   
     6    2   34 1   
     7    3    4 1   
     8    3   35 1   
     9    3   36 1   
    10    4    5 ar  
    11    4   11 ar  
    12    5    6 1   
    13    5    7 ar  
    14    6   37 1   
    15    7    8 ar  
    16    7   38 1   
    17    8    9 1   
    18    8   10 ar  
    19    9   39 1   
    20   10   11 ar  
    21   10   12 1   
    22   11   40 1   
    23   12   13 1   
    24   12   41 1   
    25   13   14 2   
    26   13   17 1   
    27   14   15 1   
    28   14   42 1   
    29   15   16 2   
    30   15   43 1   
    31   17   18 1   
    32   17   44 1   
    33   17   45 1   
    34   18   19 1   
    35   19   20 ar  
    36   19   25 ar  
    37   20   21 ar  
    38   20   46 1   
    39   21   22 ar  
    40   21   47 1   
    41   22   23 ar  
    42   22   24 ar  
    43   23   28 ar  
    44   23   48 1   
    45   24   25 ar  
    46   24   26 ar  
    47   25   49 1   
    48   26   27 ar  
    49   26   50 1   
    50   27   28 ar  
    51   27   51 1   
    52   28   52 1   
    53   29   30 1   
    54   29   31 1   
@<TRIPOS>SUBSTRUCTURE
     1 NBQ         1 TEMP              0 ****  ****    0 ROOT
