@<TRIPOS>MOLECULE
NBS
   52    55     1     0     0
SMALL
bcc


@<TRIPOS>ATOM
      1 PB          0.0000    0.0000    0.0000 p5        1 NBS      0.790900
      2 O4P         1.6100    0.0000    0.0000 o         1 NBS     -0.611167
      3 O5P        -0.5370    0.0000    1.5180 o         1 NBS     -0.611167
      4 O6P        -0.4920   -1.2090   -0.6980 o         1 NBS     -0.611167
      5 PA         -2.1440    1.2490   -0.7220 p5        1 NBS      0.874800
      6 O1P        -2.6440   -0.0870   -1.4700 o         1 NBS     -0.672000
      7 O2P        -2.6040    1.2290    0.6840 o         1 NBS     -0.672000
      8 O3P        -0.5370    1.3140   -0.7600 os        1 NBS     -0.461800
      9 O5'        -2.7520    2.5390   -1.4690 os        1 NBS     -0.469200
     10 C5'        -4.1740    2.4230   -1.4020 c3        1 NBS      0.246400
     11 C4'        -4.8170    3.6260   -2.0980 c3        1 NBS      0.150100
     12 O4'        -4.4400    3.6610   -3.4930 os        1 NBS     -0.356600
     13 C1'        -5.4390    4.4780   -4.1390 c3        1 NBS      0.128800
     14 N9         -5.4720    4.2070   -5.5780 na        1 NBS      0.225000
     15 C4         -5.9010    5.0660   -6.5570 ca        1 NBS      0.251800
     16 N3         -6.3730    6.3090   -6.5730 nb        1 NBS     -0.694000
     17 C2         -6.7020    6.8860   -7.7100 ca        1 NBS      0.661900
     18 N1         -6.5800    6.2770   -8.8760 nb        1 NBS     -0.781000
     19 C6         -6.1120    5.0370   -8.9590 ca        1 NBS      0.598200
     20 N6         -5.9880    4.4070  -10.1840 nu        1 NBS     -0.474900
     21 CB1        -6.3740    5.1100  -11.4100 c3        1 NBS      0.249100
     22 CB2        -6.1430    4.2110  -12.5980 ca        1 NBS     -0.264300
     23 CB3        -7.1500    3.3730  -13.0360 ca        1 NBS     -0.107000
     24 CB4        -6.9380    2.5490  -14.1260 ca        1 NBS     -0.121500
     25 CB5        -5.7190    2.5630  -14.7770 ca        1 NBS     -0.284000
     26 CB6        -4.7120    3.4020  -14.3390 ca        1 NBS     -0.121500
     27 CB7        -4.9250    4.2300  -13.2520 ca        1 NBS     -0.107000
     28 C5         -5.7470    4.3780   -7.7720 ca        1 NBS     -0.243200
     29 N7         -5.2480    3.1550   -7.4760 nc        1 NBS     -0.516100
     30 C8         -5.0860    3.0520   -6.1890 cd        1 NBS      0.263700
     31 C2'        -6.7740    4.0620   -3.4830 c3        1 NBS      0.114100
     32 O2'        -7.6270    5.1950   -3.3130 oh        1 NBS     -0.553800
     33 C3'        -6.3550    3.4900   -2.1110 c3        1 NBS      0.127100
     34 O3'        -6.9350    4.2550   -1.0510 oh        1 NBS     -0.564800
     35 H5'1       -4.4850    1.5110   -1.8970 h1        1 NBS      0.014200
     36 H5'2       -4.4860    2.3960   -0.3650 h1        1 NBS      0.014200
     37 H4'        -4.5280    4.5480   -1.6090 h1        1 NBS      0.029700
     38 H1'        -5.2420    5.5270   -3.9520 h2        1 NBS      0.056700
     39 H2         -7.0880    7.8980   -7.6890 h5        1 NBS     -0.026900
     40 H6         -5.6090    3.4820  -10.2350 hn        1 NBS      0.311800
     41 HB11       -5.7760    6.0070  -11.5150 h1        1 NBS      0.004700
     42 HB12       -7.4220    5.3780  -11.3580 h1        1 NBS      0.004700
     43 HB3        -8.1140    3.3810  -12.5430 ha        1 NBS      0.079500
     44 HB4        -7.7270    1.8910  -14.4680 ha        1 NBS      0.067000
     45 HB5        -5.5660    1.9450  -15.6540 ha        1 NBS      0.075000
     46 HB6        -3.7540    3.4080  -14.8440 ha        1 NBS      0.067000
     47 HB7        -4.0530    4.8640  -13.1460 ha        1 NBS      0.079500
     48 H8         -4.7000    2.1770   -5.6790 h5        1 NBS      0.060800
     49 H2'        -7.2620    3.2980   -4.0760 h1        1 NBS      0.007700
     50 HO'2       -8.5160    4.9530   -3.5150 ho        1 NBS      0.372000
     51 H3'        -6.6420    2.4480   -2.0340 h1        1 NBS      0.023700
     52 HO'3       -7.5240    3.7100   -0.5560 ho        1 NBS      0.374000
@<TRIPOS>BOND
     1    1    2 1   
     2    1    3 1   
     3    1    4 1   
     4    1    8 1   
     5    5    6 1   
     6    5    7 1   
     7    5    8 1   
     8    5    9 1   
     9    9   10 1   
    10   10   11 1   
    11   10   35 1   
    12   10   36 1   
    13   11   12 1   
    14   11   33 1   
    15   11   37 1   
    16   12   13 1   
    17   13   14 1   
    18   13   31 1   
    19   13   38 1   
    20   14   15 1   
    21   14   30 1   
    22   15   16 ar  
    23   15   28 ar  
    24   16   17 ar  
    25   17   18 ar  
    26   17   39 1   
    27   18   19 ar  
    28   19   20 1   
    29   19   28 ar  
    30   20   21 1   
    31   20   40 1   
    32   21   22 1   
    33   21   41 1   
    34   21   42 1   
    35   22   23 ar  
    36   22   27 ar  
    37   23   24 ar  
    38   23   43 1   
    39   24   25 ar  
    40   24   44 1   
    41   25   26 ar  
    42   25   45 1   
    43   26   27 ar  
    44   26   46 1   
    45   27   47 1   
    46   28   29 1   
    47   29   30 2   
    48   30   48 1   
    49   31   32 1   
    50   31   33 1   
    51   31   49 1   
    52   32   50 1   
    53   33   34 1   
    54   33   51 1   
    55   34   52 1   
@<TRIPOS>SUBSTRUCTURE
     1 NBS         1 TEMP              0 ****  ****    0 ROOT
