@<TRIPOS>MOLECULE
NBT
   16    15     1     0     0
SMALL
bcc


@<TRIPOS>ATOM
      1 C1          0.1340   -2.0450   -0.2270 c3        1 NBT     -0.111100
      2 C2         -0.2170   -0.5800   -0.4230 c3        1 NBT     -0.056000
      3 C3         -1.4980   -0.2270    0.3320 c3        1 NBT     -0.092400
      4 C4         -2.0470    1.1180   -0.0630 c3        1 NBT     -0.105100
      5 NCG         0.9500    0.3150    0.0280 no        1 NBT      0.227300
      6 H1C1        0.3040   -2.2710    0.8540 hc        1 NBT      0.062367
      7 H1C2       -0.7150   -2.6680   -0.5990 hc        1 NBT      0.062367
      8 H1C3        1.0520   -2.3180   -0.8010 hc        1 NBT      0.062367
      9 H2         -0.3430   -0.3530   -1.5220 h1        1 NBT      0.098700
     10 H3C1       -1.3050   -0.2570    1.4380 hc        1 NBT      0.069200
     11 H3C2       -2.2520   -1.0260    0.0990 hc        1 NBT      0.069200
     12 H4C1       -2.2300    1.1670   -1.1640 hc        1 NBT      0.046033
     13 H4C2       -3.0160    1.3000    0.4640 hc        1 NBT      0.046033
     14 H4C3       -1.3410    1.9390    0.2120 hc        1 NBT      0.046033
     15 O15         1.2870    0.3040    1.1790 o         1 NBT     -0.212500
     16 O16         1.4910    0.9960   -0.7980 o         1 NBT     -0.212500
@<TRIPOS>BOND
     1    1    2 1   
     2    1    6 1   
     3    1    7 1   
     4    1    8 1   
     5    2    3 1   
     6    2    5 1   
     7    2    9 1   
     8    3    4 1   
     9    3   10 1   
    10    3   11 1   
    11    4   12 1   
    12    4   13 1   
    13    4   14 1   
    14    5   15 1   
    15    5   16 1   
@<TRIPOS>SUBSTRUCTURE
     1 NBT         1 TEMP              0 ****  ****    0 ROOT
