@<TRIPOS>MOLECULE
NBT
   16    14     1     0     0
SMALL
bcc


@<TRIPOS>ATOM
      1 C1         -0.9270   -0.8990    0.6610 c3        1 NBT     -0.279000
      2 C2          3.3540    0.2820   -0.2120 c3        1 NBT     -0.121000
      3 C3          2.5770    0.2490    1.0960 c3        1 NBT     -0.268000
      4 C4          3.2370   -0.5620    2.1010 c1        1 NBT     -0.038000
      5 NCG         3.0770   -0.9090   -1.1100 no        1 NBT      0.518000
      6 H1C1       -1.9400   -1.2740    0.3990 hc        1 NBT      0.070250
      7 H1C2       -0.1860   -1.2980   -0.0680 hc        1 NBT      0.070250
      8 H1C3       -0.6640   -1.2380    1.6870 hc        1 NBT      0.070250
      9 H2         -0.9260    0.2120    0.6260 hc        1 NBT      0.070250
     10 H3C1        3.0710    1.1820   -0.8220 h1        1 NBT      0.140500
     11 H3C2        4.4620    0.2810   -0.0160 h1        1 NBT      0.140500
     12 H4C1        2.4630    1.3140    1.4540 hc        1 NBT      0.150500
     13 H4C2        1.5240   -0.1410    0.9190 hc        1 NBT      0.150500
     14 H4C3        2.7460   -0.5900    3.0850 ha        1 NBT      0.051000
     15 O15         2.0110   -1.4590   -1.0490 o         1 NBT     -0.363500
     16 O16         3.9300   -1.2430   -1.8850 o         1 NBT     -0.363500
@<TRIPOS>BOND
     1    1    6 1   
     2    1    7 1   
     3    1    8 1   
     4    1    9 1   
     5    2    3 1   
     6    2    5 1   
     7    2   10 1   
     8    2   11 1   
     9    3    4 1   
    10    3   12 1   
    11    3   13 1   
    12    4   14 1   
    13    5   15 1   
    14    5   16 1   
@<TRIPOS>SUBSTRUCTURE
     1 NBT         1 TEMP              0 ****  ****    0 ROOT
