@<TRIPOS>MOLECULE
NBV
   36    36     1     0     0
SMALL
bcc


@<TRIPOS>ATOM
      1 O9          0.3320    2.9160    0.7760 oh        1 NBV     -0.595800
      2 C12        -0.1580    2.5160   -0.4860 c3        1 NBV      0.132400
      3 C11        -0.5030    1.0170   -0.6040 c3        1 NBV      0.141500
      4 C10        -1.9130    0.7850   -0.0050 c3        1 NBV      0.148100
      5 O1         -2.8050    1.6130   -0.7340 oh        1 NBV     -0.603800
      6 C9         -2.3250   -0.6870   -0.1600 c3        1 NBV      0.111100
      7 O8         -3.5770   -0.8260    0.4920 oh        1 NBV     -0.611800
      8 C8         -1.2620   -1.5870    0.4780 c3        1 NBV      0.104100
      9 O7         -1.6390   -2.9210    0.1680 oh        1 NBV     -0.607800
     10 N1          0.4830    0.1290    0.0270 n3        1 NBV     -0.723600
     11 C7          0.1230   -1.2730   -0.1120 c3        1 NBV      0.134800
     12 C13         1.8390    0.4310   -0.4170 c3        1 NBV      0.163800
     13 C14         2.9210   -0.5170    0.0950 c3        1 NBV     -0.081400
     14 C15         4.2900    0.0620   -0.2010 c3        1 NBV     -0.081400
     15 C16         5.3870   -0.8710    0.2450 c3        1 NBV     -0.093100
     16 H9         -0.2320    2.5150    1.4470 ho        1 NBV      0.406000
     17 H121       -1.0800    3.1080   -0.7390 h1        1 NBV      0.058700
     18 H122        0.6630    2.7830   -1.2060 h1        1 NBV      0.058700
     19 H11        -0.5830    0.8020   -1.7160 h1        1 NBV      0.045700
     20 H10        -1.9380    1.0730    1.0830 h1        1 NBV      0.055700
     21 H1         -3.6960    1.3810   -0.4370 ho        1 NBV      0.425000
     22 HA         -2.4410   -0.9460   -1.2500 h1        1 NBV      0.062700
     23 H8         -3.7970   -1.7660    0.4650 ho        1 NBV      0.425000
     24 HB         -1.2610   -1.4450    1.5950 h1        1 NBV      0.061700
     25 H7         -0.9720   -3.4990    0.5560 ho        1 NBV      0.410000
     26 H7C1        0.8810   -1.8850    0.4540 h1        1 NBV      0.043200
     27 H7C2        0.1350   -1.6190   -1.1870 h1        1 NBV      0.043200
     28 H131        1.9040    0.4620   -1.5450 h1        1 NBV      0.045700
     29 H132        2.0700    1.4660   -0.0260 h1        1 NBV      0.045700
     30 H141        2.8130   -0.6740    1.2000 hc        1 NBV      0.044200
     31 H142        2.8280   -1.5170   -0.4030 hc        1 NBV      0.044200
     32 H151        4.3860    0.2570   -1.3020 hc        1 NBV      0.042700
     33 H152        4.4010    1.0490    0.3210 hc        1 NBV      0.042700
     34 H161        5.3130   -1.8510   -0.2860 hc        1 NBV      0.034033
     35 H162        6.3870   -0.4260    0.0250 hc        1 NBV      0.034033
     36 H163        5.3200   -1.0620    1.3430 hc        1 NBV      0.034033
@<TRIPOS>BOND
     1    1    2 1   
     2    1   16 1   
     3    2    3 1   
     4    2   17 1   
     5    2   18 1   
     6    3    4 1   
     7    3   10 1   
     8    3   19 1   
     9    4    5 1   
    10    4    6 1   
    11    4   20 1   
    12    5   21 1   
    13    6    7 1   
    14    6    8 1   
    15    6   22 1   
    16    7   23 1   
    17    8    9 1   
    18    8   11 1   
    19    8   24 1   
    20    9   25 1   
    21   10   11 1   
    22   10   12 1   
    23   11   26 1   
    24   11   27 1   
    25   12   13 1   
    26   12   28 1   
    27   12   29 1   
    28   13   14 1   
    29   13   30 1   
    30   13   31 1   
    31   14   15 1   
    32   14   32 1   
    33   14   33 1   
    34   15   34 1   
    35   15   35 1   
    36   15   36 1   
@<TRIPOS>SUBSTRUCTURE
     1 NBV         1 TEMP              0 ****  ****    0 ROOT
