@<TRIPOS>MOLECULE
NBV
   36    36     1     0     0
SMALL
bcc


@<TRIPOS>ATOM
      1 O9          0.2450    0.4140   -0.4280 oh        1 NBV     -0.595800
      2 C12         1.5650    0.0070   -0.1360 c3        1 NBV      0.132400
      3 C11         1.9380    0.0350    1.3610 c3        1 NBV      0.141500
      4 C10         1.4110   -1.2620    2.0270 c3        1 NBV      0.148100
      5 O1          2.0080   -2.3460    1.3320 oh        1 NBV     -0.603800
      6 C9          1.8170   -1.3060    3.5070 c3        1 NBV      0.111100
      7 O8          1.2200   -2.4710    4.0540 oh        1 NBV     -0.611800
      8 C8          1.3180   -0.0420    4.2140 c3        1 NBV      0.104100
      9 O7          1.8530   -0.0900    5.5290 oh        1 NBV     -0.607800
     10 N1          1.4450    1.2220    2.0740 n3        1 NBV     -0.723600
     11 C7          1.8220    1.2110    3.4780 c3        1 NBV      0.134800
     12 C13         1.8080    2.4530    1.3810 c3        1 NBV      0.163800
     13 C14         1.4430    3.7450    2.1080 c3        1 NBV     -0.081400
     14 C15         1.6140    4.9250    1.1720 c3        1 NBV     -0.081400
     15 C16         1.3110    6.2250    1.8700 c3        1 NBV     -0.093100
     16 H9         -0.3400   -0.0200    0.2040 ho        1 NBV      0.406000
     17 H121        1.7320   -1.0370   -0.5190 h1        1 NBV      0.058700
     18 H122        2.2150    0.7220   -0.7110 h1        1 NBV      0.058700
     19 H11         3.0710   -0.0160    1.4010 h1        1 NBV      0.045700
     20 H10         0.2910   -1.3310    1.9370 h1        1 NBV      0.055700
     21 H1          1.7700   -3.1460    1.8200 ho        1 NBV      0.425000
     22 HA          2.9360   -1.3810    3.6020 h1        1 NBV      0.062700
     23 H8          1.4070   -2.4570    5.0020 ho        1 NBV      0.425000
     24 HB          0.1940   -0.0500    4.2640 h1        1 NBV      0.061700
     25 H7          1.5550    0.7060    5.9840 ho        1 NBV      0.410000
     26 H7C1        2.9390    1.2820    3.6270 h1        1 NBV      0.043200
     27 H7C2        1.3520    2.1080    3.9720 h1        1 NBV      0.043200
     28 H131        1.2460    2.4340    0.4010 h1        1 NBV      0.045700
     29 H132        2.9130    2.4810    1.1480 h1        1 NBV      0.045700
     30 H141        2.1020    3.8860    3.0040 hc        1 NBV      0.044200
     31 H142        0.3820    3.7040    2.4680 hc        1 NBV      0.044200
     32 H151        0.9330    4.8040    0.2880 hc        1 NBV      0.042700
     33 H152        2.6650    4.9430    0.7800 hc        1 NBV      0.042700
     34 H161        1.4360    7.0820    1.1640 hc        1 NBV      0.034033
     35 H162        1.9990    6.3790    2.7360 hc        1 NBV      0.034033
     36 H163        0.2610    6.2330    2.2520 hc        1 NBV      0.034033
@<TRIPOS>BOND
     1    1    2 1   
     2    1   16 1   
     3    2    3 1   
     4    2   17 1   
     5    2   18 1   
     6    3    4 1   
     7    3   10 1   
     8    3   19 1   
     9    4    5 1   
    10    4    6 1   
    11    4   20 1   
    12    5   21 1   
    13    6    7 1   
    14    6    8 1   
    15    6   22 1   
    16    7   23 1   
    17    8    9 1   
    18    8   11 1   
    19    8   24 1   
    20    9   25 1   
    21   10   11 1   
    22   10   12 1   
    23   11   26 1   
    24   11   27 1   
    25   12   13 1   
    26   12   28 1   
    27   12   29 1   
    28   13   14 1   
    29   13   30 1   
    30   13   31 1   
    31   14   15 1   
    32   14   32 1   
    33   14   33 1   
    34   15   34 1   
    35   15   35 1   
    36   15   36 1   
@<TRIPOS>SUBSTRUCTURE
     1 NBV         1 TEMP              0 ****  ****    0 ROOT
