@<TRIPOS>MOLECULE
NBV
   36    36     1     0     0
SMALL
bcc


@<TRIPOS>ATOM
      1 O9          0.2960    0.4140   -0.4540 oh        1 NBV     -0.595800
      2 C12         1.6110    0.0100   -0.1380 c3        1 NBV      0.132400
      3 C11         1.9560    0.0380    1.3650 c3        1 NBV      0.141500
      4 C10         1.4210   -1.2620    2.0200 c3        1 NBV      0.148100
      5 O1          2.0350   -2.3430    1.3350 oh        1 NBV     -0.603800
      6 C9          1.8000   -1.3060    3.5080 c3        1 NBV      0.111100
      7 O8          1.1970   -2.4740    4.0420 oh        1 NBV     -0.611800
      8 C8          1.2850   -0.0440    4.2060 c3        1 NBV      0.104100
      9 O7          1.7960   -0.0920    5.5320 oh        1 NBV     -0.607800
     10 N1          1.4470    1.2220    2.0710 n3        1 NBV     -0.723600
     11 C7          1.7980    1.2110    3.4810 c3        1 NBV      0.134800
     12 C13         1.8190    2.4550    1.3860 c3        1 NBV      0.163800
     13 C14         1.4370    3.7450    2.1070 c3        1 NBV     -0.081400
     14 C15         1.6210    4.9260    1.1760 c3        1 NBV     -0.081400
     15 C16         1.3010    6.2260    1.8690 c3        1 NBV     -0.093100
     16 H9         -0.2990   -0.0220    0.1680 ho        1 NBV      0.406000
     17 H121        2.2690    0.7270   -0.7000 h1        1 NBV      0.058700
     18 H122        1.7880   -1.0330   -0.5190 h1        1 NBV      0.058700
     19 H11         3.0890   -0.0100    1.4260 h1        1 NBV      0.045700
     20 H10         0.3040   -1.3340    1.9100 h1        1 NBV      0.055700
     21 H1          1.7900   -3.1440    1.8180 ho        1 NBV      0.425000
     22 HA          2.9180   -1.3780    3.6230 h1        1 NBV      0.062700
     23 H8          1.3660   -2.4590    4.9930 ho        1 NBV      0.425000
     24 HB          0.1600   -0.0550    4.2360 h1        1 NBV      0.061700
     25 H7          1.4870    0.7030    5.9810 ho        1 NBV      0.410000
     26 H7C1        1.3170    2.1060    3.9680 h1        1 NBV      0.043200
     27 H7C2        2.9130    1.2850    3.6510 h1        1 NBV      0.043200
     28 H131        2.9290    2.4870    1.1730 h1        1 NBV      0.045700
     29 H132        1.2750    2.4350    0.3950 h1        1 NBV      0.045700
     30 H141        0.3690    3.7010    2.4480 hc        1 NBV      0.044200
     31 H142        2.0790    3.8870    3.0150 hc        1 NBV      0.044200
     32 H151        2.6790    4.9490    0.8020 hc        1 NBV      0.042700
     33 H152        0.9560    4.8050    0.2800 hc        1 NBV      0.042700
     34 H161        1.4360    7.0830    1.1670 hc        1 NBV      0.034033
     35 H162        1.9740    6.3810    2.7480 hc        1 NBV      0.034033
     36 H163        0.2450    6.2300    2.2320 hc        1 NBV      0.034033
@<TRIPOS>BOND
     1    1    2 1   
     2    1   16 1   
     3    2    3 1   
     4    2   17 1   
     5    2   18 1   
     6    3    4 1   
     7    3   10 1   
     8    3   19 1   
     9    4    5 1   
    10    4    6 1   
    11    4   20 1   
    12    5   21 1   
    13    6    7 1   
    14    6    8 1   
    15    6   22 1   
    16    7   23 1   
    17    8    9 1   
    18    8   11 1   
    19    8   24 1   
    20    9   25 1   
    21   10   11 1   
    22   10   12 1   
    23   11   26 1   
    24   11   27 1   
    25   12   13 1   
    26   12   28 1   
    27   12   29 1   
    28   13   14 1   
    29   13   30 1   
    30   13   31 1   
    31   14   15 1   
    32   14   32 1   
    33   14   33 1   
    34   15   34 1   
    35   15   35 1   
    36   15   36 1   
@<TRIPOS>SUBSTRUCTURE
     1 NBV         1 TEMP              0 ****  ****    0 ROOT
