@<TRIPOS>MOLECULE
NBV
   36    36     1     0     0
SMALL
bcc


@<TRIPOS>ATOM
      1 O9          0.2700    0.4070   -0.4380 oh        1 NBV     -0.595800
      2 C12         1.5870    0.0010   -0.1330 c3        1 NBV      0.132400
      3 C11         1.9450    0.0330    1.3680 c3        1 NBV      0.141500
      4 C10         1.4120   -1.2620    2.0320 c3        1 NBV      0.148100
      5 O1          2.0160   -2.3480    1.3460 oh        1 NBV     -0.603800
      6 C9          1.8040   -1.3020    3.5170 c3        1 NBV      0.111100
      7 O8          1.2020   -2.4650    4.0610 oh        1 NBV     -0.611800
      8 C8          1.2990   -0.0360    4.2150 c3        1 NBV      0.104100
      9 O7          1.8220   -0.0800    5.5350 oh        1 NBV     -0.607800
     10 N1          1.4460    1.2220    2.0720 n3        1 NBV     -0.723600
     11 C7          1.8100    1.2160    3.4800 c3        1 NBV      0.134800
     12 C13         1.8160    2.4510    1.3790 c3        1 NBV      0.163800
     13 C14         1.4430    3.7450    2.0980 c3        1 NBV     -0.081400
     14 C15         1.6220    4.9220    1.1610 c3        1 NBV     -0.081400
     15 C16         1.3120    6.2250    1.8520 c3        1 NBV     -0.093100
     16 H9         -0.3210   -0.0240    0.1900 ho        1 NBV      0.406000
     17 H121        1.7570   -1.0450   -0.5110 h1        1 NBV      0.058700
     18 H122        2.2420    0.7130   -0.7030 h1        1 NBV      0.058700
     19 H11         3.0780   -0.0180    1.4180 h1        1 NBV      0.045700
     20 H10         0.2930   -1.3310    1.9320 h1        1 NBV      0.055700
     21 H1          1.7730   -3.1470    1.8350 ho        1 NBV      0.425000
     22 HA          2.9230   -1.3770    3.6220 h1        1 NBV      0.062700
     23 H8          1.3800   -2.4480    5.0100 ho        1 NBV      0.425000
     24 HB          0.1750   -0.0430    4.2540 h1        1 NBV      0.061700
     25 H7          1.5200    0.7180    5.9840 ho        1 NBV      0.410000
     26 H7C1        2.9260    1.2860    3.6390 h1        1 NBV      0.043200
     27 H7C2        1.3360    2.1140    3.9670 h1        1 NBV      0.043200
     28 H131        1.2630    2.4290    0.3940 h1        1 NBV      0.045700
     29 H132        2.9240    2.4790    1.1570 h1        1 NBV      0.045700
     30 H141        0.3790    3.7050    2.4490 hc        1 NBV      0.044200
     31 H142        2.0940    3.8890    3.0000 hc        1 NBV      0.044200
     32 H151        2.6770    4.9400    0.7780 hc        1 NBV      0.042700
     33 H152        0.9490    4.7980    0.2710 hc        1 NBV      0.042700
     34 H161        1.4430    7.0790    1.1440 hc        1 NBV      0.034033
     35 H162        0.2580    6.2330    2.2230 hc        1 NBV      0.034033
     36 H163        1.9920    6.3820    2.7240 hc        1 NBV      0.034033
@<TRIPOS>BOND
     1    1    2 1   
     2    1   16 1   
     3    2    3 1   
     4    2   17 1   
     5    2   18 1   
     6    3    4 1   
     7    3   10 1   
     8    3   19 1   
     9    4    5 1   
    10    4    6 1   
    11    4   20 1   
    12    5   21 1   
    13    6    7 1   
    14    6    8 1   
    15    6   22 1   
    16    7   23 1   
    17    8    9 1   
    18    8   11 1   
    19    8   24 1   
    20    9   25 1   
    21   10   11 1   
    22   10   12 1   
    23   11   26 1   
    24   11   27 1   
    25   12   13 1   
    26   12   28 1   
    27   12   29 1   
    28   13   14 1   
    29   13   30 1   
    30   13   31 1   
    31   14   15 1   
    32   14   32 1   
    33   14   33 1   
    34   15   34 1   
    35   15   35 1   
    36   15   36 1   
@<TRIPOS>SUBSTRUCTURE
     1 NBV         1 TEMP              0 ****  ****    0 ROOT
