@<TRIPOS>MOLECULE
NBV
   36    36     1     0     0
SMALL
bcc


@<TRIPOS>ATOM
      1 O9         -3.5640   -0.1940   -1.0270 oh        1 NBV     -0.600800
      2 C12        -2.1450   -0.1940   -1.0270 c3        1 NBV      0.149400
      3 C11        -1.6490   -0.1940    0.3770 c3        1 NBV      0.135500
      4 C10        -1.6490    1.2280    0.8960 c3        1 NBV      0.115100
      5 O1         -3.0030    1.6830    0.9990 oh        1 NBV     -0.611800
      6 C9         -0.9990    1.3430    2.2340 c3        1 NBV      0.110100
      7 O8         -0.8770    2.7400    2.5740 oh        1 NBV     -0.612800
      8 C8          0.3610    0.7200    2.2580 c3        1 NBV      0.071100
      9 O7          0.8420    0.7110    3.6070 oh        1 NBV     -0.603800
     10 N1         -0.2930   -0.8140    0.4100 n3        1 NBV     -0.706600
     11 C7          0.3540   -0.7050    1.7300 c3        1 NBV      0.132800
     12 C13         0.5500   -0.1940   -0.5950 c3        1 NBV      0.158800
     13 C14         1.3210   -1.2930   -1.3730 c3        1 NBV     -0.080400
     14 C15         2.3760   -0.6370   -2.2800 c3        1 NBV     -0.081400
     15 C16         3.0870   -1.7170   -3.1000 c3        1 NBV     -0.093100
     16 H9         -3.8600   -0.5010   -1.8060 ho        1 NBV      0.420000
     17 H121       -1.8200    0.6030   -1.4870 h1        1 NBV      0.050200
     18 H122       -1.8200   -0.9910   -1.4870 h1        1 NBV      0.050200
     19 H11        -2.2540   -0.7290    0.9250 h1        1 NBV      0.087700
     20 H10        -1.1710    1.7960    0.2620 h1        1 NBV      0.051700
     21 H1         -3.0410    2.5470    0.7950 ho        1 NBV      0.429000
     22 HA         -1.5620    0.9030    2.8980 h1        1 NBV      0.066700
     23 H8         -1.3040    2.8970    3.3360 ho        1 NBV      0.425000
     24 HB          0.9650    1.2560    1.7100 h1        1 NBV      0.050700
     25 H7          1.6790    1.0070    3.6250 ho        1 NBV      0.409000
     26 H7C1       -0.1240   -1.2740    2.3630 h1        1 NBV      0.064200
     27 H7C2        1.2750   -1.0200    1.6560 h1        1 NBV      0.064200
     28 H131        1.1870    0.4060   -0.1620 h1        1 NBV      0.035200
     29 H132       -0.0050    0.3150   -1.2160 h1        1 NBV      0.035200
     30 H141        0.6950   -1.8050   -1.9190 hc        1 NBV      0.047700
     31 H142        1.7630   -1.8900   -0.7390 hc        1 NBV      0.047700
     32 H151        3.0290   -0.1630   -1.7310 hc        1 NBV      0.039700
     33 H152        1.9390   -0.0060   -2.8830 hc        1 NBV      0.039700
     34 H161        3.5040   -2.3610   -2.4970 hc        1 NBV      0.034700
     35 H162        3.7730   -1.3030   -3.6580 hc        1 NBV      0.034700
     36 H163        2.4390   -2.1750   -3.6680 hc        1 NBV      0.034700
@<TRIPOS>BOND
     1    1    2 1   
     2    1   16 1   
     3    2    3 1   
     4    2   17 1   
     5    2   18 1   
     6    3    4 1   
     7    3   10 1   
     8    3   19 1   
     9    4    5 1   
    10    4    6 1   
    11    4   20 1   
    12    5   21 1   
    13    6    7 1   
    14    6    8 1   
    15    6   22 1   
    16    7   23 1   
    17    8    9 1   
    18    8   11 1   
    19    8   24 1   
    20    9   25 1   
    21   10   11 1   
    22   10   12 1   
    23   11   26 1   
    24   11   27 1   
    25   12   13 1   
    26   12   28 1   
    27   12   29 1   
    28   13   14 1   
    29   13   30 1   
    30   13   31 1   
    31   14   15 1   
    32   14   32 1   
    33   14   33 1   
    34   15   34 1   
    35   15   35 1   
    36   15   36 1   
@<TRIPOS>SUBSTRUCTURE
     1 NBV         1 TEMP              0 ****  ****    0 ROOT
