@<TRIPOS>MOLECULE
NBX
   46    47     1     0     0
SMALL
bcc


@<TRIPOS>ATOM
      1 O5          1.2910    0.1320   -0.4820 os        1 NBX     -0.513600
      2 C1          2.2910   -0.6960    0.0580 c3        1 NBX      0.353300
      3 C2          2.2970   -0.6030    1.6050 c3        1 NBX      0.117100
      4 O2          3.3660   -1.4160    2.0220 oh        1 NBX     -0.619800
      5 C3          0.9120   -1.0930    2.0770 c3        1 NBX      0.085100
      6 O3          0.9260   -0.9090    3.4760 oh        1 NBX     -0.579800
      7 C4         -0.1970   -0.2170    1.4460 c3        1 NBX      0.094100
      8 O4         -1.4530   -0.8100    1.6990 oh        1 NBX     -0.573800
      9 C5         -0.0650   -0.1950   -0.0850 c3        1 NBX      0.141100
     10 C6         -0.8640    0.9300   -0.7540 c3        1 NBX      0.134400
     11 O6         -0.3620    1.0910   -2.0760 oh        1 NBX     -0.676800
     12 N1          3.5830   -0.1120   -0.5310 n4        1 NBX     -0.649800
     13 C7          3.5190   -0.0050   -2.0120 c         1 NBX      0.514100
     14 O7          4.1270   -0.7820   -2.7300 o         1 NBX     -0.299100
     15 N2          2.6840    1.0690   -2.6420 n4        1 NBX     -0.578600
     16 C8          3.2590    2.4750   -2.4420 c         1 NBX      0.606700
     17 O8          3.7270    2.6670   -1.3310 o         1 NBX     -0.410100
     18 C9          3.1600    3.4150   -3.5670 ca        1 NBX     -0.158600
     19 C10         3.3640    3.0410   -4.9040 ca        1 NBX     -0.037000
     20 C11         3.3570    4.0060   -5.9100 ca        1 NBX     -0.086000
     21 C12         3.1410    5.3580   -5.5780 ca        1 NBX      0.029600
     22 C13         2.9280    5.7380   -4.2430 ca        1 NBX     -0.086000
     23 C14         2.9430    4.7660   -3.2410 ca        1 NBX     -0.037000
     24 N3          3.1480    6.3740   -6.6350 n4        1 NBX     -0.721000
     25 H1          2.2080   -1.7670   -0.3030 hx        1 NBX      0.144700
     26 H2          2.4570    0.4570    1.9560 h1        1 NBX      0.096700
     27 HO2         3.2230   -1.6490    2.9570 ho        1 NBX      0.493000
     28 H3          0.7560   -2.1730    1.8050 h1        1 NBX      0.093700
     29 HO3         0.3230   -1.5590    3.8700 ho        1 NBX      0.458000
     30 H4         -0.1380    0.8230    1.8700 h1        1 NBX      0.086700
     31 HO4        -1.7320   -0.5410    2.5880 ho        1 NBX      0.454000
     32 H5         -0.3260   -1.2010   -0.5160 h1        1 NBX      0.103700
     33 H6         -1.9540    0.6660   -0.7300 h1        1 NBX      0.103200
     34 H6A        -0.6910    1.9100   -0.2340 h1        1 NBX      0.103200
     35 HO6        -1.0260    0.7470   -2.6880 ho        1 NBX      0.450000
     36 HN1         4.3550   -0.7650   -0.2690 hn        1 NBX      0.522300
     37 HN2         2.6140    0.8500   -3.6500 hn        1 NBX      0.526800
     38 H10         3.5730    1.9970   -5.1980 ha        1 NBX      0.189000
     39 H11         3.5330    3.6870   -6.9560 ha        1 NBX      0.204500
     40 H13         2.7580    6.7950   -3.9530 ha        1 NBX      0.204500
     41 H14         2.7960    5.0760   -2.1870 ha        1 NBX      0.189000
     42 HN3         3.3360    7.3070   -6.2370 hn        1 NBX      0.492133
     43 HN3A        2.2300    6.3940   -7.1080 hn        1 NBX      0.492133
     44 H12         3.7660    0.8130   -0.1020 hn        1 NBX      0.522300
     45 H22         1.7000    1.0520   -2.2460 hn        1 NBX      0.526800
     46 H33         3.8770    6.1590   -7.3320 hn        1 NBX      0.492133
@<TRIPOS>BOND
     1    1    2 1   
     2    1    9 1   
     3    2    3 1   
     4    2   12 1   
     5    2   25 1   
     6    3    4 1   
     7    3    5 1   
     8    3   26 1   
     9    4   27 1   
    10    5    6 1   
    11    5    7 1   
    12    5   28 1   
    13    6   29 1   
    14    7    8 1   
    15    7    9 1   
    16    7   30 1   
    17    8   31 1   
    18    9   10 1   
    19    9   32 1   
    20   10   11 1   
    21   10   33 1   
    22   10   34 1   
    23   11   35 1   
    24   12   13 1   
    25   12   36 1   
    26   12   44 1   
    27   13   14 2   
    28   13   15 1   
    29   15   16 1   
    30   15   37 1   
    31   15   45 1   
    32   16   17 2   
    33   16   18 1   
    34   18   19 ar  
    35   18   23 ar  
    36   19   20 ar  
    37   19   38 1   
    38   20   21 ar  
    39   20   39 1   
    40   21   22 ar  
    41   21   24 1   
    42   22   23 ar  
    43   22   40 1   
    44   23   41 1   
    45   24   42 1   
    46   24   43 1   
    47   24   46 1   
@<TRIPOS>SUBSTRUCTURE
     1 NBX         1 TEMP              0 ****  ****    0 ROOT
