@<TRIPOS>MOLECULE
NBX
   43    42     1     0     0
SMALL
bcc


@<TRIPOS>ATOM
      1 O5         -1.8850   -2.3700    1.6720 os        1 NBX     -0.286000
      2 C1         -0.4230   -2.3980    1.6530 c3        1 NBX      0.124000
      3 C2          0.1780   -2.4290    3.0510 c3        1 NBX      0.005000
      4 O2         -0.1090   -3.7100    3.6550 oh        1 NBX     -0.312000
      5 C3         -0.3620   -1.3500    3.9230 c3        1 NBX     -0.036000
      6 O3          0.1200   -0.0750    3.4460 oh        1 NBX     -0.336000
      7 C4         -1.8460   -1.3270    3.9340 c3        1 NBX     -0.030000
      8 O4         -2.3230   -2.4920    4.6120 oh        1 NBX     -0.309000
      9 C5         -2.4310   -1.3000    2.5380 c3        1 NBX     -0.041000
     10 C6         -2.1320    0.0250    1.9170 c3        1 NBX     -0.048000
     11 O6         -3.2280    0.9600    2.2030 oh        1 NBX     -0.322000
     12 N1          0.0510   -1.2390    0.9690 n         1 NBX     -0.405000
     13 C7          0.3170   -1.3030   -0.4300 c2        1 NBX      0.408000
     14 O7          0.1400   -2.3460   -1.0330 o         1 NBX     -0.332000
     15 N2          0.8110   -0.0950   -1.1570 n         1 NBX     -0.396000
     16 C8          1.2350   -0.2070   -2.5270 c2        1 NBX      0.368000
     17 O8          1.3720   -1.2590   -3.0090 o         1 NBX     -0.290000
     18 C9          1.4390    1.0380   -3.3620 c2        1 NBX     -0.186000
     19 C10         2.6640    1.6900   -3.3480 c2        1 NBX     -0.058000
     20 C11         2.8720    2.8190   -4.1700 c1        1 NBX     -0.209000
     21 C12         1.8440    3.2820   -4.9980 c1        1 NBX      0.100000
     22 C13         0.6160    2.6290   -5.0130 c1        1 NBX     -0.208000
     23 C14         0.4080    1.5020   -4.1920 c1        1 NBX     -0.033000
     24 N3          2.0540    4.5140   -5.8440 n3        1 NBX     -0.341000
     25 H1         -0.1200   -3.2230    1.1500 h2        1 NBX      0.174000
     26 H2          1.1680   -2.3200    2.9790 h1        1 NBX      0.146000
     27 HO2         0.6490   -4.1180    3.8550 ho        1 NBX      0.211000
     28 H3         -0.0340   -1.4930    4.8530 h1        1 NBX      0.114000
     29 HO3         0.4200    0.3830    4.1080 ho        1 NBX      0.216000
     30 H4         -2.1410   -0.5460    4.4090 h1        1 NBX      0.137000
     31 HO4        -3.0580   -2.2850    5.0750 ho        1 NBX      0.204000
     32 H5         -3.3990   -1.4090    2.6010 h1        1 NBX      0.131000
     33 H6         -2.0390   -0.0820    0.9360 h1        1 NBX      0.100000
     34 H6A        -1.3040    0.3740    2.2850 h1        1 NBX      0.100000
     35 HO6        -3.4080    1.4490    1.4630 ho        1 NBX      0.204000
     36 HN1         0.1900   -0.4350    1.4410 hn        1 NBX      0.237000
     37 HN2         0.9190    0.7190   -0.6970 hn        1 NBX      0.233000
     38 H10         3.3890    1.3640   -2.7670 ha        1 NBX      0.134000
     39 H11         3.6980    3.2570   -4.1590 ha        1 NBX      0.137000
     40 H13        -0.1270    2.9620   -5.6120 ha        1 NBX      0.140000
     41 H14        -0.4430    1.0510   -4.2010 ha        1 NBX      0.155000
     42 HN3         2.2300    5.3390   -5.4350 hn        1 NBX      0.199500
     43 HN3A        2.0290    4.4520   -6.7710 hn        1 NBX      0.199500
@<TRIPOS>BOND
     1    1    2 1   
     2    1    9 1   
     3    2    3 1   
     4    2   12 1   
     5    2   25 1   
     6    3    4 1   
     7    3    5 1   
     8    3   26 1   
     9    4   27 1   
    10    5    6 1   
    11    5    7 1   
    12    5   28 1   
    13    6   29 1   
    14    7    8 1   
    15    7    9 1   
    16    7   30 1   
    17    8   31 1   
    18    9   10 1   
    19    9   32 1   
    20   10   11 1   
    21   10   33 1   
    22   10   34 1   
    23   11   35 1   
    24   12   13 1   
    25   12   36 1   
    26   13   14 1   
    27   13   15 1   
    28   15   16 1   
    29   15   37 1   
    30   16   17 1   
    31   16   18 1   
    32   18   19 1   
    33   18   23 1   
    34   19   20 1   
    35   19   38 1   
    36   20   39 1   
    37   21   22 1   
    38   21   24 1   
    39   22   40 1   
    40   23   41 1   
    41   24   42 1   
    42   24   43 1   
@<TRIPOS>SUBSTRUCTURE
     1 NBX         1 TEMP              0 ****  ****    0 ROOT
