@<TRIPOS>MOLECULE
NBX
   45    45     1     0     0
SMALL
bcc


@<TRIPOS>ATOM
      1 O5       -287.8220 -257.2660  668.5280 os        1 NBX     -0.439600
      2 C1       -286.6980 -256.4930  668.9280 c3        1 NBX      0.329300
      3 C2       -286.2890 -255.5590  667.7580 c3        1 NBX      0.113100
      4 O2       -285.1430 -254.8640  668.1950 oh        1 NBX     -0.616800
      5 C3       -287.4810 -254.6260  667.4810 c3        1 NBX      0.114100
      6 O3       -287.1020 -253.8550  666.3600 oh        1 NBX     -0.591800
      7 C4       -288.7430 -255.4610  667.1760 c3        1 NBX      0.081100
      8 O4       -289.8030 -254.5260  667.1120 oh        1 NBX     -0.581800
      9 C5       -288.9980 -256.4610  668.3140 c3        1 NBX      0.084100
     10 C6       -290.0860 -257.4920  667.9860 c3        1 NBX      0.132400
     11 O6       -290.2640 -258.3490  669.0910 oh        1 NBX     -0.594800
     12 N1       -285.6200 -257.4840  669.2550 n4        1 NBX     -0.668800
     13 C7       -285.8860 -258.2790  670.5430 c         1 NBX      0.648100
     14 O7       -284.9500 -258.2230  671.3480 o         1 NBX     -0.494100
     15 N2       -287.0520 -258.9580  670.6590 n         1 NBX     -0.607000
     16 C8        580.5430  516.9400-1344.1220 c1        1 NBX      0.730600
     17 O8        580.3760  516.8600-1345.2740 o         1 NBX     -0.199500
     18 C9        580.7370  517.0340-1342.7750 cc        1 NBX     -0.336100
     19 C10       580.3690  518.2220-1342.0700 cc        1 NBX      0.044000
     20 C11       580.5630  518.3190-1340.7220 cd        1 NBX     -0.318600
     21 C12       581.1420  517.2290-1339.9750 cd        1 NBX      0.468900
     22 C13       581.5090  516.0370-1340.6990 cd        1 NBX     -0.318600
     23 C14       581.3130  515.9460-1342.0470 cc        1 NBX      0.044000
     24 N3        581.3340  517.3220-1338.6480 nh        1 NBX     -0.441100
     25 H1       -286.9160 -255.8950  669.8640 hx        1 NBX      0.120700
     26 H2       -286.0500 -256.1510  666.8300 h1        1 NBX      0.086700
     27 HO2      -285.0250 -254.0960  667.6110 ho        1 NBX      0.470000
     28 H3       -287.6730 -253.9540  668.3650 h1        1 NBX      0.079700
     29 HO3      -287.8340 -253.2480  666.1740 ho        1 NBX      0.449000
     30 H4       -288.6130 -256.0030  666.2000 h1        1 NBX      0.080700
     31 HO4      -290.4950 -254.9050  666.5540 ho        1 NBX      0.429000
     32 H5       -289.2480 -255.9130  669.2640 h1        1 NBX      0.078700
     33 H6       -289.7530 -258.1570  667.1430 h1        1 NBX      0.078200
     34 H6A      -291.0250 -256.9470  667.7060 h1        1 NBX      0.078200
     35 HO6      -290.9440 -257.9640  669.6590 ho        1 NBX      0.419000
     36 HN1      -285.5060 -258.1370  668.4720 hn        1 NBX      0.482800
     37 HN2      -287.1850 -259.4890  671.4950 hn        1 NBX      0.377500
     38 H10       579.9240  519.0660-1342.6270 ha        1 NBX      0.170000
     39 H11       580.2730  519.2430-1340.1930 ha        1 NBX      0.178000
     40 H13       581.9540  515.1880-1340.1530 ha        1 NBX      0.178000
     41 H14       581.5990  515.0250-1342.5870 ha        1 NBX      0.170000
     42 HN3       581.0790  518.1470-1338.1520 hn        1 NBX      0.314700
     43 HN3A      581.7340  516.5680-1338.1360 hn        1 NBX      0.314700
     44 H12      -284.7390 -256.9570  669.3900 hn        1 NBX      0.482800
     45 H22      -287.7960 -258.8950  669.9950 hn        1 NBX      0.377500
@<TRIPOS>BOND
     1    1    2 1   
     2    1    9 1   
     3    2    3 1   
     4    2   12 1   
     5    2   25 1   
     6    3    4 1   
     7    3    5 1   
     8    3   26 1   
     9    4   27 1   
    10    5    6 1   
    11    5    7 1   
    12    5   28 1   
    13    6   29 1   
    14    7    8 1   
    15    7    9 1   
    16    7   30 1   
    17    8   31 1   
    18    9   10 1   
    19    9   32 1   
    20   10   11 1   
    21   10   33 1   
    22   10   34 1   
    23   11   35 1   
    24   12   13 1   
    25   12   36 1   
    26   12   44 1   
    27   13   14 2   
    28   13   15 1   
    29   15   37 1   
    30   15   45 1   
    31   16   17 2   
    32   16   18 2   
    33   18   19 1   
    34   18   23 1   
    35   19   20 2   
    36   19   38 1   
    37   20   21 1   
    38   20   39 1   
    39   21   22 1   
    40   21   24 2   
    41   22   23 2   
    42   22   40 1   
    43   23   41 1   
    44   24   42 1   
    45   24   43 1   
@<TRIPOS>SUBSTRUCTURE
     1 NBX         1 TEMP              0 ****  ****    0 ROOT
