@<TRIPOS>MOLECULE
NBX
   43    44     1     0     0
SMALL
bcc


@<TRIPOS>ATOM
      1 O5          2.3990    0.5550   -0.5690 os        1 NBX     -0.447600
      2 C1          2.0600   -0.5700    0.2680 c3        1 NBX      0.241500
      3 C2          3.0530   -1.7270   -0.0340 c3        1 NBX      0.091100
      4 O2          2.8710   -2.8190    0.8480 oh        1 NBX     -0.602800
      5 C3          4.4870   -1.2320    0.2170 c3        1 NBX      0.107100
      6 O3          5.4330   -2.1960   -0.2140 oh        1 NBX     -0.608800
      7 C4          4.7590    0.0400   -0.6020 c3        1 NBX      0.117100
      8 O4          6.0180    0.5920   -0.2620 oh        1 NBX     -0.594800
      9 C5          3.6880    1.0940   -0.2720 c3        1 NBX      0.151100
     10 C6          3.8520    2.3300   -1.1610 c3        1 NBX      0.135400
     11 O6          3.2830    3.4200   -0.4560 oh        1 NBX     -0.593800
     12 N1          0.6960   -0.9340   -0.0580 n         1 NBX     -0.529900
     13 C7         -0.3200   -0.4980    0.8470 c         1 NBX      0.752100
     14 O7         -0.0520   -0.3040    2.0470 o         1 NBX     -0.555100
     15 N2         -1.6350   -0.3890    0.3450 n         1 NBX     -0.609500
     16 C8         -2.7570   -0.0940    1.1400 c         1 NBX      0.691700
     17 O8         -2.6610    0.1410    2.3510 o         1 NBX     -0.521100
     18 C9         -4.0580   -0.0500    0.4200 ca        1 NBX     -0.207600
     19 C10        -4.9780    0.9420    0.7860 ca        1 NBX     -0.045500
     20 C11        -6.2120    1.0270    0.1600 ca        1 NBX     -0.210000
     21 C12        -6.5730    0.0960   -0.8460 ca        1 NBX      0.186600
     22 C13        -5.6380   -0.9100   -1.1990 ca        1 NBX     -0.210000
     23 C14        -4.4040   -0.9770   -0.5670 ca        1 NBX     -0.045500
     24 N3         -7.8370    0.1210   -1.4170 nh        1 NBX     -0.837200
     25 H1          2.1410   -0.2810    1.3600 h2        1 NBX      0.109700
     26 H2          2.9480   -2.0740   -1.0990 h1        1 NBX      0.058700
     27 HO2         1.9430   -3.0790    0.8070 ho        1 NBX      0.427000
     28 H3          4.6310   -1.0270    1.3150 h1        1 NBX      0.069700
     29 HO3         5.2280   -3.0130    0.2600 ho        1 NBX      0.429000
     30 H4          4.7390   -0.2080   -1.7000 h1        1 NBX      0.058700
     31 HO4         6.6610   -0.1260   -0.3410 ho        1 NBX      0.426000
     32 H5          3.7450    1.3880    0.8120 h1        1 NBX      0.085700
     33 H6          4.9470    2.5100   -1.3330 h1        1 NBX      0.045700
     34 H6A         3.3250    2.1790   -2.1390 h1        1 NBX      0.045700
     35 HO6         3.3620    4.1890   -1.0320 ho        1 NBX      0.403000
     36 HN1         0.4950   -0.8280   -1.0320 hn        1 NBX      0.291500
     37 HN2        -1.7960   -0.5390   -0.6250 hn        1 NBX      0.316500
     38 H10        -4.7110    1.6550    1.5850 ha        1 NBX      0.143500
     39 H11        -6.9180    1.8160    0.4630 ha        1 NBX      0.138500
     40 H13        -5.8930   -1.6550   -1.9670 ha        1 NBX      0.138500
     41 H14        -3.7100   -1.7870   -0.8440 ha        1 NBX      0.143500
     42 HN3        -8.3370    0.9760   -1.3400 hn        1 NBX      0.407300
     43 HN3A       -7.9390   -0.3530   -2.2840 hn        1 NBX      0.407300
@<TRIPOS>BOND
     1    1    2 1   
     2    1    9 1   
     3    2    3 1   
     4    2   12 1   
     5    2   25 1   
     6    3    4 1   
     7    3    5 1   
     8    3   26 1   
     9    4   27 1   
    10    5    6 1   
    11    5    7 1   
    12    5   28 1   
    13    6   29 1   
    14    7    8 1   
    15    7    9 1   
    16    7   30 1   
    17    8   31 1   
    18    9   10 1   
    19    9   32 1   
    20   10   11 1   
    21   10   33 1   
    22   10   34 1   
    23   11   35 1   
    24   12   13 1   
    25   12   36 1   
    26   13   14 2   
    27   13   15 1   
    28   15   16 1   
    29   15   37 1   
    30   16   17 2   
    31   16   18 1   
    32   18   19 ar  
    33   18   23 ar  
    34   19   20 ar  
    35   19   38 1   
    36   20   21 ar  
    37   20   39 1   
    38   21   22 ar  
    39   21   24 1   
    40   22   23 ar  
    41   22   40 1   
    42   23   41 1   
    43   24   42 1   
    44   24   43 1   
@<TRIPOS>SUBSTRUCTURE
     1 NBX         1 TEMP              0 ****  ****    0 ROOT
