@<TRIPOS>MOLECULE
NBX
   45    45     1     0     0
SMALL
bcc


@<TRIPOS>ATOM
      1 O5       -268.7290 -248.7710  667.1440 os        1 NBX     -0.439600
      2 C1       -267.3670 -248.9000  666.7580 c3        1 NBX      0.329300
      3 C2       -267.3070 -249.4640  665.3130 c3        1 NBX      0.113100
      4 O2       -265.9380 -249.6200  665.0120 oh        1 NBX     -0.616800
      5 C3       -268.0050 -248.4460  664.3960 c3        1 NBX      0.114100
      6 O3       -268.0040 -249.0340  663.1120 oh        1 NBX     -0.591800
      7 C4       -269.4470 -248.1970  664.8880 c3        1 NBX      0.081100
      8 O4       -269.9340 -247.1320  664.0950 oh        1 NBX     -0.581800
      9 C5       -269.4320 -247.7820  666.3670 c3        1 NBX      0.084100
     10 C6       -270.8280 -247.7470  667.0040 c3        1 NBX      0.132400
     11 O6       -270.7160 -247.3350  668.3480 oh        1 NBX     -0.594800
     12 N1       -266.7520 -249.8410  667.7520 ny        1 NBX     -0.668800
     13 C7       -266.5890 -249.2330  669.1540 c         1 NBX      0.648100
     14 O7       -265.4340 -249.3170  669.5860 o         1 NBX     -0.494100
     15 N2       -267.6780 -248.7140  669.7690 nt        1 NBX     -0.607000
     16 C8        544.2400  499.0720-1337.6600 c1        1 NBX      0.730600
     17 O8        544.9970  498.2000-1337.8220 o         1 NBX     -0.199500
     18 C9        543.3550  500.0930-1337.4710 cc        1 NBX     -0.336100
     19 C10       543.2270  500.7150-1336.1890 cc        1 NBX      0.044000
     20 C11       542.3420  501.7360-1335.9970 cd        1 NBX     -0.318600
     21 C12       541.5140  502.2150-1337.0770 cd        1 NBX      0.468900
     22 C13       541.6540  501.5790-1338.3640 cd        1 NBX     -0.318600
     23 C14       542.5410  500.5580-1338.5510 cc        1 NBX      0.044000
     24 N3        540.6430  503.2200-1336.8910 nv        1 NBX     -0.441100
     25 H1       -266.8200 -247.9120  666.8290 hx        1 NBX      0.120700
     26 H2       -267.8320 -250.4580  665.2440 h1        1 NBX      0.086700
     27 HO2      -265.8580 -249.7100  664.0490 ho        1 NBX      0.470000
     28 H3       -267.4360 -247.4740  664.3770 h1        1 NBX      0.079700
     29 HO3      -268.4290 -248.4030  662.5120 ho        1 NBX      0.449000
     30 H4       -270.0620 -249.1280  664.7490 h1        1 NBX      0.080700
     31 HO4      -270.8980 -247.2010  664.0710 ho        1 NBX      0.429000
     32 H5       -268.9210 -246.7870  666.4850 h1        1 NBX      0.078700
     33 H6       -271.4830 -247.0690  666.3980 h1        1 NBX      0.078200
     34 H6A      -271.2660 -248.7810  667.0430 h1        1 NBX      0.078200
     35 HO6      -270.7950 -246.3730  668.3720 ho        1 NBX      0.419000
     36 HN1      -267.3220 -250.6910  667.8160 hn        1 NBX      0.482800
     37 HN2      -267.5480 -248.3520  670.6910 hn        1 NBX      0.377500
     38 H10       543.8530  500.3600-1335.3510 ha        1 NBX      0.170000
     39 H11       542.2560  502.2050-1335.0010 ha        1 NBX      0.178000
     40 H13       541.0340  501.9250-1339.2090 ha        1 NBX      0.178000
     41 H14       542.6360  500.0820-1339.5430 ha        1 NBX      0.170000
     42 HN3       540.0730  503.5480-1337.6390 hn        1 NBX      0.314700
     43 HN3A      540.5490  503.6570-1336.0010 hn        1 NBX      0.314700
     44 H12      -265.8080 -250.0880  667.4080 hn        1 NBX      0.482800
     45 H22      -268.5680 -248.6140  669.3240 hn        1 NBX      0.377500
@<TRIPOS>BOND
     1    1    2 1   
     2    1    9 1   
     3    2    3 1   
     4    2   12 1   
     5    2   25 1   
     6    3    4 1   
     7    3    5 1   
     8    3   26 1   
     9    4   27 1   
    10    5    6 1   
    11    5    7 1   
    12    5   28 1   
    13    6   29 1   
    14    7    8 1   
    15    7    9 1   
    16    7   30 1   
    17    8   31 1   
    18    9   10 1   
    19    9   32 1   
    20   10   11 1   
    21   10   33 1   
    22   10   34 1   
    23   11   35 1   
    24   12   13 1   
    25   12   36 1   
    26   12   44 1   
    27   13   14 2   
    28   13   15 1   
    29   15   37 1   
    30   15   45 1   
    31   16   17 2   
    32   16   18 2   
    33   18   19 1   
    34   18   23 1   
    35   19   20 2   
    36   19   38 1   
    37   20   21 1   
    38   20   39 1   
    39   21   22 1   
    40   21   24 2   
    41   22   23 2   
    42   22   40 1   
    43   23   41 1   
    44   24   42 1   
    45   24   43 1   
@<TRIPOS>SUBSTRUCTURE
     1 NBX         1 TEMP              0 ****  ****    0 ROOT
