@<TRIPOS>MOLECULE
NBY
   43    44     1     0     0
SMALL
bcc


@<TRIPOS>ATOM
      1 O5          0.2410    0.1790    0.0050 os        1 NBY     -0.447600
      2 C1          1.6490   -0.0810    0.1770 c3        1 NBY      0.240500
      3 C2          1.9490   -0.2000    1.6980 c3        1 NBY      0.091100
      4 O2          3.2860   -0.5960    1.9360 oh        1 NBY     -0.599800
      5 C3          1.0780   -1.3210    2.2900 c3        1 NBY      0.108100
      6 O3          1.1870   -1.3440    3.7030 oh        1 NBY     -0.606800
      7 C4         -0.4040   -1.0660    1.9730 c3        1 NBY      0.117100
      8 O4         -1.1960   -2.1690    2.3740 oh        1 NBY     -0.593800
      9 C5         -0.5780   -0.9020    0.4530 c3        1 NBY      0.151100
     10 C6         -2.0200   -0.5200    0.1110 c3        1 NBY      0.135400
     11 O6         -2.2420   -0.9180   -1.2310 oh        1 NBY     -0.594800
     12 N1          2.3510    1.0360   -0.4240 n         1 NBY     -0.522900
     13 C7          2.8660    0.8350   -1.7370 c         1 NBY      0.754100
     14 O7          3.1930   -0.2990   -2.1290 o         1 NBY     -0.546100
     15 N2          3.0740    1.9830   -2.5420 n         1 NBY     -0.608500
     16 C8          3.7440    1.9540   -3.7720 c         1 NBY      0.678700
     17 O8          4.2350    0.9260   -4.2510 o         1 NBY     -0.500100
     18 C9          3.8110    3.2660   -4.4900 ca        1 NBY     -0.109600
     19 C10         3.4770    3.2930   -5.8480 ca        1 NBY     -0.104000
     20 C11         3.5450    4.4870   -6.5620 ca        1 NBY     -0.073000
     21 C12         3.9590    5.6550   -5.9010 ca        1 NBY     -0.157200
     22 C13         4.3110    5.6310   -4.5420 ca        1 NBY     -0.073000
     23 C14         4.2310    4.4300   -3.8410 ca        1 NBY     -0.104000
     24 N3          4.0310    6.9380   -6.6530 no        1 NBY      0.311200
     25 O9          4.3840    7.9290   -6.0730 o         1 NBY     -0.200000
     26 O10         3.7310    6.9460   -7.8160 o         1 NBY     -0.200000
     27 H1          1.9330   -1.0480   -0.3390 h2        1 NBY      0.110700
     28 H2          1.7340    0.7710    2.2230 h1        1 NBY      0.059700
     29 HO2         3.8640    0.0480    1.5080 ho        1 NBY      0.425000
     30 H3          1.4020   -2.3140    1.8690 h1        1 NBY      0.069700
     31 HO3         2.1250   -1.4640    3.9050 ho        1 NBY      0.429000
     32 H4         -0.7480   -0.1370    2.5080 h1        1 NBY      0.059700
     33 HO4        -0.9760   -2.3410    3.3010 ho        1 NBY      0.427000
     34 H5         -0.2920   -1.8510   -0.0810 h1        1 NBY      0.085700
     35 H16        -2.1660    0.5870    0.2170 h1        1 NBY      0.046700
     36 H26        -2.7130   -1.0710    0.8020 h1        1 NBY      0.046700
     37 HO6        -3.1620   -0.7050   -1.4300 ho        1 NBY      0.404000
     38 HN1         1.8940    1.9100   -0.2570 hn        1 NBY      0.293500
     39 HN2         2.7320    2.8630   -2.2300 hn        1 NBY      0.319500
     40 H10         3.1710    2.3620   -6.3550 ha        1 NBY      0.161500
     41 H11         3.2810    4.5150   -7.6330 ha        1 NBY      0.178500
     42 H13         4.6470    6.5530   -4.0370 ha        1 NBY      0.178500
     43 H14         4.5240    4.4080   -2.7790 ha        1 NBY      0.161500
@<TRIPOS>BOND
     1    1    2 1   
     2    1    9 1   
     3    2    3 1   
     4    2   12 1   
     5    2   27 1   
     6    3    4 1   
     7    3    5 1   
     8    3   28 1   
     9    4   29 1   
    10    5    6 1   
    11    5    7 1   
    12    5   30 1   
    13    6   31 1   
    14    7    8 1   
    15    7    9 1   
    16    7   32 1   
    17    8   33 1   
    18    9   10 1   
    19    9   34 1   
    20   10   11 1   
    21   10   35 1   
    22   10   36 1   
    23   11   37 1   
    24   12   13 1   
    25   12   38 1   
    26   13   14 2   
    27   13   15 1   
    28   15   16 1   
    29   15   39 1   
    30   16   17 2   
    31   16   18 1   
    32   18   19 ar  
    33   18   23 ar  
    34   19   20 ar  
    35   19   40 1   
    36   20   21 ar  
    37   20   41 1   
    38   21   22 ar  
    39   21   24 1   
    40   22   23 ar  
    41   22   42 1   
    42   23   43 1   
    43   24   25 1   
    44   24   26 1   
@<TRIPOS>SUBSTRUCTURE
     1 NBY         1 TEMP              0 ****  ****    0 ROOT
