@<TRIPOS>MOLECULE
NBY
   45    46     1     0     0
SMALL
bcc


@<TRIPOS>ATOM
      1 O5          1.2360    0.2050   -0.6910 os        1 NBY     -0.500600
      2 C1          1.8420   -1.0570   -0.5270 c3        1 NBY      0.347300
      3 C2          2.2590   -1.2540    0.9530 c3        1 NBY      0.118100
      4 O2          2.8890   -2.5120    1.0000 oh        1 NBY     -0.617800
      5 C3          0.9650   -1.1790    1.7890 c3        1 NBY      0.083100
      6 O3          1.3970   -1.2710    3.1300 oh        1 NBY     -0.581800
      7 C4          0.2560    0.1750    1.5510 c3        1 NBY      0.092100
      8 O4         -1.0250    0.1330    2.1460 oh        1 NBY     -0.576800
      9 C5          0.0070    0.3900    0.0510 c3        1 NBY      0.135100
     10 C6         -0.3700    1.8330   -0.3140 c3        1 NBY      0.135400
     11 O6         -0.2340    1.9760   -1.7210 oh        1 NBY     -0.668800
     12 N1          3.0590   -1.0010   -1.4460 n4        1 NBY     -0.650800
     13 C7          2.6990   -0.5890   -2.8340 c         1 NBY      0.518100
     14 O7          2.7150   -1.4130   -3.7360 o         1 NBY     -0.311100
     15 N2          2.3250    0.8240   -3.1050 n4        1 NBY     -0.583600
     16 C8          3.4710    1.8470   -2.8620 c         1 NBY      0.632700
     17 O8          4.3800    1.4050   -2.1780 o         1 NBY     -0.451100
     18 C9          3.2760    3.1350   -3.5030 ca        1 NBY     -0.203600
     19 C10         4.4340    3.8200   -3.9190 ca        1 NBY     -0.062500
     20 C11         4.3190    5.0720   -4.5230 ca        1 NBY     -0.068500
     21 C12         3.0480    5.6350   -4.6960 ca        1 NBY     -0.088200
     22 C13         1.8890    4.9640   -4.2630 ca        1 NBY     -0.068500
     23 C14         2.0040    3.7140   -3.6680 ca        1 NBY     -0.062500
     24 N3          2.9140    6.9880   -5.3490 no        1 NBY      0.311200
     25 O9          1.8120    7.4350   -5.4700 o         1 NBY     -0.139000
     26 O10         3.9150    7.5320   -5.7070 o         1 NBY     -0.139000
     27 H1          1.1790   -1.9010   -0.8910 hx        1 NBY      0.138700
     28 H2          2.9720   -0.4490    1.2920 h1        1 NBY      0.096700
     29 HO2         2.9080   -2.8030    1.9290 ho        1 NBY      0.487000
     30 H3          0.2730   -2.0280    1.5260 h1        1 NBY      0.089700
     31 HO3         0.6490   -1.5850    3.6600 ho        1 NBY      0.452000
     32 H4          0.8840    1.0070    1.9760 h1        1 NBY      0.087700
     33 HO4        -0.9260    0.3980    3.0720 ho        1 NBY      0.448000
     34 H5         -0.7570   -0.3420   -0.3300 h1        1 NBY      0.097700
     35 H16        -1.4110    2.0380    0.0480 h1        1 NBY      0.100700
     36 H26         0.3510    2.5620    0.1440 h1        1 NBY      0.100700
     37 HO6        -1.1210    2.0040   -2.1050 ho        1 NBY      0.448000
     38 HN1         3.7650   -0.3510   -1.0500 hn        1 NBY      0.517800
     39 HN2         1.5030    1.1060   -2.5130 hn        1 NBY      0.521800
     40 H10         5.4350    3.3760   -3.7710 ha        1 NBY      0.171500
     41 H11         5.2270    5.6160   -4.8580 ha        1 NBY      0.216500
     42 H13         0.8940    5.4360   -4.3930 ha        1 NBY      0.216500
     43 H14         1.0890    3.2250   -3.2920 ha        1 NBY      0.171500
     44 H12         3.4660   -1.9590   -1.4720 hn        1 NBY      0.517800
     45 H22         2.0390    0.8850   -4.0980 hn        1 NBY      0.521800
@<TRIPOS>BOND
     1    1    2 1   
     2    1    9 1   
     3    2    3 1   
     4    2   12 1   
     5    2   27 1   
     6    3    4 1   
     7    3    5 1   
     8    3   28 1   
     9    4   29 1   
    10    5    6 1   
    11    5    7 1   
    12    5   30 1   
    13    6   31 1   
    14    7    8 1   
    15    7    9 1   
    16    7   32 1   
    17    8   33 1   
    18    9   10 1   
    19    9   34 1   
    20   10   11 1   
    21   10   35 1   
    22   10   36 1   
    23   11   37 1   
    24   12   13 1   
    25   12   38 1   
    26   12   44 1   
    27   13   14 2   
    28   13   15 1   
    29   15   16 1   
    30   15   39 1   
    31   15   45 1   
    32   16   17 2   
    33   16   18 1   
    34   18   19 ar  
    35   18   23 ar  
    36   19   20 ar  
    37   19   40 1   
    38   20   21 ar  
    39   20   41 1   
    40   21   22 ar  
    41   21   24 1   
    42   22   23 ar  
    43   22   42 1   
    44   23   43 1   
    45   24   25 1   
    46   24   26 1   
@<TRIPOS>SUBSTRUCTURE
     1 NBY         1 TEMP              0 ****  ****    0 ROOT
