@<TRIPOS>MOLECULE
NBY
   43    44     1     0     0
SMALL
bcc


@<TRIPOS>ATOM
      1 O5         -3.0510   -0.4870   -0.5920 os        1 NBY     -0.447600
      2 C1         -2.7660    0.5900    0.3230 c3        1 NBY      0.240500
      3 C2         -3.7560    1.7550    0.0400 c3        1 NBY      0.091100
      4 O2         -3.6270    2.7910    0.9960 oh        1 NBY     -0.599800
      5 C3         -5.1940    1.2330    0.1920 c3        1 NBY      0.108100
      6 O3         -6.1280    2.2120   -0.2300 oh        1 NBY     -0.606800
      7 C4         -5.4130    0.0080   -0.7090 c3        1 NBY      0.117100
      8 O4         -6.6790   -0.5750   -0.4590 oh        1 NBY     -0.593800
      9 C5         -4.3460   -1.0540   -0.3900 c3        1 NBY      0.151100
     10 C6         -4.4530   -2.2360   -1.3560 c3        1 NBY      0.135400
     11 O6         -3.8720   -3.3530   -0.7050 oh        1 NBY     -0.594800
     12 N1         -1.3900    0.9820    0.0840 n         1 NBY     -0.522900
     13 C7         -0.4140    0.4690    0.9860 c         1 NBY      0.754100
     14 O7         -0.7130    0.1890    2.1600 o         1 NBY     -0.546100
     15 N2          0.9220    0.3770    0.5220 n         1 NBY     -0.608500
     16 C8          2.0090    0.0720    1.3510 c         1 NBY      0.678700
     17 O8          1.9010   -0.1170    2.5670 o         1 NBY     -0.500100
     18 C9          3.3300   -0.0290    0.6540 ca        1 NBY     -0.109600
     19 C10         4.1380   -1.1370    0.9300 ca        1 NBY     -0.104000
     20 C11         5.3850   -1.2630    0.3210 ca        1 NBY     -0.073000
     21 C12         5.8160   -0.2620   -0.5640 ca        1 NBY     -0.157200
     22 C13         5.0170    0.8600   -0.8340 ca        1 NBY     -0.073000
     23 C14         3.7700    0.9680   -0.2210 ca        1 NBY     -0.104000
     24 N3          7.1450   -0.3890   -1.2250 no        1 NBY      0.311200
     25 O9          7.5000    0.4740   -1.9820 o         1 NBY     -0.200000
     26 O10         7.8230   -1.3510   -0.9840 o         1 NBY     -0.200000
     27 H1         -2.8950    0.2380    1.3920 h2        1 NBY      0.110700
     28 H2         -3.6030    2.1640   -0.9960 h1        1 NBY      0.059700
     29 HO2        -2.7100    3.0910    0.9830 ho        1 NBY      0.425000
     30 H3         -5.3890    0.9650    1.2690 h1        1 NBY      0.069700
     31 HO3        -5.9650    2.9990    0.3080 ho        1 NBY      0.429000
     32 H4         -5.3450    0.3190   -1.7890 h1        1 NBY      0.059700
     33 HO4        -7.3280    0.1390   -0.5360 ho        1 NBY      0.427000
     34 H5         -4.4510   -1.4120    0.6710 h1        1 NBY      0.085700
     35 H16        -5.5390   -2.4300   -1.5700 h1        1 NBY      0.046700
     36 H26        -3.9040   -2.0140   -2.3090 h1        1 NBY      0.046700
     37 HO6        -3.9720   -4.1020   -1.3040 ho        1 NBY      0.404000
     38 HN1        -1.1510    0.9620   -0.8870 hn        1 NBY      0.293500
     39 HN2         1.1120    0.5350   -0.4410 hn        1 NBY      0.319500
     40 H10         3.7910   -1.9040    1.6430 ha        1 NBY      0.161500
     41 H11         6.0270   -2.1360    0.5340 ha        1 NBY      0.178500
     42 H13         5.3720    1.6470   -1.5220 ha        1 NBY      0.178500
     43 H14         3.1500    1.8560   -0.4190 ha        1 NBY      0.161500
@<TRIPOS>BOND
     1    1    2 1   
     2    1    9 1   
     3    2    3 1   
     4    2   12 1   
     5    2   27 1   
     6    3    4 1   
     7    3    5 1   
     8    3   28 1   
     9    4   29 1   
    10    5    6 1   
    11    5    7 1   
    12    5   30 1   
    13    6   31 1   
    14    7    8 1   
    15    7    9 1   
    16    7   32 1   
    17    8   33 1   
    18    9   10 1   
    19    9   34 1   
    20   10   11 1   
    21   10   35 1   
    22   10   36 1   
    23   11   37 1   
    24   12   13 1   
    25   12   38 1   
    26   13   14 2   
    27   13   15 1   
    28   15   16 1   
    29   15   39 1   
    30   16   17 2   
    31   16   18 1   
    32   18   19 ar  
    33   18   23 ar  
    34   19   20 ar  
    35   19   40 1   
    36   20   21 ar  
    37   20   41 1   
    38   21   22 ar  
    39   21   24 1   
    40   22   23 ar  
    41   22   42 1   
    42   23   43 1   
    43   24   25 1   
    44   24   26 1   
@<TRIPOS>SUBSTRUCTURE
     1 NBY         1 TEMP              0 ****  ****    0 ROOT
