@<TRIPOS>MOLECULE
NBY
   45    46     1     0     0
SMALL
bcc


@<TRIPOS>ATOM
      1 O5          1.3080    0.1660   -0.5060 os        1 NBY     -0.494600
      2 C1          2.2820   -0.7300   -0.0210 c3        1 NBY      0.346300
      3 C2          2.3130   -0.6900    1.5280 c3        1 NBY      0.119100
      4 O2          3.3460   -1.5680    1.9070 oh        1 NBY     -0.618800
      5 C3          0.9150   -1.1370    2.0050 c3        1 NBY      0.084100
      6 O3          0.9540   -0.9990    3.4090 oh        1 NBY     -0.582800
      7 C4         -0.1700   -0.2100    1.4090 c3        1 NBY      0.090100
      8 O4         -1.4410   -0.7690    1.6720 oh        1 NBY     -0.576800
      9 C5         -0.0490   -0.1600   -0.1220 c3        1 NBY      0.144100
     10 C6         -0.8500    0.9800   -0.7650 c3        1 NBY      0.137400
     11 O6         -0.3480    1.1460   -2.0860 oh        1 NBY     -0.670800
     12 N1          3.5860   -0.2060   -0.6160 ny        1 NBY     -0.651800
     13 C7          3.5030   -0.0780   -2.1000 c         1 NBY      0.516100
     14 O7          4.0770   -0.8860   -2.8150 o         1 NBY     -0.315100
     15 N2          2.7240    1.0390   -2.6940 ny        1 NBY     -0.581600
     16 C8          3.3510    2.4380   -2.4380 c         1 NBY      0.629700
     17 O8          3.8690    2.5320   -1.3360 o         1 NBY     -0.453100
     18 C9          3.1860    3.4110   -3.5030 ca        1 NBY     -0.196600
     19 C10         3.1680    3.0740   -4.8690 ca        1 NBY     -0.061500
     20 C11         3.0410    4.0720   -5.8280 ca        1 NBY     -0.066500
     21 C12         2.9290    5.4140   -5.4200 ca        1 NBY     -0.088200
     22 C13         2.9640    5.7630   -4.0640 ca        1 NBY     -0.066500
     23 C14         3.0980    4.7610   -3.1040 ca        1 NBY     -0.061500
     24 N3          2.7770    6.4920   -6.4640 no        1 NBY      0.311200
     25 O9          2.6890    7.6210   -6.0840 o         1 NBY     -0.138500
     26 O10         2.7490    6.1510   -7.6090 o         1 NBY     -0.138500
     27 H1          2.1280   -1.7830   -0.4090 hx        1 NBY      0.137700
     28 H2          2.5260    0.3490    1.9110 h1        1 NBY      0.097700
     29 HO2         3.2140   -1.8000    2.8430 ho        1 NBY      0.487000
     30 H3          0.7170   -2.2040    1.7070 h1        1 NBY      0.088700
     31 HO3         0.2610   -1.5670    3.7800 ho        1 NBY      0.452000
     32 H4         -0.0690    0.8200    1.8510 h1        1 NBY      0.087700
     33 HO4        -1.7320   -0.4430    2.5360 ho        1 NBY      0.447000
     34 H5         -0.3210   -1.1540   -0.5730 h1        1 NBY      0.098700
     35 H16        -0.6770    1.9460   -0.2210 h1        1 NBY      0.094200
     36 H26        -1.9390    0.7100   -0.7420 h1        1 NBY      0.094200
     37 HO6        -1.0960    1.0950   -2.6960 ho        1 NBY      0.452000
     38 HN1         3.8190    0.7090   -0.1840 hn        1 NBY      0.518300
     39 HN2         1.7440    1.0550   -2.3080 hn        1 NBY      0.522300
     40 H10         3.2990    2.0390   -5.2220 ha        1 NBY      0.165000
     41 H11         3.0340    3.8170   -6.9080 ha        1 NBY      0.218000
     42 H13         2.8920    6.8260   -3.7540 ha        1 NBY      0.218000
     43 H14         3.1390    5.0320   -2.0340 ha        1 NBY      0.165000
     44 H12         4.3300   -0.8930   -0.3740 hn        1 NBY      0.518300
     45 H22         2.6560    0.8640   -3.7110 hn        1 NBY      0.522300
@<TRIPOS>BOND
     1    1    2 1   
     2    1    9 1   
     3    2    3 1   
     4    2   12 1   
     5    2   27 1   
     6    3    4 1   
     7    3    5 1   
     8    3   28 1   
     9    4   29 1   
    10    5    6 1   
    11    5    7 1   
    12    5   30 1   
    13    6   31 1   
    14    7    8 1   
    15    7    9 1   
    16    7   32 1   
    17    8   33 1   
    18    9   10 1   
    19    9   34 1   
    20   10   11 1   
    21   10   35 1   
    22   10   36 1   
    23   11   37 1   
    24   12   13 1   
    25   12   38 1   
    26   12   44 1   
    27   13   14 2   
    28   13   15 1   
    29   15   16 1   
    30   15   39 1   
    31   15   45 1   
    32   16   17 2   
    33   16   18 1   
    34   18   19 ar  
    35   18   23 ar  
    36   19   20 ar  
    37   19   40 1   
    38   20   21 ar  
    39   20   41 1   
    40   21   22 ar  
    41   21   24 1   
    42   22   23 ar  
    43   22   42 1   
    44   23   43 1   
    45   24   25 1   
    46   24   26 1   
@<TRIPOS>SUBSTRUCTURE
     1 NBY         1 TEMP              0 ****  ****    0 ROOT
