@<TRIPOS>MOLECULE
NBZ
   14    14     1     0     0
SMALL
bcc


@<TRIPOS>ATOM
      1 C1         -0.0080    0.0030   -0.0250 ca        1 NBZ     -0.068000
      2 C2          1.3850   -0.0010   -0.0130 ca        1 NBZ     -0.140000
      3 C3          2.0800   -0.0010    1.1970 ca        1 NBZ     -0.088000
      4 C4          1.3850    0.0040    2.4070 ca        1 NBZ     -0.140000
      5 C5         -0.0090    0.0090    2.4190 ca        1 NBZ     -0.068000
      6 C6         -0.7000    0.0090    1.1970 ca        1 NBZ     -0.176200
      7 N1         -2.1870    0.0130    1.1970 no        1 NBZ      0.312200
      8 O1         -2.7690    0.0160    2.2480 o         1 NBZ     -0.209000
      9 O2         -2.7690    0.0140    0.1450 o         1 NBZ     -0.209000
     10 H1         -0.5620    0.0030   -0.9800 ha        1 NBZ      0.171000
     11 H2          1.9350   -0.0050   -0.9660 ha        1 NBZ      0.148000
     12 H3          3.1810   -0.0040    1.1970 ha        1 NBZ      0.144000
     13 H4          1.9350    0.0050    3.3600 ha        1 NBZ      0.148000
     14 H5         -0.5630    0.0130    3.3730 ha        1 NBZ      0.171000
@<TRIPOS>BOND
     1    1    2 ar  
     2    1    6 ar  
     3    1   10 1   
     4    2    3 ar  
     5    2   11 1   
     6    3    4 ar  
     7    3   12 1   
     8    4    5 ar  
     9    4   13 1   
    10    5    6 ar  
    11    5   14 1   
    12    6    7 1   
    13    7    8 1   
    14    7    9 1   
@<TRIPOS>SUBSTRUCTURE
     1 NBZ         1 TEMP              0 ****  ****    0 ROOT
