@<TRIPOS>MOLECULE
NBZ
   14    11     1     0     0
SMALL
bcc


@<TRIPOS>ATOM
      1 C1         -0.1900    0.1080   -1.2000 c1        1 NBZ     -0.010500
      2 C2          1.1960    0.1200   -1.2240 c1        1 NBZ     -0.051500
      3 C3          1.9100    0.0230   -0.0410 c1        1 NBZ     -0.051500
      4 C4          1.2390   -0.0840    1.1670 c1        1 NBZ     -0.051500
      5 C5         -0.1470   -0.0960    1.1920 c1        1 NBZ     -0.051500
      6 C6         -0.8620    0.0000    0.0080 c1        1 NBZ     -0.185300
      7 N1         -2.2790   -0.0520    0.0290 no        1 NBZ      0.321300
      8 O1         -2.9680    0.5270    1.0560 o         1 NBZ     -0.209000
      9 O2         -2.8830   -0.6270   -0.8650 o         1 NBZ     -0.209000
     10 H1         -0.6940    0.1760   -2.0340 ha        1 NBZ      0.113500
     11 H2          1.6680    0.1960   -2.0750 ha        1 NBZ      0.095250
     12 H3          2.8860    0.0320   -0.0580 ha        1 NBZ      0.095250
     13 H4          1.7420   -0.1520    2.0010 ha        1 NBZ      0.095250
     14 H5         -0.6190   -0.1720    2.0420 ha        1 NBZ      0.095250
@<TRIPOS>BOND
     1    1    6 3   
     2    1   10 1   
     3    2    3 3   
     4    2   11 1   
     5    3   12 1   
     6    4    5 3   
     7    4   13 1   
     8    5   14 1   
     9    6    7 1   
    10    7    8 1   
    11    7    9 1   
@<TRIPOS>SUBSTRUCTURE
     1 NBZ         1 TEMP              0 ****  ****    0 ROOT
