@<TRIPOS>MOLECULE
NBZ
   14    14     1     0     0
SMALL
bcc


@<TRIPOS>ATOM
      1 C1         -0.5080    1.2220    0.0010 ca        1 NBZ     -0.068000
      2 C2         -1.9010    1.2100    0.0000 ca        1 NBZ     -0.140000
      3 C3         -2.5970   -0.0000   -0.0010 ca        1 NBZ     -0.088000
      4 C4         -1.9010   -1.2100   -0.0010 ca        1 NBZ     -0.140000
      5 C5         -0.5080   -1.2220   -0.0010 ca        1 NBZ     -0.068000
      6 C6          0.1840   -0.0000    0.0010 ca        1 NBZ     -0.176200
      7 N1          1.6700   -0.0000    0.0010 no        1 NBZ      0.312200
      8 O1          2.2530   -1.0520    0.0010 o         1 NBZ     -0.209000
      9 O2          2.2530    1.0520    0.0020 o         1 NBZ     -0.209000
     10 H1          0.0460    2.1760    0.0020 ha        1 NBZ      0.171000
     11 H2         -2.4520    2.1630    0.0010 ha        1 NBZ      0.148000
     12 H3         -3.6980   -0.0000   -0.0010 ha        1 NBZ      0.144000
     13 H4         -2.4520   -2.1630   -0.0020 ha        1 NBZ      0.148000
     14 H5          0.0460   -2.1760   -0.0010 ha        1 NBZ      0.171000
@<TRIPOS>BOND
     1    1    2 ar  
     2    1    6 ar  
     3    1   10 1   
     4    2    3 ar  
     5    2   11 1   
     6    3    4 ar  
     7    3   12 1   
     8    4    5 ar  
     9    4   13 1   
    10    5    6 ar  
    11    5   14 1   
    12    6    7 1   
    13    7    8 1   
    14    7    9 1   
@<TRIPOS>SUBSTRUCTURE
     1 NBZ         1 TEMP              0 ****  ****    0 ROOT
