@<TRIPOS>MOLECULE
NC
    7     6     1     0     0
SMALL
bcc


@<TRIPOS>ATOM
      1 N          -1.7630   -1.0000   -0.3850 n3        1 NC      -0.918800
      2 C1         -0.6390   -0.7590    0.4690 c3        1 NC       0.147100
      3 HN         -2.3010   -0.1680   -0.5220 hn        1 NC       0.347800
      4 H11        -0.9100   -0.4080    1.5040 h1        1 NC       0.025700
      5 H12         0.0160    0.0230    0.0000 h1        1 NC       0.025700
      6 H13        -0.0460   -1.7060    0.5700 h1        1 NC       0.025700
      7 HN1        -2.3560   -1.7140   -0.0130 hn        1 NC       0.347800
@<TRIPOS>BOND
     1    1    2 1   
     2    1    3 1   
     3    1    7 1   
     4    2    4 1   
     5    2    5 1   
     6    2    6 1   
@<TRIPOS>SUBSTRUCTURE
     1 NC          1 TEMP              0 ****  ****    0 ROOT
