@<TRIPOS>MOLECULE
NC
    8     7     1     0     0
SMALL
bcc


@<TRIPOS>ATOM
      1 N          -0.0180    0.0050    0.0010 nz        1 NC      -0.831600
      2 C1          1.4620   -0.0050   -0.0000 c3        1 NC       0.072100
      3 HN         -0.3740    0.0080    0.9630 hn        1 NC       0.466800
      4 H11         1.8430    0.9110    0.5290 hx        1 NC       0.119700
      5 H12         1.8300   -0.9260    0.5300 hx        1 NC       0.119700
      6 H13         1.8360   -0.0080   -1.0610 hx        1 NC       0.119700
      7 HN1        -0.3690    0.8410   -0.4810 hn        1 NC       0.466800
      8 HN3        -0.3810   -0.8270   -0.4800 hn        1 NC       0.466800
@<TRIPOS>BOND
     1    1    2 1   
     2    1    3 1   
     3    1    7 1   
     4    1    8 1   
     5    2    4 1   
     6    2    5 1   
     7    2    6 1   
@<TRIPOS>SUBSTRUCTURE
     1 NC          1 TEMP              0 ****  ****    0 ROOT
