@<TRIPOS>MOLECULE
NC3
   31    29     1     0     0
SMALL
bcc


@<TRIPOS>ATOM
      1 C1          0.4850    0.2300    0.0240 c3        1 NC3     -0.107000
      2 N2          0.2590    0.2970   -1.4480 n4        1 NC3     -0.121000
      3 C3         -1.0820   -0.1660   -2.0340 c1        1 NC3      0.016000
      4 N4         -3.8860   -1.1900   -3.2600 n3        1 NC3     -0.167000
      5 C5         -3.9210   -1.4010   -1.9810 c2        1 NC3      0.163000
      6 C6         -4.0960   -0.6660   -7.2430 c1        1 NC3      0.445000
      7 O7         -4.0500   -0.8300   -6.0580 o         1 NC3     -0.221500
      8 O8         -1.8910   -0.6610   -1.2500 o         1 NC3     -0.449000
      9 O9         -4.1410   -0.5030   -8.4130 o         1 NC3     -0.221500
     10 C10         1.9740    0.1360    0.3800 c3        1 NC3     -0.167500
     11 C11         2.1460   -0.0090    1.8780 c3        1 NC3     -0.155500
     12 C12         1.4940    1.1370    2.6230 c3        1 NC3     -0.164000
     13 C13         0.0330    1.2720    2.2510 c3        1 NC3     -0.155500
     14 C14        -0.1470    1.4220    0.7540 c3        1 NC3     -0.167500
     15 H1         -0.0320   -0.7140    0.3760 hx        1 NC3      0.135000
     16 HN2         0.9710   -0.2640   -1.9180 hn        1 NC3      0.218500
     17 HN4        -4.1680   -0.3190   -3.6780 hn        1 NC3      0.281000
     18 H51        -4.3110   -0.6280   -1.2840 h4        1 NC3      0.199000
     19 H52        -3.5800   -2.3670   -1.5500 h4        1 NC3      0.199000
     20 H101        2.5090    1.0580    0.0290 hc        1 NC3      0.091250
     21 H102        2.4390   -0.7480   -0.1320 hc        1 NC3      0.091250
     22 H111        1.6980   -0.9810    2.2150 hc        1 NC3      0.095750
     23 H112        3.2410   -0.0410    2.1190 hc        1 NC3      0.095750
     24 H121        2.0330    2.0930    2.3890 hc        1 NC3      0.096500
     25 H122        1.5840    0.9640    3.7280 hc        1 NC3      0.096500
     26 H131       -0.5320    0.3710    2.6080 hc        1 NC3      0.095750
     27 H132       -0.4050    2.1690    2.7620 hc        1 NC3      0.095750
     28 H141       -1.2410    1.4740    0.5120 hc        1 NC3      0.091250
     29 H142        0.3320    2.3770    0.4130 hc        1 NC3      0.091250
     30 H22         0.3720    1.2620   -1.7630 hn        1 NC3      0.218500
     31 H42        -3.5210   -1.8620   -3.9140 hn        1 NC3      0.281000
@<TRIPOS>BOND
     1    1    2 1   
     2    1   10 1   
     3    1   14 1   
     4    1   15 1   
     5    2    3 1   
     6    2   16 1   
     7    2   30 1   
     8    3    8 1   
     9    4    5 1   
    10    4   17 1   
    11    4   31 1   
    12    5   18 1   
    13    5   19 1   
    14    6    7 1   
    15    6    9 1   
    16   10   11 1   
    17   10   20 1   
    18   10   21 1   
    19   11   12 1   
    20   11   22 1   
    21   11   23 1   
    22   12   13 1   
    23   12   24 1   
    24   12   25 1   
    25   13   14 1   
    26   13   26 1   
    27   13   27 1   
    28   14   28 1   
    29   14   29 1   
@<TRIPOS>SUBSTRUCTURE
     1 NC3         1 TEMP              0 ****  ****    0 ROOT
