@<TRIPOS>MOLECULE
NC3
   29    29     1     0     0
SMALL
bcc


@<TRIPOS>ATOM
      1 C1         -1.8810    0.1750    0.1780 c3        1 NC3      0.088700
      2 N2         -0.5250    0.6170   -0.0700 n         1 NC3     -0.545900
      3 C3          0.5430   -0.2570    0.2880 c         1 NC3      0.719100
      4 N4          1.7640   -0.1320   -0.3820 n         1 NC3     -0.498900
      5 C5          2.9650   -0.6380    0.2460 c3        1 NC3     -0.068000
      6 C6          4.1980    0.2970    0.0640 c         1 NC3      0.905600
      7 O7          5.2970   -0.1430    0.4920 o         1 NC3     -0.837300
      8 O8          0.3400   -1.1420    1.1610 o         1 NC3     -0.668100
      9 O9          4.0310    1.4210   -0.4920 o         1 NC3     -0.837300
     10 C10        -2.8260    1.3750    0.3750 c3        1 NC3     -0.093900
     11 C11        -4.2170    0.8980    0.7350 c3        1 NC3     -0.072900
     12 C12        -4.7790   -0.0270   -0.3250 c3        1 NC3     -0.076400
     13 C13        -3.8480   -1.1960   -0.5730 c3        1 NC3     -0.072900
     14 C14        -2.4540   -0.7290   -0.9310 c3        1 NC3     -0.093900
     15 H1         -1.8650   -0.4240    1.1390 h1        1 NC3      0.091700
     16 HN2        -0.4170    1.1240   -0.9200 hn        1 NC3      0.275500
     17 HN4         1.9370    0.7460   -0.8440 hn        1 NC3      0.312500
     18 H51         3.2000   -1.6310   -0.2260 h1        1 NC3      0.046200
     19 H52         2.8100   -0.8070    1.3460 h1        1 NC3      0.046200
     20 H101       -2.4340    2.0330    1.1930 hc        1 NC3      0.043700
     21 H102       -2.8680    1.9850   -0.5640 hc        1 NC3      0.043700
     22 H111       -4.1840    0.3600    1.7190 hc        1 NC3      0.035950
     23 H112       -4.8930    1.7830    0.8560 hc        1 NC3      0.035950
     24 H121       -5.7830   -0.4060   -0.0020 hc        1 NC3      0.030700
     25 H122       -4.9250    0.5430   -1.2800 hc        1 NC3      0.030700
     26 H131       -3.8010   -1.8380    0.3470 hc        1 NC3      0.035950
     27 H132       -4.2540   -1.8300   -1.4040 hc        1 NC3      0.035950
     28 H141       -2.4820   -0.1700   -1.9020 hc        1 NC3      0.043700
     29 H142       -1.7850   -1.6180   -1.0650 hc        1 NC3      0.043700
@<TRIPOS>BOND
     1    1    2 1   
     2    1   10 1   
     3    1   14 1   
     4    1   15 1   
     5    2    3 1   
     6    2   16 1   
     7    3    4 1   
     8    3    8 2   
     9    4    5 1   
    10    4   17 1   
    11    5    6 1   
    12    5   18 1   
    13    5   19 1   
    14    6    7 1   
    15    6    9 1   
    16   10   11 1   
    17   10   20 1   
    18   10   21 1   
    19   11   12 1   
    20   11   22 1   
    21   11   23 1   
    22   12   13 1   
    23   12   24 1   
    24   12   25 1   
    25   13   14 1   
    26   13   26 1   
    27   13   27 1   
    28   14   28 1   
    29   14   29 1   
@<TRIPOS>SUBSTRUCTURE
     1 NC3         1 TEMP              0 ****  ****    0 ROOT
