@<TRIPOS>MOLECULE
NC3
   31    29     1     0     0
SMALL
bcc


@<TRIPOS>ATOM
      1 C1          0.4000    0.1830    0.0720 c3        1 NC3     -0.106000
      2 N2         -0.0630    0.0770   -1.3430 n4        1 NC3     -0.116000
      3 C3         -1.4720   -0.4650   -1.6260 c1        1 NC3     -0.055000
      4 N4         -4.0180   -1.4050   -2.5930 n3        1 NC3     -0.120000
      5 C5         -5.0960   -1.7820   -3.1870 c2        1 NC3      0.080000
      6 C6         -2.8290   -0.3860   -6.3700 c1        1 NC3      0.448000
      7 O7         -3.3880   -0.7590   -5.3780 o         1 NC3     -0.223000
      8 O8         -2.1170   -0.8610   -0.6630 o         1 NC3     -0.398000
      9 O9         -2.2740   -0.0180   -7.3460 o         1 NC3     -0.223000
     10 C10         1.9290    0.1770    0.1850 c3        1 NC3     -0.167500
     11 C11         2.3450    0.2080    1.6410 c3        1 NC3     -0.155000
     12 C12         1.7650    1.4100    2.3570 c3        1 NC3     -0.164000
     13 C13         0.2580    1.4540    2.2190 c3        1 NC3     -0.155000
     14 C14        -0.1690    1.4280    0.7650 c3        1 NC3     -0.167500
     15 H1         -0.0080   -0.7320    0.6020 hx        1 NC3      0.141000
     16 HN2         0.5800   -0.5300   -1.8530 hn        1 NC3      0.213000
     17 HN4        -3.8710   -1.4770   -1.5870 hn        1 NC3      0.308000
     18 H51        -5.9450   -2.2170   -2.6150 h4        1 NC3      0.200000
     19 H52        -5.2030   -1.6800   -4.2910 h4        1 NC3      0.200000
     20 H101        2.3530    1.0700   -0.3450 hc        1 NC3      0.090750
     21 H102        2.3490   -0.7440   -0.2990 hc        1 NC3      0.090750
     22 H111        3.4640    0.2370    1.7010 hc        1 NC3      0.096250
     23 H112        2.0050   -0.7330    2.1490 hc        1 NC3      0.096250
     24 H121        2.0390    1.3660    3.4430 hc        1 NC3      0.095000
     25 H122        2.2100    2.3500    1.9360 hc        1 NC3      0.095000
     26 H131       -0.1970    0.5820    2.7590 hc        1 NC3      0.096250
     27 H132       -0.1380    2.3890    2.6970 hc        1 NC3      0.096250
     28 H141        0.1980    2.3540    0.2500 hc        1 NC3      0.090750
     29 H142       -1.2890    1.4130    0.7050 hc        1 NC3      0.090750
     30 H22        -0.0260    1.0000   -1.7760 hn        1 NC3      0.213000
     31 H42        -3.2210   -1.0020   -3.0840 hn        1 NC3      0.308000
@<TRIPOS>BOND
     1    1    2 1   
     2    1   10 1   
     3    1   14 1   
     4    1   15 1   
     5    2    3 1   
     6    2   16 1   
     7    2   30 1   
     8    3    8 1   
     9    4    5 1   
    10    4   17 1   
    11    4   31 1   
    12    5   18 1   
    13    5   19 1   
    14    6    7 1   
    15    6    9 1   
    16   10   11 1   
    17   10   20 1   
    18   10   21 1   
    19   11   12 1   
    20   11   22 1   
    21   11   23 1   
    22   12   13 1   
    23   12   24 1   
    24   12   25 1   
    25   13   14 1   
    26   13   26 1   
    27   13   27 1   
    28   14   28 1   
    29   14   29 1   
@<TRIPOS>SUBSTRUCTURE
     1 NC3         1 TEMP              0 ****  ****    0 ROOT
