@<TRIPOS>MOLECULE
NC3
   31    29     1     0     0
SMALL
bcc


@<TRIPOS>ATOM
      1 C1          0.4160    0.1800    0.0480 c3        1 NC3     -0.106000
      2 N2         -0.0880    0.1780   -1.3560 ny        1 NC3     -0.116000
      3 C3         -1.4700   -0.4220   -1.6490 c1        1 NC3     -0.055000
      4 N4         -3.9880   -1.4270   -2.6270 n8        1 NC3     -0.120000
      5 C5         -5.0610   -1.8140   -3.2230 c2        1 NC3      0.080000
      6 C6         -2.9790   -0.0170   -6.3310 c1        1 NC3      0.448000
      7 O7         -3.4850   -0.5060   -5.3610 o         1 NC3     -0.223000
      8 O8         -2.0590   -0.9440   -0.7090 o         1 NC3     -0.398000
      9 O9         -2.4770    0.4670   -7.2850 o         1 NC3     -0.223000
     10 C10         1.9460    0.2610    0.1150 c3        1 NC3     -0.167500
     11 C11         2.4100    0.1820    1.5560 c3        1 NC3     -0.155000
     12 C12         1.7830    1.2720    2.4000 c3        1 NC3     -0.164000
     13 C13         0.2720    1.2330    2.3100 c3        1 NC3     -0.155000
     14 C14        -0.2020    1.3160    0.8730 c3        1 NC3     -0.167500
     15 H1          0.0830   -0.8040    0.4990 hx        1 NC3      0.141000
     16 HN2        -0.1210    1.1380   -1.7010 hn        1 NC3      0.213000
     17 HN4        -3.8040   -1.5790   -1.6370 hn        1 NC3      0.308000
     18 H51        -5.2100   -1.6200   -4.3110 h4        1 NC3      0.200000
     19 H52        -5.8650   -2.3490   -2.6710 h4        1 NC3      0.200000
     20 H101        2.4040   -0.5820   -0.4660 hc        1 NC3      0.090750
     21 H102        2.2970    1.2250   -0.3380 hc        1 NC3      0.090750
     22 H111        3.5270    0.2770    1.5850 hc        1 NC3      0.096250
     23 H112        2.1450   -0.8220    1.9800 hc        1 NC3      0.096250
     24 H121        2.1560    2.2740    2.0580 hc        1 NC3      0.095000
     25 H122        2.0980    1.1440    3.4680 hc        1 NC3      0.095000
     26 H131       -0.1620    2.0920    2.8870 hc        1 NC3      0.096250
     27 H132       -0.1090    0.2870    2.7770 hc        1 NC3      0.096250
     28 H141       -1.3200    1.2360    0.8440 hc        1 NC3      0.090750
     29 H142        0.0900    2.3080    0.4390 hc        1 NC3      0.090750
     30 H22         0.5720   -0.3370   -1.9400 hn        1 NC3      0.213000
     31 H42        -3.2320   -0.9340   -3.1020 hn        1 NC3      0.308000
@<TRIPOS>BOND
     1    1    2 1   
     2    1   10 1   
     3    1   14 1   
     4    1   15 1   
     5    2    3 1   
     6    2   16 1   
     7    2   30 1   
     8    3    8 1   
     9    4    5 1   
    10    4   17 1   
    11    4   31 1   
    12    5   18 1   
    13    5   19 1   
    14    6    7 1   
    15    6    9 1   
    16   10   11 1   
    17   10   20 1   
    18   10   21 1   
    19   11   12 1   
    20   11   22 1   
    21   11   23 1   
    22   12   13 1   
    23   12   24 1   
    24   12   25 1   
    25   13   14 1   
    26   13   26 1   
    27   13   27 1   
    28   14   28 1   
    29   14   29 1   
@<TRIPOS>SUBSTRUCTURE
     1 NC3         1 TEMP              0 ****  ****    0 ROOT
