@<TRIPOS>MOLECULE
NC4
   35    35     1     0     0
SMALL
bcc


@<TRIPOS>ATOM
      1 C1          0.9960   -2.0900   -0.2590 c3        1 NC4      0.089700
      2 N2          0.3890   -0.8520    0.1950 n         1 NC4     -0.538900
      3 C3          0.2690    0.2760   -0.7150 c         1 NC4      0.725100
      4 N4         -0.2090    1.5570   -0.2210 n         1 NC4     -0.526900
      5 C5         -0.3400    2.6790   -1.1300 c3        1 NC4      0.062000
      6 C6         -1.7830    3.2080   -1.0870 c3        1 NC4     -0.092400
      7 C7         -1.7760    4.7350   -1.2620 c3        1 NC4     -0.195400
      8 C8         -3.1030    5.1840   -1.8550 c         1 NC4      0.909600
      9 O9         -3.1860    5.4490   -3.0800 o         1 NC4     -0.849300
     10 O10         0.6770    0.1800   -1.8550 o         1 NC4     -0.647100
     11 O11        -4.1000    5.3530   -1.1070 o         1 NC4     -0.849300
     12 C12         2.3560   -2.2360    0.3860 c3        1 NC4     -0.093400
     13 C13         2.2660   -2.4930    1.8810 c3        1 NC4     -0.077900
     14 C14         1.3430   -3.6450    2.2150 c3        1 NC4     -0.077400
     15 C15        -0.0210   -3.5010    1.5700 c3        1 NC4     -0.077900
     16 C16         0.0680   -3.2450    0.0770 c3        1 NC4     -0.093400
     17 H1          1.1090   -2.0500   -1.2200 h1        1 NC4      0.089700
     18 HN2         0.1220   -0.7670    1.0610 hn        1 NC4      0.278500
     19 HN4        -0.3510    1.6790    0.6830 hn        1 NC4      0.287500
     20 H51        -0.1270    2.3890   -2.0390 h1        1 NC4      0.056200
     21 H52         0.2750    3.3890   -0.8620 h1        1 NC4      0.056200
     22 H61        -2.3040    2.7980   -1.8130 hc        1 NC4      0.051200
     23 H62        -2.1870    2.9810   -0.2280 hc        1 NC4      0.051200
     24 H71        -1.0490    4.9910   -1.8620 hc        1 NC4      0.025200
     25 H72        -1.6460    5.1630   -0.3910 hc        1 NC4      0.025200
     26 H121        2.8250   -2.9810   -0.0340 hc        1 NC4      0.049200
     27 H122        2.8660   -1.4160    0.2360 hc        1 NC4      0.049200
     28 H131        3.1590   -2.6970    2.2200 hc        1 NC4      0.037200
     29 H132        1.9360   -1.6850    2.3220 hc        1 NC4      0.037200
     30 H141        1.2300   -3.6900    3.1850 hc        1 NC4      0.034200
     31 H142        1.7520   -4.4780    1.9050 hc        1 NC4      0.034200
     32 H151       -0.5340   -4.3300    1.7220 hc        1 NC4      0.037200
     33 H152       -0.4930   -2.7530    1.9920 hc        1 NC4      0.037200
     34 H161        0.4010   -4.0610   -0.3670 hc        1 NC4      0.049200
     35 H162       -0.8290   -3.0400   -0.2640 hc        1 NC4      0.049200
@<TRIPOS>BOND
     1    1    2 1   
     2    1   12 1   
     3    1   16 1   
     4    1   17 1   
     5    2    3 1   
     6    2   18 1   
     7    3    4 1   
     8    3   10 2   
     9    4    5 1   
    10    4   19 1   
    11    5    6 1   
    12    5   20 1   
    13    5   21 1   
    14    6    7 1   
    15    6   22 1   
    16    6   23 1   
    17    7    8 1   
    18    7   24 1   
    19    7   25 1   
    20    8    9 1   
    21    8   11 1   
    22   12   13 1   
    23   12   26 1   
    24   12   27 1   
    25   13   14 1   
    26   13   28 1   
    27   13   29 1   
    28   14   15 1   
    29   14   30 1   
    30   14   31 1   
    31   15   16 1   
    32   15   32 1   
    33   15   33 1   
    34   16   34 1   
    35   16   35 1   
@<TRIPOS>SUBSTRUCTURE
     1 NC4         1 TEMP              0 ****  ****    0 ROOT
