@<TRIPOS>MOLECULE
NC4
   35    35     1     0     0
SMALL
bcc


@<TRIPOS>ATOM
      1 C1         -2.9820    0.2310    0.1780 c3        1 NC4      0.085700
      2 N2         -1.6370    0.7240   -0.0540 n         1 NC4     -0.538900
      3 C3         -0.5550   -0.1600    0.2140 c         1 NC4      0.726100
      4 N4          0.6880    0.1090   -0.3730 n         1 NC4     -0.534900
      5 C5          1.8610   -0.5580    0.1580 c3        1 NC4      0.074000
      6 C6          3.1630    0.1360   -0.2340 c3        1 NC4     -0.080400
      7 C7          4.3530   -0.5780    0.3570 c3        1 NC4     -0.196400
      8 C8          5.6470    0.2300    0.1330 c         1 NC4      0.909600
      9 O9          6.7130   -0.4190   -0.0640 o         1 NC4     -0.848800
     10 O10        -0.7290   -1.1610    0.9530 o         1 NC4     -0.646100
     11 O11         5.5830    1.4930    0.1720 o         1 NC4     -0.848800
     12 C12        -3.9640    1.3970    0.3910 c3        1 NC4     -0.092900
     13 C13        -5.3400    0.8680    0.7340 c3        1 NC4     -0.073900
     14 C14        -5.8660   -0.0570   -0.3440 c3        1 NC4     -0.078400
     15 C15        -4.8970   -1.1910   -0.6050 c3        1 NC4     -0.073900
     16 C16        -3.5170   -0.6740   -0.9470 c3        1 NC4     -0.092900
     17 H1         -2.9480   -0.3840    1.1290 h1        1 NC4      0.091700
     18 HN2        -1.5550    1.2850   -0.8730 hn        1 NC4      0.276500
     19 HN4         0.8500    1.0360   -0.6990 hn        1 NC4      0.292500
     20 H51         1.8540   -1.6120   -0.2390 h1        1 NC4      0.045200
     21 H52         1.7940   -0.6260    1.2830 h1        1 NC4      0.045200
     22 H61         3.1740    1.2000    0.1270 hc        1 NC4      0.051200
     23 H62         3.2640    0.1630   -1.3510 hc        1 NC4      0.051200
     24 H71         4.4690   -1.5930   -0.0970 hc        1 NC4      0.025700
     25 H72         4.2200   -0.7070    1.4600 hc        1 NC4      0.025700
     26 H121       -3.5980    2.0540    1.2220 hc        1 NC4      0.045200
     27 H122       -4.0210    2.0210   -0.5390 hc        1 NC4      0.045200
     28 H131       -5.2960    0.3170    1.7100 hc        1 NC4      0.039450
     29 H132       -6.0450    1.7300    0.8660 hc        1 NC4      0.039450
     30 H141       -6.8590   -0.4730   -0.0320 hc        1 NC4      0.033700
     31 H142       -6.0260    0.5240   -1.2900 hc        1 NC4      0.033700
     32 H151       -4.8350   -1.8470    0.3030 hc        1 NC4      0.039450
     33 H152       -5.2780   -1.8230   -1.4500 hc        1 NC4      0.039450
     34 H161       -3.5560   -0.1030   -1.9100 hc        1 NC4      0.045200
     35 H162       -2.8170   -1.5400   -1.0860 hc        1 NC4      0.045200
@<TRIPOS>BOND
     1    1    2 1   
     2    1   12 1   
     3    1   16 1   
     4    1   17 1   
     5    2    3 1   
     6    2   18 1   
     7    3    4 1   
     8    3   10 2   
     9    4    5 1   
    10    4   19 1   
    11    5    6 1   
    12    5   20 1   
    13    5   21 1   
    14    6    7 1   
    15    6   22 1   
    16    6   23 1   
    17    7    8 1   
    18    7   24 1   
    19    7   25 1   
    20    8    9 1   
    21    8   11 1   
    22   12   13 1   
    23   12   26 1   
    24   12   27 1   
    25   13   14 1   
    26   13   28 1   
    27   13   29 1   
    28   14   15 1   
    29   14   30 1   
    30   14   31 1   
    31   15   16 1   
    32   15   32 1   
    33   15   33 1   
    34   16   34 1   
    35   16   35 1   
@<TRIPOS>SUBSTRUCTURE
     1 NC4         1 TEMP              0 ****  ****    0 ROOT
