@<TRIPOS>MOLECULE
NC4
   35    35     1     0     0
SMALL
bcc


@<TRIPOS>ATOM
      1 C1          0.0430    0.0390   -0.0570 c3        1 NC4      0.085700
      2 N2         -0.4260   -0.0270   -1.4280 n         1 NC4     -0.538900
      3 C3         -1.7630   -0.4590   -1.6500 c         1 NC4      0.726100
      4 N4         -2.3730   -0.1460   -2.8710 n         1 NC4     -0.534900
      5 C5         -3.5750   -0.8650   -3.2480 c3        1 NC4      0.074000
      6 C6         -3.8730   -0.7760   -4.7420 c3        1 NC4     -0.080400
      7 C7         -5.1170   -1.5540   -5.0900 c3        1 NC4     -0.196400
      8 C8         -5.3060   -1.6350   -6.6180 c         1 NC4      0.909600
      9 O9         -6.4900   -1.6210   -7.0610 o         1 NC4     -0.848800
     10 O10        -2.3740   -1.0950   -0.7550 o         1 NC4     -0.646100
     11 O11        -4.2770   -1.7260   -7.3490 o         1 NC4     -0.848800
     12 C12         1.5790   -0.0340    0.0020 c3        1 NC4     -0.092900
     13 C13         2.0470   -0.0690    1.4420 c3        1 NC4     -0.073900
     14 C14         1.5600    1.1390    2.2150 c3        1 NC4     -0.078400
     15 C15         0.0520    1.2600    2.1370 c3        1 NC4     -0.073900
     16 C16        -0.4280    1.2930    0.7030 c3        1 NC4     -0.092900
     17 H1         -0.3780   -0.8670    0.4790 h1        1 NC4      0.091700
     18 HN2        -0.1080    0.7290   -1.9950 hn        1 NC4      0.276500
     19 HN4        -1.7760    0.0930   -3.6330 hn        1 NC4      0.292500
     20 H51        -3.4920   -1.9480   -2.9430 h1        1 NC4      0.045200
     21 H52        -4.4270   -0.4190   -2.6600 h1        1 NC4      0.045200
     22 H61        -3.0180   -1.1870   -5.3450 hc        1 NC4      0.051200
     23 H62        -4.0080    0.2950   -5.0450 hc        1 NC4      0.051200
     24 H71        -5.0420   -2.6010   -4.7010 hc        1 NC4      0.025700
     25 H72        -6.0190   -1.0800   -4.6310 hc        1 NC4      0.025700
     26 H121        1.9350   -0.9550   -0.5290 hc        1 NC4      0.045200
     27 H122        2.0230    0.8540   -0.5170 hc        1 NC4      0.045200
     28 H131        1.6720   -1.0040    1.9340 hc        1 NC4      0.039450
     29 H132        3.1680   -0.1030    1.4650 hc        1 NC4      0.039450
     30 H141        2.0320    2.0660    1.7970 hc        1 NC4      0.033700
     31 H142        1.8770    1.0530    3.2870 hc        1 NC4      0.033700
     32 H151       -0.4210    0.3930    2.6680 hc        1 NC4      0.039450
     33 H152       -0.2770    2.1950    2.6610 hc        1 NC4      0.039450
     34 H161       -0.0400    2.2140    0.1950 hc        1 NC4      0.045200
     35 H162       -1.5490    1.3350    0.6840 hc        1 NC4      0.045200
@<TRIPOS>BOND
     1    1    2 1   
     2    1   12 1   
     3    1   16 1   
     4    1   17 1   
     5    2    3 1   
     6    2   18 1   
     7    3    4 1   
     8    3   10 2   
     9    4    5 1   
    10    4   19 1   
    11    5    6 1   
    12    5   20 1   
    13    5   21 1   
    14    6    7 1   
    15    6   22 1   
    16    6   23 1   
    17    7    8 1   
    18    7   24 1   
    19    7   25 1   
    20    8    9 1   
    21    8   11 1   
    22   12   13 1   
    23   12   26 1   
    24   12   27 1   
    25   13   14 1   
    26   13   28 1   
    27   13   29 1   
    28   14   15 1   
    29   14   30 1   
    30   14   31 1   
    31   15   16 1   
    32   15   32 1   
    33   15   33 1   
    34   16   34 1   
    35   16   35 1   
@<TRIPOS>SUBSTRUCTURE
     1 NC4         1 TEMP              0 ****  ****    0 ROOT
