@<TRIPOS>MOLECULE
NC5
   85    89     1     0     0
SMALL
bcc


@<TRIPOS>ATOM
      1 O39        -6.5040   -1.7430    0.5660 o         1 NC5     -0.590100
      2 C9         -6.2140   -0.5390    0.4530 c         1 NC5      0.668100
      3 C10        -7.2820    0.5410    0.3800 c3        1 NC5     -0.157400
      4 C13        -8.6710   -0.1020    0.4520 c3        1 NC5      0.179300
      5 N16        -9.7350    0.8860    0.3220 n3        1 NC5     -0.739600
      6 C18       -10.9440    0.3660   -0.3300 c3        1 NC5      0.192000
      7 C20       -10.7060   -0.1880   -1.7460 c3        1 NC5     -0.095900
      8 C23        -9.8790    0.7000   -2.6360 c3        1 NC5     -0.086600
      9 C27       -12.0530    1.4310   -0.4200 c3        1 NC5     -0.074400
     10 C30       -12.3560    2.0480    0.9260 c3        1 NC5     -0.077900
     11 C33       -11.0900    2.6030    1.5380 c3        1 NC5     -0.076900
     12 C36       -10.0160    1.5220    1.6050 c3        1 NC5      0.173800
     13 N7         -4.9040   -0.0760    0.3900 n         1 NC5     -0.476100
     14 C6         -3.7130   -0.8190    0.4170 ca        1 NC5      0.096600
     15 C40        -3.7070   -2.2440    0.6450 ca        1 NC5     -0.146000
     16 C42        -2.5320   -2.9300    0.6730 ca        1 NC5     -0.089000
     17 C4         -2.5120   -0.1550    0.2280 ca        1 NC5     -0.263300
     18 C3         -1.2560   -0.8570    0.2550 ca        1 NC5      0.457600
     19 N1         -0.1040   -0.1650    0.0660 nb        1 NC5     -0.682000
     20 C44        -1.2770   -2.2780    0.4830 ca        1 NC5     -0.180300
     21 C45        -0.0590   -2.9660    0.5090 ca        1 NC5     -0.045000
     22 C2          1.1360   -2.2660    0.3160 ca        1 NC5     -0.180300
     23 C47         2.4110   -2.9050    0.3300 ca        1 NC5     -0.089000
     24 C49         3.5650   -2.2070    0.1390 ca        1 NC5     -0.146000
     25 C51         3.5250   -0.7820   -0.0830 ca        1 NC5      0.096600
     26 C85         2.3030   -0.1300   -0.1020 ca        1 NC5     -0.263300
     27 C87         1.0690   -0.8450    0.0950 ca        1 NC5      0.457600
     28 N52         4.6910   -0.0300   -0.2930 n         1 NC5     -0.476100
     29 C54         6.0160   -0.4500   -0.2210 c         1 NC5      0.668100
     30 O84         6.3440   -1.6210    0.0380 o         1 NC5     -0.590100
     31 C55         7.0490    0.6330   -0.4880 c3        1 NC5     -0.157400
     32 C58         8.4580    0.0430   -0.3670 c3        1 NC5      0.179300
     33 N61         9.4870    1.0530   -0.5550 n3        1 NC5     -0.739600
     34 C63        10.6630    0.8620    0.2960 c3        1 NC5      0.192000
     35 C77        11.3930   -0.4830    0.1270 c3        1 NC5     -0.095900
     36 C80        12.1580   -0.8630    1.3680 c3        1 NC5     -0.086600
     37 C66        11.6560    2.0250    0.1280 c3        1 NC5     -0.074400
     38 C69        12.0120    2.2860   -1.3200 c3        1 NC5     -0.077900
     39 C72        10.7650    2.4510   -2.1610 c3        1 NC5     -0.076900
     40 C75         9.8100    1.2760   -1.9560 c3        1 NC5      0.173800
     41 H10        -7.1380    1.2620    1.2260 hc        1 NC5      0.073450
     42 H10A       -7.1750    1.1090   -0.5820 hc        1 NC5      0.073450
     43 H13        -8.7360   -0.8580   -0.3800 h1        1 NC5      0.053200
     44 H13A       -8.7420   -0.6780    1.4210 h1        1 NC5      0.053200
     45 H18       -11.3620   -0.4930    0.2860 h1        1 NC5      0.036200
     46 H20       -10.2260   -1.2000   -1.6760 hc        1 NC5      0.042450
     47 H20A      -11.7150   -0.3460   -2.2130 hc        1 NC5      0.042450
     48 H23        -9.8610    0.2880   -3.6750 hc        1 NC5      0.034200
     49 H23A      -10.2990    1.7340   -2.6720 hc        1 NC5      0.034200
     50 H23B       -8.8260    0.7660   -2.2680 hc        1 NC5      0.034200
     51 H27       -11.7450    2.2330   -1.1400 hc        1 NC5      0.047450
     52 H27A      -12.9750    0.9390   -0.8260 hc        1 NC5      0.047450
     53 H30       -13.1150    2.8640    0.8080 hc        1 NC5      0.040700
     54 H30A      -12.7970    1.2740    1.6090 hc        1 NC5      0.040700
     55 H33       -10.7230    3.4700    0.9290 hc        1 NC5      0.046450
     56 H33A      -11.2870    2.9730    2.5770 hc        1 NC5      0.046450
     57 H36       -10.3300    0.7610    2.3810 h1        1 NC5      0.027950
     58 H36A       -9.0550    1.9900    1.9610 h1        1 NC5      0.027950
     59 HN7        -4.7850    0.9070    0.2720 hn        1 NC5      0.317500
     60 H40        -4.6620   -2.7760    0.7960 ha        1 NC5      0.177000
     61 H42        -2.5280   -4.0180    0.8470 ha        1 NC5      0.137000
     62 H4         -2.4800    0.9330    0.0510 ha        1 NC5      0.147000
     63 H45        -0.0420   -4.0530    0.6810 ha        1 NC5      0.139000
     64 H47         2.4430   -3.9930    0.5000 ha        1 NC5      0.137000
     65 H49         4.5360   -2.7300    0.1560 ha        1 NC5      0.177000
     66 H85         2.2360    0.9580   -0.2700 ha        1 NC5      0.147000
     67 HN52        4.5420    0.9380   -0.4800 hn        1 NC5      0.317500
     68 H55         6.8890    1.0530   -1.5150 hc        1 NC5      0.073450
     69 H55A        6.9180    1.4670    0.2510 hc        1 NC5      0.073450
     70 H58         8.5530   -0.4120    0.6600 h1        1 NC5      0.053200
     71 H58A        8.5470   -0.8030   -1.1110 h1        1 NC5      0.053200
     72 H63        10.2770    0.9040    1.3610 h1        1 NC5      0.036200
     73 H77        10.6520   -1.2960   -0.1010 hc        1 NC5      0.042450
     74 H77A       12.0920   -0.4230   -0.7470 hc        1 NC5      0.042450
     75 H80        11.4720   -0.9540    2.2440 hc        1 NC5      0.034200
     76 H80A       12.6660   -1.8470    1.2180 hc        1 NC5      0.034200
     77 H80B       12.9380   -0.1020    1.6120 hc        1 NC5      0.034200
     78 H66        11.2040    2.9520    0.5690 hc        1 NC5      0.047450
     79 H66A       12.5830    1.7880    0.7100 hc        1 NC5      0.047450
     80 H69        12.6410    3.2120   -1.3900 hc        1 NC5      0.040700
     81 H69A       12.6250    1.4360   -1.7210 hc        1 NC5      0.040700
     82 H72        10.2510    3.4090   -1.8890 hc        1 NC5      0.046450
     83 H72A       11.0350    2.5030   -3.2470 hc        1 NC5      0.046450
     84 H75        10.2680    0.3550   -2.4260 h1        1 NC5      0.027950
     85 H75A        8.8480    1.4910   -2.4990 h1        1 NC5      0.027950
@<TRIPOS>BOND
     1    1    2 2   
     2    2    3 1   
     3    2   13 1   
     4    3    4 1   
     5    3   41 1   
     6    3   42 1   
     7    4    5 1   
     8    4   43 1   
     9    4   44 1   
    10    5    6 1   
    11    5   12 1   
    12    6    7 1   
    13    6    9 1   
    14    6   45 1   
    15    7    8 1   
    16    7   46 1   
    17    7   47 1   
    18    8   48 1   
    19    8   49 1   
    20    8   50 1   
    21    9   10 1   
    22    9   51 1   
    23    9   52 1   
    24   10   11 1   
    25   10   53 1   
    26   10   54 1   
    27   11   12 1   
    28   11   55 1   
    29   11   56 1   
    30   12   57 1   
    31   12   58 1   
    32   13   14 1   
    33   13   59 1   
    34   14   15 ar  
    35   14   17 ar  
    36   15   16 ar  
    37   15   60 1   
    38   16   20 ar  
    39   16   61 1   
    40   17   18 ar  
    41   17   62 1   
    42   18   19 ar  
    43   18   20 ar  
    44   19   27 ar  
    45   20   21 ar  
    46   21   22 ar  
    47   21   63 1   
    48   22   23 ar  
    49   22   27 ar  
    50   23   24 ar  
    51   23   64 1   
    52   24   25 ar  
    53   24   65 1   
    54   25   26 ar  
    55   25   28 1   
    56   26   27 ar  
    57   26   66 1   
    58   28   29 1   
    59   28   67 1   
    60   29   30 2   
    61   29   31 1   
    62   31   32 1   
    63   31   68 1   
    64   31   69 1   
    65   32   33 1   
    66   32   70 1   
    67   32   71 1   
    68   33   34 1   
    69   33   40 1   
    70   34   35 1   
    71   34   37 1   
    72   34   72 1   
    73   35   36 1   
    74   35   73 1   
    75   35   74 1   
    76   36   75 1   
    77   36   76 1   
    78   36   77 1   
    79   37   38 1   
    80   37   78 1   
    81   37   79 1   
    82   38   39 1   
    83   38   80 1   
    84   38   81 1   
    85   39   40 1   
    86   39   82 1   
    87   39   83 1   
    88   40   84 1   
    89   40   85 1   
@<TRIPOS>SUBSTRUCTURE
     1 NC5         1 TEMP              0 ****  ****    0 ROOT
