@<TRIPOS>MOLECULE
NC5
   87    91     1     0     0
SMALL
bcc


@<TRIPOS>ATOM
      1 O39         3.9090   -1.0260   -0.8160 o         1 NC5     -0.399100
      2 C9          3.2940    0.0130   -0.6670 c         1 NC5      0.566600
      3 C10         2.5060    0.5280    0.4890 c3        1 NC5     -0.170400
      4 C13         2.6020   -0.4670    1.6710 c3        1 NC5      0.194800
      5 N16         1.9210    0.0700    2.8290 n3        1 NC5     -0.754600
      6 C18         0.6480   -0.5970    3.1360 c3        1 NC5      0.192000
      7 C20        -0.3560   -0.5780    1.9720 c3        1 NC5     -0.097400
      8 C23        -0.8660    0.7910    1.6060 c3        1 NC5     -0.095100
      9 C27        -0.0350   -0.0030    4.3800 c3        1 NC5     -0.074400
     10 C30         0.8980    0.0220    5.5680 c3        1 NC5     -0.083400
     11 C33         2.1520    0.7900    5.2170 c3        1 NC5     -0.077900
     12 C36         2.8140    0.1990    3.9770 c3        1 NC5      0.177800
     13 N7          3.3620    0.9680   -1.8790 n4        1 NC5     -0.572200
     14 C6          2.4420    0.5660   -2.9480 ca        1 NC5     -0.017400
     15 C40         1.2620    1.3580   -3.1660 ca        1 NC5     -0.140500
     16 C42         0.4000    1.0170   -4.1650 ca        1 NC5     -0.050000
     17 C4          2.7250   -0.5360   -3.7200 ca        1 NC5     -0.110300
     18 C3          1.8230   -0.9130   -4.7870 ca        1 NC5      0.422600
     19 N1          2.1230   -1.9980   -5.5420 nb        1 NC5     -0.618000
     20 C44         0.6450   -0.1150   -5.0030 ca        1 NC5     -0.135800
     21 C45        -0.2240   -0.4800   -6.0400 ca        1 NC5     -0.027000
     22 C2          0.0730   -1.5990   -6.8290 ca        1 NC5     -0.135800
     23 C47        -0.7740   -2.0240   -7.9000 ca        1 NC5     -0.050000
     24 C49        -0.4670   -3.1170   -8.6540 ca        1 NC5     -0.140500
     25 C51         0.7310   -3.8600   -8.3700 ca        1 NC5     -0.017400
     26 C85         1.5820   -3.4960   -7.3530 ca        1 NC5     -0.110300
     27 C87         1.2740   -2.3390   -6.5410 ca        1 NC5      0.422600
     28 N52         1.0280   -5.0380   -9.1910 n4        1 NC5     -0.572200
     29 C54         1.8960   -4.6760  -10.4150 c         1 NC5      0.566600
     30 O84         3.0920   -4.7790  -10.2220 o         1 NC5     -0.399100
     31 C55         1.1280   -4.2830  -11.6320 c3        1 NC5     -0.170400
     32 C58         2.1060   -3.8260  -12.7410 c3        1 NC5      0.194800
     33 N61         1.3640   -3.3810  -13.8970 n3        1 NC5     -0.754600
     34 C63         1.8350   -2.1140  -14.4670 c3        1 NC5      0.192000
     35 C77         3.2970   -2.1170  -14.9500 c3        1 NC5     -0.097400
     36 C80         3.8920   -0.7330  -14.9270 c3        1 NC5     -0.095100
     37 C66         0.9040   -1.6450  -15.5980 c3        1 NC5     -0.074400
     38 C69         0.6630   -2.7160  -16.6400 c3        1 NC5     -0.083400
     39 C72         0.1930   -4.0020  -15.9980 c3        1 NC5     -0.077900
     40 C75         1.1430   -4.4320  -14.8820 c3        1 NC5      0.177800
     41 H10         1.4270    0.6510    0.1870 hc        1 NC5      0.113200
     42 H10A        2.8970    1.5330    0.8090 hc        1 NC5      0.113200
     43 H13         3.6980   -0.6410    1.8770 h1        1 NC5      0.058950
     44 H13A        2.1710   -1.4520    1.3290 h1        1 NC5      0.058950
     45 H18         0.8550   -1.6920    3.3630 h1        1 NC5      0.038200
     46 H20        -1.2220   -1.2240    2.2780 hc        1 NC5      0.042700
     47 H20A        0.1020   -1.0610    1.0680 hc        1 NC5      0.042700
     48 H23        -1.3910    0.7540    0.6200 hc        1 NC5      0.039533
     49 H23A       -0.0370    1.5360    1.5410 hc        1 NC5      0.039533
     50 H23B       -1.5960    1.1580    2.3700 hc        1 NC5      0.039533
     51 H27        -0.9370   -0.6270    4.6090 hc        1 NC5      0.056700
     52 H27A       -0.3830    1.0400    4.1600 hc        1 NC5      0.056700
     53 H30         0.3870    0.5040    6.4410 hc        1 NC5      0.056700
     54 H30A        1.1630   -1.0260    5.8710 hc        1 NC5      0.056700
     55 H33         2.8880    0.7430    6.0610 hc        1 NC5      0.057950
     56 H33A        1.9010    1.8680    5.0420 hc        1 NC5      0.057950
     57 H36         3.6600    0.8750    3.6640 h1        1 NC5      0.033200
     58 H36A        3.2570   -0.8030    4.2550 h1        1 NC5      0.033200
     59 HN7         3.1310    1.9210   -1.5750 hn        1 NC5      0.465050
     60 H40         1.0570    2.2370   -2.5330 ha        1 NC5      0.166500
     61 H42        -0.5100    1.6170   -4.3470 ha        1 NC5      0.178000
     62 H4          3.6240   -1.1600   -3.5520 ha        1 NC5      0.189000
     63 H45        -1.1370    0.1100   -6.2330 ha        1 NC5      0.175000
     64 H47        -1.6920   -1.4440   -8.1040 ha        1 NC5      0.178000
     65 H49        -1.1340   -3.4320   -9.4730 ha        1 NC5      0.166500
     66 H85         2.5090   -4.0560   -7.1250 ha        1 NC5      0.189000
     67 HN52        1.5300   -5.7280   -8.6170 hn        1 NC5      0.465050
     68 H55         0.5280   -5.1630  -11.9950 hc        1 NC5      0.113200
     69 H55A        0.4140   -3.4510  -11.3810 hc        1 NC5      0.113200
     70 H58         2.7950   -4.6910  -12.9660 h1        1 NC5      0.058950
     71 H58A        2.7350   -2.9900  -12.3220 h1        1 NC5      0.058950
     72 H63         1.7540   -1.3550  -13.6290 h1        1 NC5      0.038200
     73 H77         3.9190   -2.7900  -14.3010 hc        1 NC5      0.042700
     74 H77A        3.3450   -2.5330  -15.9910 hc        1 NC5      0.042700
     75 H80         3.3230   -0.0380  -15.5900 hc        1 NC5      0.039533
     76 H80A        3.8850   -0.3140  -13.8910 hc        1 NC5      0.039533
     77 H80B        4.9500   -0.7680  -15.2840 hc        1 NC5      0.039533
     78 H66        -0.0780   -1.3330  -15.1540 hc        1 NC5      0.056700
     79 H66A        1.3640   -0.7430  -16.0790 hc        1 NC5      0.056700
     80 H69        -0.1070   -2.3570  -17.3720 hc        1 NC5      0.056700
     81 H69A        1.6060   -2.9060  -17.2190 hc        1 NC5      0.056700
     82 H72         0.1520   -4.8220  -16.7590 hc        1 NC5      0.057950
     83 H72A       -0.8400   -3.8640  -15.5860 hc        1 NC5      0.057950
     84 H75         2.1180   -4.7660  -15.3450 h1        1 NC5      0.033200
     85 H75A        0.6980   -5.3170  -14.3450 h1        1 NC5      0.033200
     86 H721        4.3200    0.9620   -2.2540 hn        1 NC5      0.465050
     87 H522        0.1450   -5.4510   -9.5130 hn        1 NC5      0.465050
@<TRIPOS>BOND
     1    1    2 2   
     2    2    3 1   
     3    2   13 1   
     4    3    4 1   
     5    3   41 1   
     6    3   42 1   
     7    4    5 1   
     8    4   43 1   
     9    4   44 1   
    10    5    6 1   
    11    5   12 1   
    12    6    7 1   
    13    6    9 1   
    14    6   45 1   
    15    7    8 1   
    16    7   46 1   
    17    7   47 1   
    18    8   48 1   
    19    8   49 1   
    20    8   50 1   
    21    9   10 1   
    22    9   51 1   
    23    9   52 1   
    24   10   11 1   
    25   10   53 1   
    26   10   54 1   
    27   11   12 1   
    28   11   55 1   
    29   11   56 1   
    30   12   57 1   
    31   12   58 1   
    32   13   14 1   
    33   13   59 1   
    34   13   86 1   
    35   14   15 ar  
    36   14   17 ar  
    37   15   16 ar  
    38   15   60 1   
    39   16   20 ar  
    40   16   61 1   
    41   17   18 ar  
    42   17   62 1   
    43   18   19 ar  
    44   18   20 ar  
    45   19   27 ar  
    46   20   21 ar  
    47   21   22 ar  
    48   21   63 1   
    49   22   23 ar  
    50   22   27 ar  
    51   23   24 ar  
    52   23   64 1   
    53   24   25 ar  
    54   24   65 1   
    55   25   26 ar  
    56   25   28 1   
    57   26   27 ar  
    58   26   66 1   
    59   28   29 1   
    60   28   67 1   
    61   28   87 1   
    62   29   30 2   
    63   29   31 1   
    64   31   32 1   
    65   31   68 1   
    66   31   69 1   
    67   32   33 1   
    68   32   70 1   
    69   32   71 1   
    70   33   34 1   
    71   33   40 1   
    72   34   35 1   
    73   34   37 1   
    74   34   72 1   
    75   35   36 1   
    76   35   73 1   
    77   35   74 1   
    78   36   75 1   
    79   36   76 1   
    80   36   77 1   
    81   37   38 1   
    82   37   78 1   
    83   37   79 1   
    84   38   39 1   
    85   38   80 1   
    86   38   81 1   
    87   39   40 1   
    88   39   82 1   
    89   39   83 1   
    90   40   84 1   
    91   40   85 1   
@<TRIPOS>SUBSTRUCTURE
     1 NC5         1 TEMP              0 ****  ****    0 ROOT
