@<TRIPOS>MOLECULE
NC5
   85    89     1     0     0
SMALL
bcc


@<TRIPOS>ATOM
      1 O39        -0.6300    0.3970    0.4890 o         1 NC5     -0.590100
      2 C9          0.4130   -0.2630    0.3390 c         1 NC5      0.668100
      3 C10         1.2970   -0.6480    1.5150 c3        1 NC5     -0.157400
      4 C13         0.6930   -0.1020    2.8140 c3        1 NC5      0.179300
      5 N16         1.5360   -0.3880    3.9680 n3        1 NC5     -0.739600
      6 C18         1.4600    0.6350    5.0190 c3        1 NC5      0.192000
      7 C20         1.8500    2.0480    4.5500 c3        1 NC5     -0.095900
      8 C23         3.1160    2.1130    3.7390 c3        1 NC5     -0.086600
      9 C27         2.3400    0.2810    6.2320 c3        1 NC5     -0.074400
     10 C30         2.0390   -1.1020    6.7640 c3        1 NC5     -0.077900
     11 C33         2.1690   -2.1220    5.6570 c3        1 NC5     -0.076900
     12 C36         1.2890   -1.7340    4.4740 c3        1 NC5      0.173800
     13 N7          0.8610   -0.7050   -0.9020 n         1 NC5     -0.476100
     14 C6          0.2790   -0.5050   -2.1630 ca        1 NC5      0.097600
     15 C40        -0.9830    0.1760   -2.3230 ca        1 NC5     -0.146000
     16 C42        -1.5200    0.3460   -3.5620 ca        1 NC5     -0.089000
     17 C4          0.9400   -0.9850   -3.2830 ca        1 NC5     -0.263300
     18 C3          0.3930   -0.8200   -4.6030 ca        1 NC5      0.457600
     19 N1          1.0740   -1.3070   -5.6700 nb        1 NC5     -0.682000
     20 C44        -0.8680   -0.1350   -4.7360 ca        1 NC5     -0.180300
     21 C45        -1.4030    0.0290   -6.0170 ca        1 NC5     -0.045000
     22 C2         -0.7120   -0.4680   -7.1270 ca        1 NC5     -0.180300
     23 C47        -1.2000   -0.3340   -8.4600 ca        1 NC5     -0.089000
     24 C49        -0.5140   -0.8240   -9.5280 ca        1 NC5     -0.146000
     25 C51         0.7450   -1.5030   -9.3350 ca        1 NC5      0.097600
     26 C85         1.2490   -1.6510   -8.0520 ca        1 NC5     -0.263300
     27 C87         0.5420   -1.1400   -6.9070 ca        1 NC5      0.457600
     28 N52         1.4860   -2.0160  -10.4110 n         1 NC5     -0.476100
     29 C54         1.1440   -2.0510  -11.7590 c         1 NC5      0.668100
     30 O84         0.0770   -1.5890  -12.2020 o         1 NC5     -0.590100
     31 C55         2.1780   -2.6970  -12.6680 c3        1 NC5     -0.157400
     32 C58         1.6750   -2.6760  -14.1160 c3        1 NC5      0.179300
     33 N61         2.6020   -3.3380  -15.0200 n3        1 NC5     -0.739600
     34 C63         1.9450   -4.0810  -16.0970 c3        1 NC5      0.192000
     35 C77         1.0240   -3.2510  -17.0110 c3        1 NC5     -0.095900
     36 C80        -0.0350   -4.1030  -17.6590 c3        1 NC5     -0.086600
     37 C66         2.9770   -4.8460  -16.9440 c3        1 NC5     -0.074400
     38 C69         4.0990   -3.9610  -17.4390 c3        1 NC5     -0.077900
     39 C72         4.7290   -3.1970  -16.2950 c3        1 NC5     -0.076900
     40 C75         3.6660   -2.4600  -15.4820 c3        1 NC5      0.173800
     41 H10         1.3850   -1.7650    1.5620 hc        1 NC5      0.073450
     42 H10A        2.3250   -0.2250    1.3660 hc        1 NC5      0.073450
     43 H13        -0.3450   -0.5340    2.9280 h1        1 NC5      0.053200
     44 H13A        0.5690    1.0100    2.6860 h1        1 NC5      0.053200
     45 H18         0.3910    0.7050    5.3980 h1        1 NC5      0.036200
     46 H20         1.0050    2.4940    3.9610 hc        1 NC5      0.042450
     47 H20A        1.9650    2.6820    5.4700 hc        1 NC5      0.042450
     48 H23         3.3940    3.1790    3.5490 hc        1 NC5      0.034200
     49 H23A        3.9610    1.6180    4.2770 hc        1 NC5      0.034200
     50 H23B        2.9860    1.6040    2.7530 hc        1 NC5      0.034200
     51 H27         3.4210    0.3450    5.9430 hc        1 NC5      0.047450
     52 H27A        2.1520    1.0430    7.0320 hc        1 NC5      0.047450
     53 H30         1.0000   -1.1290    7.1850 hc        1 NC5      0.040700
     54 H30A        2.7460   -1.3490    7.5990 hc        1 NC5      0.040700
     55 H33         3.2390   -2.1940    5.3300 hc        1 NC5      0.046450
     56 H33A        1.8520   -3.1340    6.0190 hc        1 NC5      0.046450
     57 H36         1.4880   -2.4500    3.6260 h1        1 NC5      0.027700
     58 H36A        0.2070   -1.8650    4.7800 h1        1 NC5      0.027700
     59 HN7         1.7210   -1.2100   -0.9100 hn        1 NC5      0.317500
     60 H40        -1.5120    0.5600   -1.4350 ha        1 NC5      0.177500
     61 H42        -2.4830    0.8670   -3.6830 ha        1 NC5      0.137000
     62 H4          1.9050   -1.5100   -3.1970 ha        1 NC5      0.147000
     63 H45        -2.3650    0.5480   -6.1520 ha        1 NC5      0.139000
     64 H47        -2.1620    0.1840   -8.6090 ha        1 NC5      0.137000
     65 H49        -0.9180   -0.7040  -10.5480 ha        1 NC5      0.177500
     66 H85         2.2070   -2.1640   -7.8690 ha        1 NC5      0.147000
     67 HN52        2.3560   -2.4350  -10.1620 hn        1 NC5      0.317500
     68 H55         3.1470   -2.1390  -12.5830 hc        1 NC5      0.073450
     69 H55A        2.3570   -3.7540  -12.3390 hc        1 NC5      0.073450
     70 H58         1.4900   -1.6000  -14.4060 h1        1 NC5      0.053200
     71 H58A        0.6780   -3.2000  -14.1420 h1        1 NC5      0.053200
     72 H63         1.2980   -4.8550  -15.5800 h1        1 NC5      0.036200
     73 H77         1.6390   -2.7430  -17.7990 hc        1 NC5      0.042450
     74 H77A        0.5200   -2.4430  -16.4150 hc        1 NC5      0.042450
     75 H80         0.4190   -4.8990  -18.2970 hc        1 NC5      0.034200
     76 H80A       -0.6740   -4.5970  -16.8870 hc        1 NC5      0.034200
     77 H80B       -0.6920   -3.4710  -18.3050 hc        1 NC5      0.034200
     78 H66         2.4460   -5.3110  -17.8150 hc        1 NC5      0.047450
     79 H66A        3.4070   -5.6760  -16.3240 hc        1 NC5      0.047450
     80 H69         4.8760   -4.5900  -17.9460 hc        1 NC5      0.040700
     81 H69A        3.7070   -3.2380  -18.2020 hc        1 NC5      0.040700
     82 H72         5.2890   -3.9050  -15.6310 hc        1 NC5      0.046450
     83 H72A        5.4600   -2.4450  -16.6880 hc        1 NC5      0.046450
     84 H75         3.2580   -1.6120  -16.1100 h1        1 NC5      0.027700
     85 H75A        4.1530   -2.0050  -14.5740 h1        1 NC5      0.027700
@<TRIPOS>BOND
     1    1    2 2   
     2    2    3 1   
     3    2   13 1   
     4    3    4 1   
     5    3   41 1   
     6    3   42 1   
     7    4    5 1   
     8    4   43 1   
     9    4   44 1   
    10    5    6 1   
    11    5   12 1   
    12    6    7 1   
    13    6    9 1   
    14    6   45 1   
    15    7    8 1   
    16    7   46 1   
    17    7   47 1   
    18    8   48 1   
    19    8   49 1   
    20    8   50 1   
    21    9   10 1   
    22    9   51 1   
    23    9   52 1   
    24   10   11 1   
    25   10   53 1   
    26   10   54 1   
    27   11   12 1   
    28   11   55 1   
    29   11   56 1   
    30   12   57 1   
    31   12   58 1   
    32   13   14 1   
    33   13   59 1   
    34   14   15 ar  
    35   14   17 ar  
    36   15   16 ar  
    37   15   60 1   
    38   16   20 ar  
    39   16   61 1   
    40   17   18 ar  
    41   17   62 1   
    42   18   19 ar  
    43   18   20 ar  
    44   19   27 ar  
    45   20   21 ar  
    46   21   22 ar  
    47   21   63 1   
    48   22   23 ar  
    49   22   27 ar  
    50   23   24 ar  
    51   23   64 1   
    52   24   25 ar  
    53   24   65 1   
    54   25   26 ar  
    55   25   28 1   
    56   26   27 ar  
    57   26   66 1   
    58   28   29 1   
    59   28   67 1   
    60   29   30 2   
    61   29   31 1   
    62   31   32 1   
    63   31   68 1   
    64   31   69 1   
    65   32   33 1   
    66   32   70 1   
    67   32   71 1   
    68   33   34 1   
    69   33   40 1   
    70   34   35 1   
    71   34   37 1   
    72   34   72 1   
    73   35   36 1   
    74   35   73 1   
    75   35   74 1   
    76   36   75 1   
    77   36   76 1   
    78   36   77 1   
    79   37   38 1   
    80   37   78 1   
    81   37   79 1   
    82   38   39 1   
    83   38   80 1   
    84   38   81 1   
    85   39   40 1   
    86   39   82 1   
    87   39   83 1   
    88   40   84 1   
    89   40   85 1   
@<TRIPOS>SUBSTRUCTURE
     1 NC5         1 TEMP              0 ****  ****    0 ROOT
