@<TRIPOS>MOLECULE
NC5
   85    89     1     0     0
SMALL
bcc


@<TRIPOS>ATOM
      1 O39        -0.6480    0.3660    0.4940 o         1 NC5     -0.590100
      2 C9          0.3950   -0.2940    0.3440 c         1 NC5      0.668100
      3 C10         1.2810   -0.6730    1.5210 c3        1 NC5     -0.157400
      4 C13         0.6830   -0.1170    2.8170 c3        1 NC5      0.179300
      5 N16         1.5280   -0.3980    3.9710 n3        1 NC5     -0.739600
      6 C18         1.4610    0.6340    5.0140 c3        1 NC5      0.192000
      7 C20         1.8550    2.0410    4.5330 c3        1 NC5     -0.095900
      8 C23         3.1190    2.0940    3.7180 c3        1 NC5     -0.086600
      9 C27         2.3430    0.2840    6.2270 c3        1 NC5     -0.074400
     10 C30         2.0380   -1.0930    6.7710 c3        1 NC5     -0.077900
     11 C33         2.1600   -2.1220    5.6700 c3        1 NC5     -0.076900
     12 C36         1.2770   -1.7390    4.4870 c3        1 NC5      0.173800
     13 N7          0.8390   -0.7440   -0.8950 ns        1 NC5     -0.476100
     14 C6          0.2540   -0.5480   -2.1560 ca        1 NC5      0.096600
     15 C40        -1.0200    0.1120   -2.3130 ca        1 NC5     -0.145000
     16 C42        -1.5590    0.2770   -3.5520 ca        1 NC5     -0.090000
     17 C4          0.9240   -1.0120   -3.2770 ca        1 NC5     -0.263300
     18 C3          0.3740   -0.8510   -4.5970 ca        1 NC5      0.456600
     19 N1          1.0640   -1.3220   -5.6660 nb        1 NC5     -0.682000
     20 C44        -0.8980   -0.1880   -4.7280 ca        1 NC5     -0.180300
     21 C45        -1.4360   -0.0280   -6.0080 ca        1 NC5     -0.045000
     22 C2         -0.7370   -0.5080   -7.1190 ca        1 NC5     -0.180300
     23 C47        -1.2270   -0.3780   -8.4520 ca        1 NC5     -0.090000
     24 C49        -0.5320   -0.8510   -9.5220 ca        1 NC5     -0.145000
     25 C51         0.7380   -1.5090   -9.3320 ca        1 NC5      0.096600
     26 C85         1.2440   -1.6530   -8.0490 ca        1 NC5     -0.263300
     27 C87         0.5290   -1.1600   -6.9020 ca        1 NC5      0.456600
     28 N52         1.4890   -2.0030  -10.4090 ns        1 NC5     -0.476100
     29 C54         1.1420   -2.0490  -11.7560 c         1 NC5      0.668100
     30 O84         0.0620   -1.6160  -12.1950 o         1 NC5     -0.590100
     31 C55         2.1880   -2.6710  -12.6680 c3        1 NC5     -0.157400
     32 C58         1.6790   -2.6660  -14.1140 c3        1 NC5      0.179300
     33 N61         2.6190   -3.3060  -15.0210 n3        1 NC5     -0.739600
     34 C63         1.9770   -4.0700  -16.0930 c3        1 NC5      0.192000
     35 C77         1.0300   -3.2670  -17.0050 c3        1 NC5     -0.095900
     36 C80        -0.0090   -4.1490  -17.6460 c3        1 NC5     -0.086600
     37 C66         3.0250   -4.8100  -16.9420 c3        1 NC5     -0.074400
     38 C69         4.1210   -3.8960  -17.4440 c3        1 NC5     -0.077900
     39 C72         4.7350   -3.1120  -16.3050 c3        1 NC5     -0.076900
     40 C75         3.6570   -2.4010  -15.4900 c3        1 NC5      0.173800
     41 H10         2.3100   -0.2540    1.3650 hc        1 NC5      0.073450
     42 H10A        1.3660   -1.7900    1.5750 hc        1 NC5      0.073450
     43 H13         0.5620    0.9950    2.6820 h1        1 NC5      0.053200
     44 H13A       -0.3560   -0.5440    2.9370 h1        1 NC5      0.053200
     45 H18         0.3930    0.7110    5.3960 h1        1 NC5      0.036200
     46 H20         1.9770    2.6820    5.4480 hc        1 NC5      0.042450
     47 H20A        1.0110    2.4870    3.9440 hc        1 NC5      0.042450
     48 H23         3.4010    3.1580    3.5190 hc        1 NC5      0.034200
     49 H23A        2.9830    1.5790    2.7360 hc        1 NC5      0.034200
     50 H23B        3.9630    1.5990    4.2560 hc        1 NC5      0.034200
     51 H27         3.4240    0.3420    5.9340 hc        1 NC5      0.047450
     52 H27A        2.1620    1.0530    7.0220 hc        1 NC5      0.047450
     53 H30         1.0000   -1.1130    7.1950 hc        1 NC5      0.040700
     54 H30A        2.7470   -1.3370    7.6040 hc        1 NC5      0.040700
     55 H33         3.2280   -2.2010    5.3410 hc        1 NC5      0.046450
     56 H33A        1.8390   -3.1290    6.0410 hc        1 NC5      0.046450
     57 H36         0.1960   -1.8630    4.7990 h1        1 NC5      0.027950
     58 H36A        1.4700   -2.4610    3.6440 h1        1 NC5      0.027950
     59 HN7         1.7010   -1.2450   -0.9030 hn        1 NC5      0.317500
     60 H40        -1.5550    0.4830   -1.4230 ha        1 NC5      0.177000
     61 H42        -2.5320    0.7810   -3.6710 ha        1 NC5      0.137000
     62 H4          1.8980   -1.5200   -3.1930 ha        1 NC5      0.147000
     63 H45        -2.4070    0.4740   -6.1410 ha        1 NC5      0.139000
     64 H47        -2.1970    0.1240   -8.5990 ha        1 NC5      0.137000
     65 H49        -0.9380   -0.7350  -10.5410 ha        1 NC5      0.177000
     66 H85         2.2120   -2.1510   -7.8670 ha        1 NC5      0.147000
     67 HN52        2.3690   -2.4030  -10.1630 hn        1 NC5      0.317500
     68 H55         3.1430   -2.0870  -12.5890 hc        1 NC5      0.073450
     69 H55A        2.3970   -3.7220  -12.3380 hc        1 NC5      0.073450
     70 H58         1.4640   -1.5970  -14.4050 h1        1 NC5      0.053200
     71 H58A        0.6950   -3.2170  -14.1330 h1        1 NC5      0.053200
     72 H63         1.3530   -4.8590  -15.5700 h1        1 NC5      0.036200
     73 H77         0.5070   -2.4710  -16.4090 hc        1 NC5      0.042450
     74 H77A        1.6270   -2.7440  -17.7960 hc        1 NC5      0.042450
     75 H80        -0.6850   -3.5360  -18.2910 hc        1 NC5      0.034200
     76 H80A       -0.6310   -4.6570  -16.8700 hc        1 NC5      0.034200
     77 H80B        0.4640   -4.9340  -18.2840 hc        1 NC5      0.034200
     78 H66         3.4800   -5.6260  -16.3220 hc        1 NC5      0.047450
     79 H66A        2.5030   -5.2900  -17.8090 hc        1 NC5      0.047450
     80 H69         4.9120   -4.5060  -17.9540 hc        1 NC5      0.040700
     81 H69A        3.7070   -3.1860  -18.2080 hc        1 NC5      0.040700
     82 H72         5.3170   -3.8040  -15.6420 hc        1 NC5      0.046450
     83 H72A        5.4450   -2.3420  -16.7030 hc        1 NC5      0.046450
     84 H75         3.2240   -1.5660  -16.1180 h1        1 NC5      0.027950
     85 H75A        4.1360   -1.9310  -14.5850 h1        1 NC5      0.027950
@<TRIPOS>BOND
     1    1    2 2   
     2    2    3 1   
     3    2   13 1   
     4    3    4 1   
     5    3   41 1   
     6    3   42 1   
     7    4    5 1   
     8    4   43 1   
     9    4   44 1   
    10    5    6 1   
    11    5   12 1   
    12    6    7 1   
    13    6    9 1   
    14    6   45 1   
    15    7    8 1   
    16    7   46 1   
    17    7   47 1   
    18    8   48 1   
    19    8   49 1   
    20    8   50 1   
    21    9   10 1   
    22    9   51 1   
    23    9   52 1   
    24   10   11 1   
    25   10   53 1   
    26   10   54 1   
    27   11   12 1   
    28   11   55 1   
    29   11   56 1   
    30   12   57 1   
    31   12   58 1   
    32   13   14 1   
    33   13   59 1   
    34   14   15 ar  
    35   14   17 ar  
    36   15   16 ar  
    37   15   60 1   
    38   16   20 ar  
    39   16   61 1   
    40   17   18 ar  
    41   17   62 1   
    42   18   19 ar  
    43   18   20 ar  
    44   19   27 ar  
    45   20   21 ar  
    46   21   22 ar  
    47   21   63 1   
    48   22   23 ar  
    49   22   27 ar  
    50   23   24 ar  
    51   23   64 1   
    52   24   25 ar  
    53   24   65 1   
    54   25   26 ar  
    55   25   28 1   
    56   26   27 ar  
    57   26   66 1   
    58   28   29 1   
    59   28   67 1   
    60   29   30 2   
    61   29   31 1   
    62   31   32 1   
    63   31   68 1   
    64   31   69 1   
    65   32   33 1   
    66   32   70 1   
    67   32   71 1   
    68   33   34 1   
    69   33   40 1   
    70   34   35 1   
    71   34   37 1   
    72   34   72 1   
    73   35   36 1   
    74   35   73 1   
    75   35   74 1   
    76   36   75 1   
    77   36   76 1   
    78   36   77 1   
    79   37   38 1   
    80   37   78 1   
    81   37   79 1   
    82   38   39 1   
    83   38   80 1   
    84   38   81 1   
    85   39   40 1   
    86   39   82 1   
    87   39   83 1   
    88   40   84 1   
    89   40   85 1   
@<TRIPOS>SUBSTRUCTURE
     1 NC5         1 TEMP              0 ****  ****    0 ROOT
