@<TRIPOS>MOLECULE
NC6
   41    41     1     0     0
SMALL
bcc


@<TRIPOS>ATOM
      1 C1         -0.0790    0.1360   -0.1720 c3        1 NC6      0.087700
      2 N2         -0.7220    0.4060   -1.4450 n         1 NC6     -0.540900
      3 C3         -2.0710    0.0050   -1.6100 c         1 NC6      0.728100
      4 N4         -2.8200    0.5860   -2.6530 n         1 NC6     -0.528900
      5 C5         -4.0080   -0.0930   -3.1250 c3        1 NC6      0.063000
      6 C6         -3.9030   -0.6420   -4.5470 c3        1 NC6     -0.106400
      7 C7         -5.2370   -1.1970   -5.0000 c3        1 NC6     -0.077400
      8 C8         -5.1830   -1.6320   -6.4500 c3        1 NC6     -0.064400
      9 C9         -6.5100   -2.1670   -6.9280 c3        1 NC6     -0.195400
     10 O10        -2.5820   -0.8320   -0.8270 o         1 NC6     -0.636100
     11 C11        -6.4070   -2.7020   -8.3680 c         1 NC6      0.908600
     12 O12        -7.3450   -2.4180   -9.1680 o         1 NC6     -0.851800
     13 O13        -5.4050   -3.4090   -8.6800 o         1 NC6     -0.851800
     14 C14         1.4500    0.0720   -0.3320 c3        1 NC6     -0.092900
     15 C15         2.0990   -0.3100    0.9810 c3        1 NC6     -0.073900
     16 C16         1.7360    0.6630    2.0840 c3        1 NC6     -0.078400
     17 C17         0.2340    0.7800    2.2340 c3        1 NC6     -0.073900
     18 C18        -0.4260    1.1590    0.9260 c3        1 NC6     -0.092900
     19 H1         -0.4440   -0.8800    0.1740 h1        1 NC6      0.093700
     20 HN2        -0.4570    1.2730   -1.8560 hn        1 NC6      0.280500
     21 HN4        -2.2970    1.0230   -3.3810 hn        1 NC6      0.283500
     22 H51        -4.2750   -0.9310   -2.4200 h1        1 NC6      0.065700
     23 H52        -4.8410    0.6670   -3.0880 h1        1 NC6      0.065700
     24 H61        -3.5820    0.1690   -5.2530 hc        1 NC6      0.041200
     25 H62        -3.1270   -1.4500   -4.5920 hc        1 NC6      0.041200
     26 H71        -6.0330   -0.4170   -4.8720 hc        1 NC6      0.031200
     27 H72        -5.5200   -2.0690   -4.3540 hc        1 NC6      0.031200
     28 H81        -4.8820   -0.7620   -7.0900 hc        1 NC6      0.044700
     29 H82        -4.4030   -2.4280   -6.5880 hc        1 NC6      0.044700
     30 H91        -6.8430   -3.0100   -6.2710 hc        1 NC6      0.020200
     31 H92        -7.2920   -1.3680   -6.8860 hc        1 NC6      0.020200
     32 H141        1.8400    1.0670   -0.6700 hc        1 NC6      0.045200
     33 H142        1.7180   -0.6840   -1.1150 hc        1 NC6      0.045200
     34 H151        3.2120   -0.3320    0.8500 hc        1 NC6      0.040950
     35 H152        1.7730   -1.3430    1.2730 hc        1 NC6      0.040950
     36 H161        2.1690    1.6720    1.8510 hc        1 NC6      0.035700
     37 H162        2.1860    0.3200    3.0520 hc        1 NC6      0.035700
     38 H171       -0.1830   -0.1990    2.5920 hc        1 NC6      0.040950
     39 H172       -0.0080    1.5520    3.0100 hc        1 NC6      0.040950
     40 H181       -1.5380    1.1890    1.0640 hc        1 NC6      0.045200
     41 H182       -0.0880    2.1810    0.6150 hc        1 NC6      0.045200
@<TRIPOS>BOND
     1    1    2 1   
     2    1   14 1   
     3    1   18 1   
     4    1   19 1   
     5    2    3 1   
     6    2   20 1   
     7    3    4 1   
     8    3   10 2   
     9    4    5 1   
    10    4   21 1   
    11    5    6 1   
    12    5   22 1   
    13    5   23 1   
    14    6    7 1   
    15    6   24 1   
    16    6   25 1   
    17    7    8 1   
    18    7   26 1   
    19    7   27 1   
    20    8    9 1   
    21    8   28 1   
    22    8   29 1   
    23    9   11 1   
    24    9   30 1   
    25    9   31 1   
    26   11   12 1   
    27   11   13 1   
    28   14   15 1   
    29   14   32 1   
    30   14   33 1   
    31   15   16 1   
    32   15   34 1   
    33   15   35 1   
    34   16   17 1   
    35   16   36 1   
    36   16   37 1   
    37   17   18 1   
    38   17   38 1   
    39   17   39 1   
    40   18   40 1   
    41   18   41 1   
@<TRIPOS>SUBSTRUCTURE
     1 NC6         1 TEMP              0 ****  ****    0 ROOT
