@<TRIPOS>MOLECULE
NC6
   43    43     1     0     0
SMALL
bcc


@<TRIPOS>ATOM
      1 C1          0.0000    0.0000    0.0000 c3        1 NC6     -0.055500
      2 N2         -0.4890    0.0010   -1.3810 ny        1 NC6      0.261200
      3 C3         -0.6170    1.1640   -2.0490 c         1 NC6     -0.163900
      4 N4         -1.0670    1.1650   -3.3200 ny        1 NC6      0.270200
      5 C5         -1.2080    2.4280   -4.0470 c3        1 NC6     -0.023200
      6 C6         -1.7320    2.1500   -5.4570 c3        1 NC6     -0.033400
      7 C7         -1.8790    3.4710   -6.2160 c3        1 NC6     -0.019400
      8 C8         -2.4030    3.1930   -7.6260 c3        1 NC6     -0.018400
      9 C9         -2.5500    4.5140   -8.3850 c3        1 NC6     -0.091400
     10 O10        -0.3290    2.2130   -1.5060 o         1 NC6     -0.481100
     11 C11        -3.0670    4.2400   -9.7740 c         1 NC6      0.946600
     12 O12        -3.2740    5.2560  -10.6260 o         1 NC6     -0.614800
     13 O13        -3.2960    3.1050  -10.1210 o         1 NC6     -0.614800
     14 C14         1.5300    0.0000    0.0000 c3        1 NC6     -0.027900
     15 C15         2.0400    0.0000    1.4430 c3        1 NC6     -0.010900
     16 C16         1.5300   -1.2500    2.1640 c3        1 NC6     -0.032400
     17 C17         0.0010   -1.2500    2.1640 c3        1 NC6     -0.010900
     18 C18        -0.5090   -1.2490    0.7210 c3        1 NC6     -0.027900
     19 H1         -0.3590    0.8830    0.5150 hx        1 NC6      0.114700
     20 HN2         0.1370   -0.5720   -1.9120 hn        1 NC6      0.213300
     21 HN4        -0.4410    0.5920   -3.8510 hn        1 NC6      0.207300
     22 H51        -1.9060    3.0700   -3.5220 hx        1 NC6      0.093700
     23 H52        -0.2440    2.9180   -4.1100 hx        1 NC6      0.093700
     24 H61        -2.6970    1.6610   -5.3940 hc        1 NC6      0.031700
     25 H62        -1.0350    1.5080   -5.9820 hc        1 NC6      0.031700
     26 H71        -0.9150    3.9600   -6.2790 hc        1 NC6      0.026700
     27 H72        -2.5760    4.1130   -5.6920 hc        1 NC6      0.026700
     28 H81        -1.7060    2.5510   -8.1510 hc        1 NC6      0.032700
     29 H82        -3.3680    2.7040   -7.5630 hc        1 NC6      0.032700
     30 H91        -3.2470    5.1560   -7.8610 hc        1 NC6      0.033700
     31 H92        -1.5860    5.0030   -8.4480 hc        1 NC6      0.033700
     32 H141        1.8890   -0.8860   -0.5090 hc        1 NC6      0.030950
     33 H142        1.8890    0.8860   -0.5090 hc        1 NC6      0.030950
     34 H151        1.6770    0.8830    1.9530 hc        1 NC6      0.039200
     35 H152        3.1240   -0.0020    1.4410 hc        1 NC6      0.039200
     36 H161        1.8900   -1.2480    3.1860 hc        1 NC6      0.036200
     37 H162        1.8900   -2.1340    1.6500 hc        1 NC6      0.036200
     38 H171       -0.3590   -0.3640    2.6730 hc        1 NC6      0.039200
     39 H172       -0.3590   -2.1370    2.6720 hc        1 NC6      0.039200
     40 H181       -1.5930   -1.2470    0.7230 hc        1 NC6      0.030950
     41 H182       -0.1460   -2.1330    0.2110 hc        1 NC6      0.030950
     42 H22        -1.3930   -0.4290   -1.3700 hn        1 NC6      0.213300
     43 H42        -1.9700    0.7320   -3.3100 hn        1 NC6      0.207300
@<TRIPOS>BOND
     1    1    2 1   
     2    1   14 1   
     3    1   18 1   
     4    1   19 1   
     5    2    3 1   
     6    2   20 1   
     7    2   42 1   
     8    3    4 1   
     9    3   10 2   
    10    4    5 1   
    11    4   21 1   
    12    4   43 1   
    13    5    6 1   
    14    5   22 1   
    15    5   23 1   
    16    6    7 1   
    17    6   24 1   
    18    6   25 1   
    19    7    8 1   
    20    7   26 1   
    21    7   27 1   
    22    8    9 1   
    23    8   28 1   
    24    8   29 1   
    25    9   11 1   
    26    9   30 1   
    27    9   31 1   
    28   11   12 1   
    29   11   13 1   
    30   14   15 1   
    31   14   32 1   
    32   14   33 1   
    33   15   16 1   
    34   15   34 1   
    35   15   35 1   
    36   16   17 1   
    37   16   36 1   
    38   16   37 1   
    39   17   18 1   
    40   17   38 1   
    41   17   39 1   
    42   18   40 1   
    43   18   41 1   
@<TRIPOS>SUBSTRUCTURE
     1 NC6         1 TEMP              0 ****  ****    0 ROOT
