@<TRIPOS>MOLECULE
NC6
   41    41     1     0     0
SMALL
bcc


@<TRIPOS>ATOM
      1 C1         -3.9600    0.2190    0.0350 c3        1 NC6      0.087700
      2 N2         -2.6490    0.5190   -0.5090 n         1 NC6     -0.540900
      3 C3         -1.6000   -0.4040   -0.2710 c         1 NC6      0.728100
      4 N4         -0.4550   -0.3440   -1.0910 n         1 NC6     -0.528900
      5 C5          0.7780   -0.9370   -0.6180 c3        1 NC6      0.063000
      6 C6          1.8900    0.0660   -0.3150 c3        1 NC6     -0.106400
      7 C7          3.1760   -0.6570    0.0250 c3        1 NC6     -0.077400
      8 C8          4.3190    0.3190    0.2070 c3        1 NC6     -0.064400
      9 C9          5.6160   -0.3830    0.5240 c3        1 NC6     -0.195400
     10 O10        -1.7090   -1.2630    0.6370 o         1 NC6     -0.636100
     11 C11         6.7410    0.6290    0.8100 c         1 NC6      0.908600
     12 O12         7.8780    0.4010    0.3060 o         1 NC6     -0.851800
     13 O13         6.4830    1.6270    1.5440 o         1 NC6     -0.851800
     14 C14        -4.7870    1.5040    0.2140 c3        1 NC6     -0.092900
     15 C15        -6.1110    1.1880    0.8760 c3        1 NC6     -0.073900
     16 C16        -6.9030    0.1730    0.0780 c3        1 NC6     -0.078400
     17 C17        -6.0950   -1.0870   -0.1520 c3        1 NC6     -0.073900
     18 C18        -4.7680   -0.7830   -0.8110 c3        1 NC6     -0.092900
     19 H1         -3.7960   -0.2440    1.0560 h1        1 NC6      0.093700
     20 HN2        -2.6720    0.9520   -1.4050 hn        1 NC6      0.280500
     21 HN4        -0.3190    0.5060   -1.5960 hn        1 NC6      0.283500
     22 H51         1.1260   -1.6330   -1.4350 h1        1 NC6      0.065700
     23 H52         0.5750   -1.5590    0.3010 h1        1 NC6      0.065700
     24 H61         1.5930    0.7240    0.5430 hc        1 NC6      0.041200
     25 H62         2.0640    0.7310   -1.2020 hc        1 NC6      0.041200
     26 H71         3.4290   -1.3830   -0.7920 hc        1 NC6      0.031200
     27 H72         3.0340   -1.2530    0.9650 hc        1 NC6      0.031200
     28 H81         4.0870    1.0390    1.0370 hc        1 NC6      0.044700
     29 H82         4.4460    0.9250   -0.7280 hc        1 NC6      0.044700
     30 H91         5.9210   -1.0440   -0.3250 hc        1 NC6      0.020200
     31 H92         5.4920   -1.0250    1.4330 hc        1 NC6      0.020200
     32 H141       -4.2190    2.2360    0.8460 hc        1 NC6      0.045200
     33 H142       -4.9690    1.9830   -0.7830 hc        1 NC6      0.045200
     34 H151       -5.9280    0.7900    1.9090 hc        1 NC6      0.040950
     35 H152       -6.7070    2.1320    0.9800 hc        1 NC6      0.040950
     36 H161       -7.8490   -0.0800    0.6230 hc        1 NC6      0.035700
     37 H162       -7.1930    0.6170   -0.9110 hc        1 NC6      0.035700
     38 H171       -5.9150   -1.6000    0.8300 hc        1 NC6      0.040950
     39 H172       -6.6770   -1.7940   -0.7980 hc        1 NC6      0.040950
     40 H181       -4.9420   -0.3630   -1.8350 hc        1 NC6      0.045200
     41 H182       -4.1790   -1.7310   -0.9220 hc        1 NC6      0.045200
@<TRIPOS>BOND
     1    1    2 1   
     2    1   14 1   
     3    1   18 1   
     4    1   19 1   
     5    2    3 1   
     6    2   20 1   
     7    3    4 1   
     8    3   10 2   
     9    4    5 1   
    10    4   21 1   
    11    5    6 1   
    12    5   22 1   
    13    5   23 1   
    14    6    7 1   
    15    6   24 1   
    16    6   25 1   
    17    7    8 1   
    18    7   26 1   
    19    7   27 1   
    20    8    9 1   
    21    8   28 1   
    22    8   29 1   
    23    9   11 1   
    24    9   30 1   
    25    9   31 1   
    26   11   12 1   
    27   11   13 1   
    28   14   15 1   
    29   14   32 1   
    30   14   33 1   
    31   15   16 1   
    32   15   34 1   
    33   15   35 1   
    34   16   17 1   
    35   16   36 1   
    36   16   37 1   
    37   17   18 1   
    38   17   38 1   
    39   17   39 1   
    40   18   40 1   
    41   18   41 1   
@<TRIPOS>SUBSTRUCTURE
     1 NC6         1 TEMP              0 ****  ****    0 ROOT
