@<TRIPOS>MOLECULE
NC7
   44    44     1     0     0
SMALL
bcc


@<TRIPOS>ATOM
      1 C1         -0.0940    0.1550   -0.2420 c3        1 NC7      0.086700
      2 N2         -0.8090    0.5390   -1.4460 n         1 NC7     -0.538900
      3 C3         -2.1410    0.0800   -1.6030 c         1 NC7      0.726100
      4 N4         -2.9690    0.7340   -2.5410 n         1 NC7     -0.527900
      5 C5         -4.1420    0.0470   -3.0340 c3        1 NC7      0.063000
      6 C6         -3.9920   -0.5770   -4.4200 c3        1 NC7     -0.109400
      7 C7         -5.3330   -1.0640   -4.9260 c3        1 NC7     -0.076400
      8 C8         -5.2160   -1.6500   -6.3170 c3        1 NC7     -0.078400
      9 C9         -6.5720   -2.0310   -6.8740 c3        1 NC7     -0.066400
     10 O10        -2.5680   -0.8720   -0.9080 o         1 NC7     -0.632100
     11 C11        -6.4660   -2.6170   -8.2610 c3        1 NC7     -0.194400
     12 C12        -7.8500   -2.7480   -8.9220 c         1 NC7      0.908600
     13 O13        -8.1030   -3.8180   -9.5460 o         1 NC7     -0.852800
     14 O14        -8.6580   -1.7780   -8.8310 o         1 NC7     -0.852800
     15 C15         1.4270    0.2220   -0.4650 c3        1 NC7     -0.092400
     16 C16         2.1590   -0.2770    0.7630 c3        1 NC7     -0.074400
     17 C17         1.7830    0.5180    1.9960 c3        1 NC7     -0.078400
     18 C18         0.2840    0.5060    2.2140 c3        1 NC7     -0.074400
     19 C19        -0.4580    1.0010    0.9910 c3        1 NC7     -0.092400
     20 H1         -0.3750   -0.9200   -0.0200 h1        1 NC7      0.093700
     21 HN2        -0.6160    1.4670   -1.7510 hn        1 NC7      0.280500
     22 HN4        -2.5010    1.2710   -3.2400 hn        1 NC7      0.282500
     23 H51        -4.9640    0.8200   -3.0690 h1        1 NC7      0.069700
     24 H52        -4.4450   -0.7510   -2.2970 h1        1 NC7      0.069700
     25 H61        -3.5750    0.1740   -5.1430 hc        1 NC7      0.039700
     26 H62        -3.2710   -1.4350   -4.3770 hc        1 NC7      0.039700
     27 H71        -6.0620   -0.2110   -4.9430 hc        1 NC7      0.040700
     28 H72        -5.7440   -1.8370   -4.2250 hc        1 NC7      0.040700
     29 H81        -4.7300   -0.9030   -6.9990 hc        1 NC7      0.027200
     30 H82        -4.5500   -2.5530   -6.2890 hc        1 NC7      0.027200
     31 H91        -7.2390   -1.1290   -6.9170 hc        1 NC7      0.045200
     32 H92        -7.0620   -2.7720   -6.1900 hc        1 NC7      0.045200
     33 H111       -5.8420   -1.9520   -8.9100 hc        1 NC7      0.019200
     34 H112       -5.9740   -3.6200   -8.2250 hc        1 NC7      0.019200
     35 H151        1.7350    1.2780   -0.6840 hc        1 NC7      0.044950
     36 H152        1.7100   -0.4070   -1.3490 hc        1 NC7      0.044950
     37 H161        1.9160   -1.3600    0.9280 hc        1 NC7      0.041700
     38 H162        3.2640   -0.2030    0.5900 hc        1 NC7      0.041700
     39 H171        2.1360    1.5760    1.8810 hc        1 NC7      0.036200
     40 H172        2.2970    0.0860    2.8930 hc        1 NC7      0.036200
     41 H181        0.0270    1.1540    3.0920 hc        1 NC7      0.041700
     42 H182       -0.0510   -0.5370    2.4560 hc        1 NC7      0.041700
     43 H191       -1.5630    0.9330    1.1720 hc        1 NC7      0.044950
     44 H192       -0.2030    2.0770    0.8050 hc        1 NC7      0.044950
@<TRIPOS>BOND
     1    1    2 1   
     2    1   15 1   
     3    1   19 1   
     4    1   20 1   
     5    2    3 1   
     6    2   21 1   
     7    3    4 1   
     8    3   10 2   
     9    4    5 1   
    10    4   22 1   
    11    5    6 1   
    12    5   23 1   
    13    5   24 1   
    14    6    7 1   
    15    6   25 1   
    16    6   26 1   
    17    7    8 1   
    18    7   27 1   
    19    7   28 1   
    20    8    9 1   
    21    8   29 1   
    22    8   30 1   
    23    9   11 1   
    24    9   31 1   
    25    9   32 1   
    26   11   12 1   
    27   11   33 1   
    28   11   34 1   
    29   12   13 1   
    30   12   14 1   
    31   15   16 1   
    32   15   35 1   
    33   15   36 1   
    34   16   17 1   
    35   16   37 1   
    36   16   38 1   
    37   17   18 1   
    38   17   39 1   
    39   17   40 1   
    40   18   19 1   
    41   18   41 1   
    42   18   42 1   
    43   19   43 1   
    44   19   44 1   
@<TRIPOS>SUBSTRUCTURE
     1 NC7         1 TEMP              0 ****  ****    0 ROOT
