@<TRIPOS>MOLECULE
NC7
   44    44     1     0     0
SMALL
bcc


@<TRIPOS>ATOM
      1 C1         -4.4830   -0.2200   -0.0060 c3        1 NC7      0.086700
      2 N2         -3.2250   -0.4600    0.6790 n         1 NC7     -0.538900
      3 C3         -2.1310    0.3880    0.3760 c         1 NC7      0.726100
      4 N4         -1.0460    0.4300    1.2770 n         1 NC7     -0.527900
      5 C5          0.2320    0.9200    0.8100 c3        1 NC7      0.063000
      6 C6          1.2570   -0.1640    0.4760 c3        1 NC7     -0.109400
      7 C7          2.6140    0.4580    0.2200 c3        1 NC7     -0.076400
      8 C8          3.6560   -0.6010   -0.0730 c3        1 NC7     -0.078400
      9 C9          5.0370    0.0060   -0.2150 c3        1 NC7     -0.066400
     10 O10        -2.1450    1.0950   -0.6600 o         1 NC7     -0.632100
     11 C11         6.0830   -1.0410   -0.5070 c3        1 NC7     -0.194400
     12 C12         7.5050   -0.4650   -0.3810 c         1 NC7      0.908600
     13 O13         8.3460   -0.7750   -1.2730 o         1 NC7     -0.852800
     14 O14         7.7730    0.2710    0.6140 o         1 NC7     -0.852800
     15 C15        -5.3480   -1.4920   -0.0230 c3        1 NC7     -0.092400
     16 C16        -6.6100   -1.2570   -0.8260 c3        1 NC7     -0.074400
     17 C17        -7.4110   -0.0960   -0.2750 c3        1 NC7     -0.078400
     18 C18        -6.5690    1.1610   -0.2050 c3        1 NC7     -0.074400
     19 C19        -5.3030    0.9370    0.5930 c3        1 NC7     -0.092400
     20 H1         -4.2290    0.0530   -1.0760 h1        1 NC7      0.093700
     21 HN2        -3.3290   -0.7350    1.6300 hn        1 NC7      0.280500
     22 HN4        -0.9680   -0.3410    1.9070 hn        1 NC7      0.282500
     23 H51         0.6420    1.5660    1.6400 h1        1 NC7      0.069700
     24 H52         0.0730    1.5730   -0.0950 h1        1 NC7      0.069700
     25 H61         0.9270   -0.7360   -0.4300 hc        1 NC7      0.039700
     26 H62         1.3400   -0.8950    1.3220 hc        1 NC7      0.039700
     27 H71         2.9310    1.0540    1.1160 hc        1 NC7      0.040700
     28 H72         2.5460    1.1700   -0.6440 hc        1 NC7      0.040700
     29 H81         3.3830   -1.1450   -1.0150 hc        1 NC7      0.027200
     30 H82         3.6650   -1.3570    0.7550 hc        1 NC7      0.027200
     31 H91         5.3210    0.5420    0.7300 hc        1 NC7      0.045200
     32 H92         5.0290    0.7680   -1.0380 hc        1 NC7      0.045200
     33 H111        5.9420   -1.4590   -1.5340 hc        1 NC7      0.019200
     34 H112        5.9950   -1.8850    0.2240 hc        1 NC7      0.019200
     35 H151       -4.7700   -2.3390   -0.4760 hc        1 NC7      0.044950
     36 H152       -5.6180   -1.7840    1.0250 hc        1 NC7      0.044950
     37 H161       -6.3390   -1.0500   -1.8950 hc        1 NC7      0.041700
     38 H162       -7.2360   -2.1870   -0.8110 hc        1 NC7      0.041700
     39 H171       -8.3060    0.0860   -0.9250 hc        1 NC7      0.036200
     40 H172       -7.7860   -0.3530    0.7500 hc        1 NC7      0.036200
     41 H181       -6.3000    1.4900   -1.2440 hc        1 NC7      0.041700
     42 H182       -7.1630    1.9870    0.2660 hc        1 NC7      0.041700
     43 H191       -5.5650    0.7070    1.6590 hc        1 NC7      0.044950
     44 H192       -4.6840    1.8720    0.5830 hc        1 NC7      0.044950
@<TRIPOS>BOND
     1    1    2 1   
     2    1   15 1   
     3    1   19 1   
     4    1   20 1   
     5    2    3 1   
     6    2   21 1   
     7    3    4 1   
     8    3   10 2   
     9    4    5 1   
    10    4   22 1   
    11    5    6 1   
    12    5   23 1   
    13    5   24 1   
    14    6    7 1   
    15    6   25 1   
    16    6   26 1   
    17    7    8 1   
    18    7   27 1   
    19    7   28 1   
    20    8    9 1   
    21    8   29 1   
    22    8   30 1   
    23    9   11 1   
    24    9   31 1   
    25    9   32 1   
    26   11   12 1   
    27   11   33 1   
    28   11   34 1   
    29   12   13 1   
    30   12   14 1   
    31   15   16 1   
    32   15   35 1   
    33   15   36 1   
    34   16   17 1   
    35   16   37 1   
    36   16   38 1   
    37   17   18 1   
    38   17   39 1   
    39   17   40 1   
    40   18   19 1   
    41   18   41 1   
    42   18   42 1   
    43   19   43 1   
    44   19   44 1   
@<TRIPOS>SUBSTRUCTURE
     1 NC7         1 TEMP              0 ****  ****    0 ROOT
