@<TRIPOS>MOLECULE
NC7
   44    44     1     0     0
SMALL
bcc


@<TRIPOS>ATOM
      1 C1          2.5440    0.3380    2.9320 c3        1 NC7      0.086700
      2 N2          2.1050    0.4880    1.5630 n         1 NC7     -0.538900
      3 C3          0.7440    0.1840    1.2060 c         1 NC7      0.726100
      4 N4          0.3320    0.2390   -0.1720 n         1 NC7     -0.528900
      5 C5         -1.0780    0.3000   -0.5050 c3        1 NC7      0.063000
      6 C6         -1.3240   -0.4390   -1.8300 c3        1 NC7     -0.109400
      7 C7         -2.6620    0.0280   -2.4390 c3        1 NC7     -0.076400
      8 C8         -3.1280   -0.9890   -3.4960 c3        1 NC7     -0.079400
      9 C9         -4.1920   -0.3560   -4.3760 c3        1 NC7     -0.064400
     10 O10        -0.0360   -0.1980    2.0580 o         1 NC7     -0.631100
     11 C11        -4.7390   -1.3990   -5.3410 c3        1 NC7     -0.194400
     12 C12        -5.7210   -0.7450   -6.2870 c         1 NC7      0.908600
     13 O13        -5.3580   -0.4250   -7.4480 o         1 NC7     -0.852300
     14 O14        -6.9160   -0.5800   -5.9350 o         1 NC7     -0.852300
     15 C15         3.7410   -0.5900    2.9660 c3        1 NC7     -0.092400
     16 C16         4.3780   -0.6620    4.3360 c3        1 NC7     -0.074400
     17 C17         4.6910    0.7080    4.9020 c3        1 NC7     -0.078400
     18 C18         3.4960    1.6340    4.8690 c3        1 NC7     -0.074400
     19 C19         2.8570    1.7060    3.4970 c3        1 NC7     -0.092400
     20 H1          1.8220   -0.0590    3.4530 h1        1 NC7      0.093700
     21 HN2         2.6980    0.7540    0.9200 hn        1 NC7      0.280500
     22 HN4         0.9610    0.2720   -0.8360 hn        1 NC7      0.282500
     23 H51        -1.3510    1.2330   -0.5970 h1        1 NC7      0.069700
     24 H52        -1.5990   -0.1230    0.2060 h1        1 NC7      0.069700
     25 H61        -0.5990   -0.2430   -2.4510 hc        1 NC7      0.039200
     26 H62        -1.3600   -1.4020   -1.6640 hc        1 NC7      0.039200
     27 H71        -3.3380    0.0960   -1.7300 hc        1 NC7      0.040700
     28 H72        -2.5410    0.9030   -2.8600 hc        1 NC7      0.040700
     29 H81        -3.5000   -1.7760   -3.0500 hc        1 NC7      0.027200
     30 H82        -2.3660   -1.2570   -4.0480 hc        1 NC7      0.027200
     31 H91        -3.7980    0.3840   -4.8830 hc        1 NC7      0.044700
     32 H92        -4.9180   -0.0170   -3.8150 hc        1 NC7      0.044700
     33 H111       -4.0030   -1.7870   -5.8540 hc        1 NC7      0.019200
     34 H112       -5.1910   -2.1020   -4.8380 hc        1 NC7      0.019200
     35 H151        3.4530   -1.4860    2.7060 hc        1 NC7      0.045200
     36 H152        4.4110   -0.2710    2.3200 hc        1 NC7      0.045200
     37 H161        5.2080   -1.1750    4.2720 hc        1 NC7      0.041950
     38 H162        3.7670   -1.1240    4.9450 hc        1 NC7      0.041950
     39 H171        5.4170    1.1080    4.3790 hc        1 NC7      0.036200
     40 H172        4.9880    0.6060    5.8320 hc        1 NC7      0.036200
     41 H181        3.7830    2.5280    5.1310 hc        1 NC7      0.041950
     42 H182        2.8310    1.3140    5.5110 hc        1 NC7      0.041950
     43 H191        2.0260    2.2200    3.5620 hc        1 NC7      0.045200
     44 H192        3.4660    2.1670    2.8900 hc        1 NC7      0.045200
@<TRIPOS>BOND
     1    1    2 1   
     2    1   15 1   
     3    1   19 1   
     4    1   20 1   
     5    2    3 1   
     6    2   21 1   
     7    3    4 1   
     8    3   10 2   
     9    4    5 1   
    10    4   22 1   
    11    5    6 1   
    12    5   23 1   
    13    5   24 1   
    14    6    7 1   
    15    6   25 1   
    16    6   26 1   
    17    7    8 1   
    18    7   27 1   
    19    7   28 1   
    20    8    9 1   
    21    8   29 1   
    22    8   30 1   
    23    9   11 1   
    24    9   31 1   
    25    9   32 1   
    26   11   12 1   
    27   11   33 1   
    28   11   34 1   
    29   12   13 1   
    30   12   14 1   
    31   15   16 1   
    32   15   35 1   
    33   15   36 1   
    34   16   17 1   
    35   16   37 1   
    36   16   38 1   
    37   17   18 1   
    38   17   39 1   
    39   17   40 1   
    40   18   19 1   
    41   18   41 1   
    42   18   42 1   
    43   19   43 1   
    44   19   44 1   
@<TRIPOS>SUBSTRUCTURE
     1 NC7         1 TEMP              0 ****  ****    0 ROOT
