@<TRIPOS>MOLECULE
NC7
   46    46     1     0     0
SMALL
bcc


@<TRIPOS>ATOM
      1 C1          0.0000    0.0000    0.0000 c3        1 NC7     -0.056500
      2 N2         -0.4890    0.0000   -1.3800 ny        1 NC7      0.272200
      3 C3         -1.7110   -0.4930   -1.6630 c         1 NC7     -0.186900
      4 N4         -2.1610   -0.4940   -2.9330 ny        1 NC7      0.281200
      5 C5         -3.4890   -1.0300   -3.2400 c3        1 NC7     -0.022200
      6 C6         -3.7520   -0.9120   -4.7420 c3        1 NC7     -0.035400
      7 C7         -5.1400   -1.4710   -5.0630 c3        1 NC7     -0.015400
      8 C8         -5.4030   -1.3540   -6.5660 c3        1 NC7     -0.027400
      9 C9         -6.7900   -1.9130   -6.8860 c3        1 NC7     -0.020400
     10 O10        -2.4080   -0.9380   -0.7710 o         1 NC7     -0.496100
     11 C11        -7.0530   -1.7950   -8.3890 c3        1 NC7     -0.084400
     12 C12        -8.4200   -2.3470   -8.7040 c         1 NC7      0.942600
     13 O13        -8.8680   -2.3470   -9.9690 o         1 NC7     -0.598800
     14 O14        -9.1120   -2.7890   -7.8180 o         1 NC7     -0.598800
     15 C15         1.5300    0.0000    0.0000 c3        1 NC7     -0.026900
     16 C16         2.0410    0.0000    1.4420 c3        1 NC7     -0.011900
     17 C17         1.5310    1.2490    2.1640 c3        1 NC7     -0.032400
     18 C18         0.0010    1.2490    2.1640 c3        1 NC7     -0.011900
     19 C19        -0.5100    1.2490    0.7220 c3        1 NC7     -0.026900
     20 H1         -0.3590   -0.8830    0.5140 hx        1 NC7      0.114700
     21 HN2         0.1690   -0.5240   -1.9220 hn        1 NC7      0.207300
     22 HN4        -2.1510    0.4570   -3.2460 hn        1 NC7      0.200800
     23 H51        -4.2390   -0.4680   -2.6970 hx        1 NC7      0.094700
     24 H52        -3.5350   -2.0710   -2.9460 hx        1 NC7      0.094700
     25 H61        -3.7070    0.1300   -5.0360 hc        1 NC7      0.028200
     26 H62        -3.0020   -1.4730   -5.2860 hc        1 NC7      0.028200
     27 H71        -5.1850   -2.5130   -4.7690 hc        1 NC7      0.031700
     28 H72        -5.8900   -0.9100   -4.5200 hc        1 NC7      0.031700
     29 H81        -4.6520   -1.9150   -7.1090 hc        1 NC7      0.016200
     30 H82        -5.3570   -0.3120   -6.8590 hc        1 NC7      0.016200
     31 H91        -7.5400   -1.3520   -6.3430 hc        1 NC7      0.034200
     32 H92        -6.8360   -2.9550   -6.5920 hc        1 NC7      0.034200
     33 H111       -7.0080   -0.7540   -8.6830 hc        1 NC7      0.032700
     34 H112       -6.3030   -2.3570   -8.9320 hc        1 NC7      0.032700
     35 H151        1.8890   -0.8860   -0.5090 hc        1 NC7      0.030450
     36 H152        1.8890    0.8860   -0.5090 hc        1 NC7      0.030450
     37 H161        3.1240    0.0030    1.4400 hc        1 NC7      0.038700
     38 H162        1.6780   -0.8840    1.9520 hc        1 NC7      0.038700
     39 H171        1.8910    2.1330    1.6520 hc        1 NC7      0.035200
     40 H172        1.8910    1.2460    3.1860 hc        1 NC7      0.035200
     41 H181       -0.3590    0.3630    2.6730 hc        1 NC7      0.038700
     42 H182       -0.3580    2.1350    2.6730 hc        1 NC7      0.038700
     43 H191       -1.5930    1.2460    0.7240 hc        1 NC7      0.030450
     44 H192       -0.1470    2.1330    0.2120 hc        1 NC7      0.030450
     45 H22        -0.4820    0.9510   -1.6920 hn        1 NC7      0.207300
     46 H42        -1.5030   -1.0200   -3.4740 hn        1 NC7      0.200800
@<TRIPOS>BOND
     1    1    2 1   
     2    1   15 1   
     3    1   19 1   
     4    1   20 1   
     5    2    3 1   
     6    2   21 1   
     7    2   45 1   
     8    3    4 1   
     9    3   10 2   
    10    4    5 1   
    11    4   22 1   
    12    4   46 1   
    13    5    6 1   
    14    5   23 1   
    15    5   24 1   
    16    6    7 1   
    17    6   25 1   
    18    6   26 1   
    19    7    8 1   
    20    7   27 1   
    21    7   28 1   
    22    8    9 1   
    23    8   29 1   
    24    8   30 1   
    25    9   11 1   
    26    9   31 1   
    27    9   32 1   
    28   11   12 1   
    29   11   33 1   
    30   11   34 1   
    31   12   13 1   
    32   12   14 1   
    33   15   16 1   
    34   15   35 1   
    35   15   36 1   
    36   16   17 1   
    37   16   37 1   
    38   16   38 1   
    39   17   18 1   
    40   17   39 1   
    41   17   40 1   
    42   18   19 1   
    43   18   41 1   
    44   18   42 1   
    45   19   43 1   
    46   19   44 1   
@<TRIPOS>SUBSTRUCTURE
     1 NC7         1 TEMP              0 ****  ****    0 ROOT
