@<TRIPOS>MOLECULE
NC8
   75    78     1     0     0
SMALL
bcc


@<TRIPOS>ATOM
      1 C1          0.1930   -1.0360   -0.4740 c3        1 NC8      0.139000
      2 N1          1.6180   -0.6520   -0.1860 n4        1 NC8     -0.759000
      3 O1         -0.1320    1.2490    5.1080 o         1 NC8     -0.404100
      4 BR1         0.5580    9.2840   -1.8910 br        1 NC8      0.028900
      5 C2          1.9540   -0.5330    1.2590 c3        1 NC8      0.097800
      6 N2          1.8900    1.9480    4.1930 n4        1 NC8     -0.593200
      7 O2         -1.4220    3.0980    0.1980 os        1 NC8     -0.399900
      8 C3          1.2880    0.6440    2.0020 c3        1 NC8     -0.080700
      9 N3          6.9210    5.9630    5.7840 n4        1 NC8     -0.714000
     10 O3         -0.1010    3.5190    1.9450 o         1 NC8     -0.709000
     11 C4          1.9070    0.6590    3.4130 c3        1 NC8      0.109800
     12 N4         -4.1620    4.3360    8.8540 n4        1 NC8     -0.712000
     13 C5          2.5170    3.0830    3.4420 c3        1 NC8      0.144100
     14 C6          3.6040    3.8050    4.1860 ca        1 NC8     -0.121300
     15 C7          0.5170    2.2440    4.8300 c         1 NC8      0.567100
     16 C8         -0.9760    3.8040    6.0650 ca        1 NC8     -0.078300
     17 C9         -0.2230    0.4530    2.0700 c3        1 NC8     -0.067200
     18 C10        -0.9170    0.7980    0.7970 c2        1 NC8     -0.104400
     19 C11        -1.9090    1.9240    0.8560 c3        1 NC8      0.172600
     20 C12        -0.5690    3.9320    0.8610 c         1 NC8      0.700700
     21 C13        -0.3060    5.1960    0.1830 ca        1 NC8     -0.185600
     22 C14        -0.7400    0.1150   -0.3430 c2        1 NC8     -0.180200
     23 C15         0.6160    6.0960    0.7450 ca        1 NC8     -0.063000
     24 C16         0.8720    7.3100    0.1260 ca        1 NC8     -0.113000
     25 C17         0.2110    7.6510   -1.0670 ca        1 NC8      0.032100
     26 C18        -0.7090    6.7560   -1.6260 ca        1 NC8     -0.113000
     27 C19        -0.9680    5.5340   -1.0060 ca        1 NC8     -0.063000
     28 C20         4.7320    3.1230    4.6600 ca        1 NC8     -0.094500
     29 C21         5.8120    3.8170    5.2040 ca        1 NC8     -0.075000
     30 C22         5.7670    5.2220    5.2680 ca        1 NC8     -0.014400
     31 C23         4.6310    5.9160    4.8170 ca        1 NC8     -0.075000
     32 C24         3.5570    5.2000    4.2840 ca        1 NC8     -0.094500
     33 C25        -2.2860    4.0130    5.6130 ca        1 NC8     -0.083500
     34 C26        -3.3340    4.1900    6.5170 ca        1 NC8     -0.082000
     35 C27        -3.0670    4.1560    7.8970 ca        1 NC8     -0.020400
     36 C28        -1.7570    3.9480    8.3620 ca        1 NC8     -0.082000
     37 C29        -0.7240    3.7760    7.4420 ca        1 NC8     -0.083500
     38 C30         0.1390    3.6790    5.0770 c3        1 NC8     -0.102100
     39 H11        -0.1010   -1.8730    0.2270 hx        1 NC8      0.135700
     40 H21         0.1680   -1.4390   -1.5340 hx        1 NC8      0.135700
     41 H1N1        1.8180    0.2380   -0.6610 hn        1 NC8      0.470300
     42 H2N1        2.2300   -1.3800   -0.5910 hn        1 NC8      0.470300
     43 H12         1.6560   -1.5030    1.7600 hx        1 NC8      0.113200
     44 H22         3.0780   -0.4310    1.3200 hx        1 NC8      0.113200
     45 H3          1.5020    1.6130    1.4670 hc        1 NC8      0.098700
     46 H1N3        7.3900    5.4260    6.5280 hn        1 NC8      0.486800
     47 H2N3        6.6250    6.8730    6.1650 hn        1 NC8      0.486800
     48 H14         2.9980    0.3690    3.3410 hx        1 NC8      0.117700
     49 H24         1.3710   -0.1150    4.0450 hx        1 NC8      0.117700
     50 H1N4       -3.8090    4.7520    9.7270 hn        1 NC8      0.482467
     51 H2N4       -4.5880    3.4230    9.0700 hn        1 NC8      0.482467
     52 H15         2.9880    2.6650    2.5000 hx        1 NC8      0.134700
     53 H25         1.7030    3.7970    3.1060 hx        1 NC8      0.134700
     54 H19        -0.6290    1.1070    2.8890 hc        1 NC8      0.083700
     55 H29        -0.4650   -0.6110    2.3490 hc        1 NC8      0.083700
     56 H111       -2.1890    2.1670    1.9140 h1        1 NC8      0.096200
     57 H211       -2.8340    1.6760    0.2570 h1        1 NC8      0.096200
     58 H14A       -1.3190    0.3590   -1.2550 ha        1 NC8      0.201000
     59 H15A        1.1280    5.8310    1.6820 ha        1 NC8      0.138000
     60 H16         1.5930    8.0140    0.5730 ha        1 NC8      0.177000
     61 H18        -1.2400    7.0120   -2.5610 ha        1 NC8      0.177000
     62 H19A       -1.7000    4.8380   -1.4510 ha        1 NC8      0.138000
     63 H20         4.8050    2.0240    4.5850 ha        1 NC8      0.168000
     64 H21A        6.6920    3.2480    5.5610 ha        1 NC8      0.191500
     65 H23         4.5690    7.0190    4.8630 ha        1 NC8      0.191500
     66 H24A        2.6790    5.7600    3.9130 ha        1 NC8      0.168000
     67 H25A       -2.5070    4.0490    4.5320 ha        1 NC8      0.167000
     68 H26        -4.3550    4.3580    6.1280 ha        1 NC8      0.185000
     69 H28        -1.5240    3.9210    9.4430 ha        1 NC8      0.185000
     70 H29A        0.3000    3.6230    7.8220 ha        1 NC8      0.167000
     71 H130        1.0340    4.2610    5.4340 hc        1 NC8      0.127200
     72 H230       -0.1860    4.1110    4.0780 hc        1 NC8      0.127200
     73 H212        2.4950    1.7590    5.0130 hn        1 NC8      0.455800
     74 H33         7.5960    6.1290    5.0200 hn        1 NC8      0.486800
     75 H43        -4.8830    4.9550    8.4580 hn        1 NC8      0.482467
@<TRIPOS>BOND
     1    1    2 1   
     2    1   22 1   
     3    1   39 1   
     4    1   40 1   
     5    2    5 1   
     6    2   41 1   
     7    2   42 1   
     8    3   15 2   
     9    4   25 1   
    10    5    8 1   
    11    5   43 1   
    12    5   44 1   
    13    6   11 1   
    14    6   13 1   
    15    6   15 1   
    16    6   73 1   
    17    7   19 1   
    18    7   20 1   
    19    8   11 1   
    20    8   17 1   
    21    8   45 1   
    22    9   30 1   
    23    9   46 1   
    24    9   47 1   
    25    9   74 1   
    26   10   20 2   
    27   11   48 1   
    28   11   49 1   
    29   12   35 1   
    30   12   50 1   
    31   12   51 1   
    32   12   75 1   
    33   13   14 1   
    34   13   52 1   
    35   13   53 1   
    36   14   28 ar  
    37   14   32 ar  
    38   15   38 1   
    39   16   33 ar  
    40   16   37 ar  
    41   16   38 1   
    42   17   18 1   
    43   17   54 1   
    44   17   55 1   
    45   18   19 1   
    46   18   22 2   
    47   19   56 1   
    48   19   57 1   
    49   20   21 1   
    50   21   23 ar  
    51   21   27 ar  
    52   22   58 1   
    53   23   24 ar  
    54   23   59 1   
    55   24   25 ar  
    56   24   60 1   
    57   25   26 ar  
    58   26   27 ar  
    59   26   61 1   
    60   27   62 1   
    61   28   29 ar  
    62   28   63 1   
    63   29   30 ar  
    64   29   64 1   
    65   30   31 ar  
    66   31   32 ar  
    67   31   65 1   
    68   32   66 1   
    69   33   34 ar  
    70   33   67 1   
    71   34   35 ar  
    72   34   68 1   
    73   35   36 ar  
    74   36   37 ar  
    75   36   69 1   
    76   37   70 1   
    77   38   71 1   
    78   38   72 1   
@<TRIPOS>SUBSTRUCTURE
     1 NC8         1 TEMP              0 ****  ****    0 ROOT
