@<TRIPOS>MOLECULE
NC8
   72    75     1     0     0
SMALL
bcc


@<TRIPOS>ATOM
      1 C1          0.2740    3.0490    3.4850 c3        1 NC8      0.169000
      2 N1         -0.2070    3.5080    2.1310 n4        1 NC8     -0.771000
      3 O1         -4.2760   -0.6670    2.5580 o         1 NC8     -0.621100
      4 BR1         7.3900   -0.5060   -2.0030 br        1 NC8     -0.040100
      5 C2         -1.6410    3.1820    1.8710 c3        1 NC8      0.108800
      6 N2         -3.7390    0.3280    0.5820 n         1 NC8     -0.474800
      7 O2          1.8150   -0.5660    1.9380 os        1 NC8     -0.424900
      8 C3         -1.8900    1.6950    1.5950 c3        1 NC8     -0.099700
      9 N3         -7.3220    3.6900   -3.6480 nh        1 NC8     -0.830200
     10 O3          1.1450    1.0820    0.5760 o         1 NC8     -0.622000
     11 C4         -3.3940    1.5510    1.2590 c3        1 NC8      0.097000
     12 N4         -0.8700   -5.7580   -0.7220 nh        1 NC8     -0.824200
     13 C5         -3.6360    0.3320   -0.8600 c3        1 NC8      0.145300
     14 C6         -4.6190    1.2090   -1.5780 ca        1 NC8     -0.188300
     15 C7         -4.2890   -0.7250    1.3100 c         1 NC8      0.668100
     16 C8         -3.8400   -2.9270    0.2480 ca        1 NC8     -0.152300
     17 C9         -1.5240    0.8350    2.7940 c3        1 NC8     -0.078200
     18 C10        -0.0500    0.6630    2.9400 c2        1 NC8     -0.049400
     19 C11         0.5030   -0.6540    2.5040 c3        1 NC8      0.166600
     20 C12         2.0230    0.2520    0.8580 c         1 NC8      0.683700
     21 C13         3.3160    0.0540    0.1940 ca        1 NC8     -0.151600
     22 C14         0.7550    1.6470    3.3790 c2        1 NC8     -0.249200
     23 C15         3.6000    0.8010   -0.9580 ca        1 NC8     -0.065500
     24 C16         4.8170    0.6320   -1.6130 ca        1 NC8     -0.118500
     25 C17         5.7560   -0.2830   -1.1230 ca        1 NC8      0.015100
     26 C18         5.4700   -1.0310    0.0240 ca        1 NC8     -0.118500
     27 C19         4.2530   -0.8660    0.6810 ca        1 NC8     -0.065500
     28 C20        -4.1700    2.0510   -2.6000 ca        1 NC8     -0.078000
     29 C21        -5.0570    2.8450   -3.3140 ca        1 NC8     -0.198000
     30 C22        -6.4410    2.8260   -3.0110 ca        1 NC8      0.173600
     31 C23        -6.8890    1.9590   -1.9820 ca        1 NC8     -0.198000
     32 C24        -5.9860    1.1690   -1.2850 ca        1 NC8     -0.078000
     33 C25        -3.6370   -3.3140   -1.0800 ca        1 NC8     -0.083000
     34 C26        -2.6830   -4.2700   -1.4060 ca        1 NC8     -0.196000
     35 C27        -1.8940   -4.8720   -0.3960 ca        1 NC8      0.160600
     36 C28        -2.1190   -4.4870    0.9490 ca        1 NC8     -0.196000
     37 C29        -3.0760   -3.5300    1.2550 ca        1 NC8     -0.083000
     38 C30        -4.8840   -1.9320    0.6040 c3        1 NC8     -0.090100
     39 H11         1.1110    3.7360    3.7990 hx        1 NC8      0.103700
     40 H21        -0.5740    3.1500    4.2210 hx        1 NC8      0.103700
     41 H1N1       -0.0810    4.5200    2.0550 hn        1 NC8      0.461300
     42 H2N1        0.3670    3.0370    1.4090 hn        1 NC8      0.461300
     43 H12        -2.2460    3.5140    2.7630 hx        1 NC8      0.097700
     44 H22        -1.9600    3.7860    0.9720 hx        1 NC8      0.097700
     45 H3         -1.2700    1.3710    0.7090 hc        1 NC8      0.099700
     46 H1N3       -7.0260    4.0400   -4.5300 hn        1 NC8      0.407800
     47 H2N3       -8.2840    3.4430   -3.6000 hn        1 NC8      0.407800
     48 H14        -3.6960    2.4150    0.5980 h1        1 NC8      0.071700
     49 H24        -3.9740    1.6170    2.2260 h1        1 NC8      0.071700
     50 H1N4       -0.9610   -6.2010   -1.6090 hn        1 NC8      0.401300
     51 H2N4       -0.5950   -6.3730    0.0100 hn        1 NC8      0.401300
     52 H15        -2.5880    0.6670   -1.1210 h1        1 NC8      0.060700
     53 H25        -3.7460   -0.7270   -1.2400 h1        1 NC8      0.060700
     54 H19        -1.9450    1.2890    3.7330 hc        1 NC8      0.092700
     55 H29        -2.0210   -0.1720    2.6870 hc        1 NC8      0.092700
     56 H111       -0.1780   -1.1280    1.7450 h1        1 NC8      0.097700
     57 H211        0.6560   -1.3470    3.3800 h1        1 NC8      0.097700
     58 H14A        1.8250    1.4780    3.5780 ha        1 NC8      0.169000
     59 H15A        2.8550    1.5140   -1.3440 ha        1 NC8      0.157000
     60 H16         5.0310    1.2200   -2.5200 ha        1 NC8      0.164500
     61 H18         6.2020   -1.7570    0.4150 ha        1 NC8      0.164500
     62 H19A        4.0250   -1.4600    1.5820 ha        1 NC8      0.157000
     63 H20        -3.0990    2.0810   -2.8560 ha        1 NC8      0.128500
     64 H21A       -4.6770    3.4930   -4.1180 ha        1 NC8      0.140000
     65 H23        -7.9590    1.9100   -1.7290 ha        1 NC8      0.140000
     66 H24A       -6.3590    0.5010   -0.4930 ha        1 NC8      0.128500
     67 H25A       -4.2480   -2.8700   -1.8830 ha        1 NC8      0.138000
     68 H26        -2.5460   -4.5580   -2.4590 ha        1 NC8      0.138500
     69 H28        -1.5390   -4.9510    1.7600 ha        1 NC8      0.138500
     70 H29A       -3.2480   -3.2400    2.3050 ha        1 NC8      0.138000
     71 H130       -5.6100   -2.3980    1.3290 hc        1 NC8      0.083200
     72 H230       -5.4680   -1.6140   -0.3000 hc        1 NC8      0.083200
@<TRIPOS>BOND
     1    1    2 1   
     2    1   22 1   
     3    1   39 1   
     4    1   40 1   
     5    2    5 1   
     6    2   41 1   
     7    2   42 1   
     8    3   15 2   
     9    4   25 1   
    10    5    8 1   
    11    5   43 1   
    12    5   44 1   
    13    6   11 1   
    14    6   13 1   
    15    6   15 1   
    16    7   19 1   
    17    7   20 1   
    18    8   11 1   
    19    8   17 1   
    20    8   45 1   
    21    9   30 1   
    22    9   46 1   
    23    9   47 1   
    24   10   20 2   
    25   11   48 1   
    26   11   49 1   
    27   12   35 1   
    28   12   50 1   
    29   12   51 1   
    30   13   14 1   
    31   13   52 1   
    32   13   53 1   
    33   14   28 ar  
    34   14   32 ar  
    35   15   38 1   
    36   16   33 ar  
    37   16   37 ar  
    38   16   38 1   
    39   17   18 1   
    40   17   54 1   
    41   17   55 1   
    42   18   19 1   
    43   18   22 2   
    44   19   56 1   
    45   19   57 1   
    46   20   21 1   
    47   21   23 ar  
    48   21   27 ar  
    49   22   58 1   
    50   23   24 ar  
    51   23   59 1   
    52   24   25 ar  
    53   24   60 1   
    54   25   26 ar  
    55   26   27 ar  
    56   26   61 1   
    57   27   62 1   
    58   28   29 ar  
    59   28   63 1   
    60   29   30 ar  
    61   29   64 1   
    62   30   31 ar  
    63   31   32 ar  
    64   31   65 1   
    65   32   66 1   
    66   33   34 ar  
    67   33   67 1   
    68   34   35 ar  
    69   34   68 1   
    70   35   36 ar  
    71   36   37 ar  
    72   36   69 1   
    73   37   70 1   
    74   38   71 1   
    75   38   72 1   
@<TRIPOS>SUBSTRUCTURE
     1 NC8         1 TEMP              0 ****  ****    0 ROOT
