@<TRIPOS>MOLECULE
NC8
   73    76     1     0     0
SMALL
bcc


@<TRIPOS>ATOM
      1 C1         -1.1800    0.0070    0.2340 c3        1 NC8      0.159000
      2 N1          0.2930    0.2480    0.4650 n4        1 NC8     -0.770000
      3 O1         -0.2760    4.5680    3.7060 o         1 NC8     -0.459100
      4 BR1         0.7950    7.1770   -5.8470 br        1 NC8     -0.014100
      5 C2          0.6610    0.3700    1.9040 c3        1 NC8      0.111800
      6 N2          1.2880    3.0070    4.4880 n4        1 NC8     -0.607200
      7 O2         -1.8230    4.1290   -0.3290 os        1 NC8     -0.413900
      8 C3          0.2220    1.6950    2.5500 c3        1 NC8     -0.098700
      9 N3          6.0490    6.8330    6.4600 nh        1 NC8     -0.841200
     10 O3          0.2450    3.3080   -0.1040 o         1 NC8     -0.665000
     11 C4          0.7510    1.7050    3.9930 c3        1 NC8      0.114800
     12 N4          0.1350   -0.1760    9.6340 nh        1 NC8     -0.837200
     13 C5          2.4000    3.5590    3.6150 c3        1 NC8      0.201100
     14 C6          3.3210    4.4140    4.3950 ca        1 NC8     -0.296300
     15 C7          0.1830    4.0270    4.7030 c         1 NC8      0.558100
     16 C8         -0.1060    3.0950    7.0080 ca        1 NC8     -0.263300
     17 C9         -1.2960    1.8390    2.5290 c3        1 NC8     -0.067200
     18 C10        -1.8070    2.2050    1.1750 c2        1 NC8     -0.071400
     19 C11        -2.1740    3.6400    0.9690 c3        1 NC8      0.166600
     20 C12        -0.5250    4.0370   -0.7580 c         1 NC8      0.698700
     21 C13        -0.2350    4.7920   -1.9750 ca        1 NC8     -0.169600
     22 C14        -1.8780    1.3190    0.1670 c2        1 NC8     -0.215200
     23 C15         1.0720    4.7710   -2.4880 ca        1 NC8     -0.061500
     24 C16         1.3770    5.4840   -3.6430 ca        1 NC8     -0.117000
     25 C17         0.3820    6.2240   -4.2970 ca        1 NC8      0.025100
     26 C18        -0.9200    6.2460   -3.7830 ca        1 NC8     -0.117000
     27 C19        -1.2300    5.5350   -2.6260 ca        1 NC8     -0.061500
     28 C20         4.3350    3.8380    5.1760 ca        1 NC8     -0.037500
     29 C21         5.2410    4.6230    5.8600 ca        1 NC8     -0.223500
     30 C22         5.1710    6.0480    5.7800 ca        1 NC8      0.265600
     31 C23         4.1380    6.6200    4.9770 ca        1 NC8     -0.223500
     32 C24         3.2420    5.8130    4.3060 ca        1 NC8     -0.037500
     33 C25        -1.1610    2.1760    7.1020 ca        1 NC8     -0.068500
     34 C26        -1.0990    1.1030    7.9720 ca        1 NC8     -0.214500
     35 C27         0.0370    0.9140    8.8100 ca        1 NC8      0.232600
     36 C28         1.0960    1.8630    8.7190 ca        1 NC8     -0.214500
     37 C29         1.0120    2.9280    7.8410 ca        1 NC8     -0.068500
     38 C30        -0.2210    4.2820    6.1330 c3        1 NC8     -0.081100
     39 H11        -1.2820   -0.5480   -0.7440 hx        1 NC8      0.115700
     40 H21        -1.5760   -0.6470    1.0630 hx        1 NC8      0.115700
     41 H1N1        0.8250   -0.5300    0.0590 hn        1 NC8      0.473800
     42 H2N1        0.5560    1.1290   -0.0190 hn        1 NC8      0.473800
     43 H12         0.2010   -0.4980    2.4590 hx        1 NC8      0.102200
     44 H22         1.7860    0.2830    1.9650 hx        1 NC8      0.102200
     45 H3          0.6610    2.5550    1.9590 hc        1 NC8      0.130700
     46 H1N3        6.7970    6.4260    6.9660 hn        1 NC8      0.452300
     47 H2N3        6.0260    7.8180    6.3520 hn        1 NC8      0.452300
     48 H14         1.5900    0.9560    4.1000 hx        1 NC8      0.104700
     49 H24        -0.0760    1.4010    4.7040 hx        1 NC8      0.104700
     50 H1N4       -0.6830   -0.7090    9.8170 hn        1 NC8      0.440300
     51 H2N4        0.8440   -0.1850   10.3280 hn        1 NC8      0.440300
     52 H15         2.9480    2.6700    3.1900 hx        1 NC8      0.095200
     53 H25         1.9200    4.1370    2.7740 hx        1 NC8      0.095200
     54 H19        -1.5980    2.6370    3.2630 hc        1 NC8      0.077700
     55 H29        -1.7780    0.8820    2.8690 hc        1 NC8      0.077700
     56 H111       -3.2910    3.7910    0.9980 h1        1 NC8      0.100700
     57 H211       -1.6690    4.2860    1.7390 h1        1 NC8      0.100700
     58 H14A       -2.3660    1.5680   -0.7900 ha        1 NC8      0.188000
     59 H15A        1.8530    4.1940   -1.9700 ha        1 NC8      0.154000
     60 H16         2.4060    5.4640   -4.0390 ha        1 NC8      0.171500
     61 H18        -1.7100    6.8270   -4.2890 ha        1 NC8      0.171500
     62 H19A       -2.2560    5.5580   -2.2230 ha        1 NC8      0.154000
     63 H20         4.4240    2.7410    5.2360 ha        1 NC8      0.131500
     64 H21A        6.0320    4.1470    6.4610 ha        1 NC8      0.158500
     65 H23         4.0610    7.7150    4.8840 ha        1 NC8      0.158500
     66 H24A        2.4630    6.2790    3.6780 ha        1 NC8      0.131500
     67 H25A       -2.0680    2.3230    6.4940 ha        1 NC8      0.136500
     68 H26        -1.9510    0.4060    8.0380 ha        1 NC8      0.156500
     69 H28         1.9780    1.7650    9.3710 ha        1 NC8      0.156500
     70 H29A        1.8250    3.6730    7.8220 ha        1 NC8      0.136500
     71 H130        0.4290    5.1260    6.5090 hc        1 NC8      0.124200
     72 H230       -1.2830    4.6630    6.1100 hc        1 NC8      0.124200
     73 H212        1.6960    2.8230    5.4250 hn        1 NC8      0.475800
@<TRIPOS>BOND
     1    1    2 1   
     2    1   22 1   
     3    1   39 1   
     4    1   40 1   
     5    2    5 1   
     6    2   41 1   
     7    2   42 1   
     8    3   15 2   
     9    4   25 1   
    10    5    8 1   
    11    5   43 1   
    12    5   44 1   
    13    6   11 1   
    14    6   13 1   
    15    6   15 1   
    16    6   73 1   
    17    7   19 1   
    18    7   20 1   
    19    8   11 1   
    20    8   17 1   
    21    8   45 1   
    22    9   30 1   
    23    9   46 1   
    24    9   47 1   
    25   10   20 2   
    26   11   48 1   
    27   11   49 1   
    28   12   35 1   
    29   12   50 1   
    30   12   51 1   
    31   13   14 1   
    32   13   52 1   
    33   13   53 1   
    34   14   28 ar  
    35   14   32 ar  
    36   15   38 1   
    37   16   33 ar  
    38   16   37 ar  
    39   16   38 1   
    40   17   18 1   
    41   17   54 1   
    42   17   55 1   
    43   18   19 1   
    44   18   22 2   
    45   19   56 1   
    46   19   57 1   
    47   20   21 1   
    48   21   23 ar  
    49   21   27 ar  
    50   22   58 1   
    51   23   24 ar  
    52   23   59 1   
    53   24   25 ar  
    54   24   60 1   
    55   25   26 ar  
    56   26   27 ar  
    57   26   61 1   
    58   27   62 1   
    59   28   29 ar  
    60   28   63 1   
    61   29   30 ar  
    62   29   64 1   
    63   30   31 ar  
    64   31   32 ar  
    65   31   65 1   
    66   32   66 1   
    67   33   34 ar  
    68   33   67 1   
    69   34   35 ar  
    70   34   68 1   
    71   35   36 ar  
    72   36   37 ar  
    73   36   69 1   
    74   37   70 1   
    75   38   71 1   
    76   38   72 1   
@<TRIPOS>SUBSTRUCTURE
     1 NC8         1 TEMP              0 ****  ****    0 ROOT
