@<TRIPOS>MOLECULE
NC8
   73    76     1     0     0
SMALL
bcc


@<TRIPOS>ATOM
      1 C1         -1.2350    0.0100    0.2700 c3        1 NC8      0.159000
      2 N1          0.2430    0.2310    0.4940 ny        1 NC8     -0.770000
      3 O1         -0.2540    4.5900    3.6950 o         1 NC8     -0.459100
      4 Br1         0.8240    7.0960   -5.8830 br        1 NC8     -0.014100
      5 C2          0.6170    0.3610    1.9300 c3        1 NC8      0.111800
      6 N2          1.2900    3.0140    4.4870 nx        1 NC8     -0.607200
      7 O2         -1.8210    4.1340   -0.3300 os        1 NC8     -0.413900
      8 C3          0.2000    1.6980    2.5650 c3        1 NC8     -0.098700
      9 N3          6.1090    6.7930    6.4080 nv        1 NC8     -0.841200
     10 O3          0.2370    3.2860   -0.1040 o         1 NC8     -0.665000
     11 C4          0.7330    1.7150    4.0060 c3        1 NC8      0.114800
     12 N4          0.1120   -0.1040    9.6680 nv        1 NC8     -0.837200
     13 C5          2.4070    3.5410    3.6060 c3        1 NC8      0.201100
     14 C6          3.3420    4.3910    4.3740 ca        1 NC8     -0.296300
     15 C7          0.2010    4.0510    4.6960 c         1 NC8      0.558100
     16 C8         -0.0930    3.1450    7.0110 ca        1 NC8     -0.263300
     17 C9         -1.3170    1.8650    2.5470 c3        1 NC8     -0.067200
     18 C10        -1.8270    2.2240    1.1920 c2        1 NC8     -0.071400
     19 C11        -2.1740    3.6630    0.9740 c3        1 NC8      0.166600
     20 C12        -0.5250    4.0210   -0.7620 c         1 NC8      0.698700
     21 C13        -0.2280    4.7600   -1.9870 ca        1 NC8     -0.169600
     22 C14        -1.9140    1.3300    0.1920 c2        1 NC8     -0.215200
     23 C15         1.0770    4.7170   -2.5030 ca        1 NC8     -0.061500
     24 C16         1.3880    5.4150   -3.6650 ca        1 NC8     -0.117000
     25 C17         0.4020    6.1620   -4.3240 ca        1 NC8      0.025100
     26 C18        -0.8980    6.2070   -3.8070 ca        1 NC8     -0.117000
     27 C19        -1.2140    5.5110   -2.6420 ca        1 NC8     -0.061500
     28 C20         4.3510    3.8090    5.1580 ca        1 NC8     -0.037500
     29 C21         5.2700    4.5880    5.8310 ca        1 NC8     -0.223500
     30 C22         5.2180    6.0130    5.7380 ca        1 NC8      0.265600
     31 C23         4.1900    6.5920    4.9340 ca        1 NC8     -0.223500
     32 C24         3.2810    5.7910    4.2720 ca        1 NC8     -0.037500
     33 C25        -1.1600    2.2410    7.1170 ca        1 NC8     -0.068500
     34 C26        -1.1100    1.1760    7.9980 ca        1 NC8     -0.214500
     35 C27         0.0270    0.9800    8.8330 ca        1 NC8      0.232600
     36 C28         1.0980    1.9130    8.7290 ca        1 NC8     -0.214500
     37 C29         1.0250    2.9710    7.8410 ca        1 NC8     -0.068500
     38 C30        -0.1950    4.3250    6.1250 c3        1 NC8     -0.081100
     39 H11        -1.6380   -0.6310    1.1060 hx        1 NC8      0.115700
     40 H21        -1.3480   -0.5540   -0.7020 hx        1 NC8      0.115700
     41 H1N1        0.7620   -0.5580    0.0930 hn        1 NC8      0.473800
     42 H2N1        0.5160    1.1040    0.0000 hn        1 NC8      0.473800
     43 H12         1.7410    0.2590    1.9880 hx        1 NC8      0.102200
     44 H22         0.1470   -0.4950    2.4950 hx        1 NC8      0.102200
     45 H3          0.6480    2.5470    1.9640 hc        1 NC8      0.130700
     46 H1N3        6.8540    6.3800    6.9150 hn        1 NC8      0.452300
     47 H2N3        6.0990    7.7760    6.2910 hn        1 NC8      0.452300
     48 H14        -0.0960    1.4290    4.7230 hx        1 NC8      0.104700
     49 H24         1.5620    0.9550    4.1170 hx        1 NC8      0.104700
     50 H1N4       -0.7120   -0.6230    9.8580 hn        1 NC8      0.440300
     51 H2N4        0.8240   -0.1160   10.3590 hn        1 NC8      0.440300
     52 H15         1.9320    4.1180    2.7600 hx        1 NC8      0.095200
     53 H25         2.9410    2.6420    3.1880 hx        1 NC8      0.095200
     54 H19        -1.8110    0.9170    2.8980 hc        1 NC8      0.077700
     55 H29        -1.6050    2.6730    3.2750 hc        1 NC8      0.077700
     56 H111       -3.2880    3.8300    1.0050 h1        1 NC8      0.100700
     57 H211       -1.6570    4.3090    1.7360 h1        1 NC8      0.100700
     58 H14A       -2.4020    1.5780   -0.7660 ha        1 NC8      0.188000
     59 H15A        1.8520    4.1340   -1.9820 ha        1 NC8      0.154000
     60 H16         2.4160    5.3770   -4.0630 ha        1 NC8      0.171500
     61 H18        -1.6820    6.7940   -4.3160 ha        1 NC8      0.171500
     62 H19A       -2.2390    5.5510   -2.2360 ha        1 NC8      0.154000
     63 H20         4.4260    2.7120    5.2270 ha        1 NC8      0.131500
     64 H21A        6.0570    4.1070    6.4340 ha        1 NC8      0.158500
     65 H23         4.1280    7.6870    4.8300 ha        1 NC8      0.158500
     66 H24A        2.5070    6.2610    3.6440 ha        1 NC8      0.131500
     67 H25A       -2.0680    2.3950    6.5120 ha        1 NC8      0.136500
     68 H26        -1.9710    0.4920    8.0740 ha        1 NC8      0.156500
     69 H28         1.9810    1.8090    9.3790 ha        1 NC8      0.156500
     70 H29A        1.8490    3.7040    7.8120 ha        1 NC8      0.136500
     71 H130       -1.2520    4.7200    6.1020 hc        1 NC8      0.124200
     72 H230        0.4670    5.1640    6.4910 hc        1 NC8      0.124200
     73 H212        1.6990    2.8320    5.4240 hn        1 NC8      0.475800
@<TRIPOS>BOND
     1    1    2 1   
     2    1   22 1   
     3    1   39 1   
     4    1   40 1   
     5    2    5 1   
     6    2   41 1   
     7    2   42 1   
     8    3   15 2   
     9    4   25 1   
    10    5    8 1   
    11    5   43 1   
    12    5   44 1   
    13    6   11 1   
    14    6   13 1   
    15    6   15 1   
    16    6   73 1   
    17    7   19 1   
    18    7   20 1   
    19    8   11 1   
    20    8   17 1   
    21    8   45 1   
    22    9   30 1   
    23    9   46 1   
    24    9   47 1   
    25   10   20 2   
    26   11   48 1   
    27   11   49 1   
    28   12   35 1   
    29   12   50 1   
    30   12   51 1   
    31   13   14 1   
    32   13   52 1   
    33   13   53 1   
    34   14   28 ar  
    35   14   32 ar  
    36   15   38 1   
    37   16   33 ar  
    38   16   37 ar  
    39   16   38 1   
    40   17   18 1   
    41   17   54 1   
    42   17   55 1   
    43   18   19 1   
    44   18   22 2   
    45   19   56 1   
    46   19   57 1   
    47   20   21 1   
    48   21   23 ar  
    49   21   27 ar  
    50   22   58 1   
    51   23   24 ar  
    52   23   59 1   
    53   24   25 ar  
    54   24   60 1   
    55   25   26 ar  
    56   26   27 ar  
    57   26   61 1   
    58   27   62 1   
    59   28   29 ar  
    60   28   63 1   
    61   29   30 ar  
    62   29   64 1   
    63   30   31 ar  
    64   31   32 ar  
    65   31   65 1   
    66   32   66 1   
    67   33   34 ar  
    68   33   67 1   
    69   34   35 ar  
    70   34   68 1   
    71   35   36 ar  
    72   36   37 ar  
    73   36   69 1   
    74   37   70 1   
    75   38   71 1   
    76   38   72 1   
@<TRIPOS>SUBSTRUCTURE
     1 NC8         1 TEMP              0 ****  ****    0 ROOT
