@<TRIPOS>MOLECULE
NC9
   60    62     1     0     0
SMALL
bcc


@<TRIPOS>ATOM
      1 C1         -4.1870   -1.8960    1.5120 c3        1 NC9      0.157000
      2 N1         -2.7270   -1.5830    1.5720 n4        1 NC9     -0.755000
      3 O1         -0.2040   -1.0950    0.2310 o         1 NC9     -0.700100
      4 C2         -2.4360   -0.1540    1.2640 c3        1 NC9      0.121800
      5 O2         -6.3330   -2.0940   -2.0040 oh        1 NC9     -0.602800
      6 C3         -2.5020    0.1160   -0.2450 c3        1 NC9     -0.083700
      7 N3          3.2520    5.8440    1.2930 nh        1 NC9     -0.834200
      8 C4         -1.5310    1.2550   -0.5870 c3        1 NC9      0.104000
      9 N4          4.1000   -4.9150    2.0730 nh        1 NC9     -0.827200
     10 C5          0.5430    1.8430   -1.7500 c3        1 NC9      0.145300
     11 C6          1.2520    2.8930   -0.9500 ca        1 NC9     -0.195300
     12 C7          0.4380   -0.2780   -0.4720 c         1 NC9      0.691100
     13 C8          2.4780   -1.6720   -0.0760 ca        1 NC9     -0.144300
     14 C9         -3.9370    0.4180   -0.6480 c3        1 NC9     -0.071200
     15 C10        -4.7560   -0.8270   -0.7360 c2        1 NC9     -0.060400
     16 C11        -5.5650   -0.9030   -2.0010 c3        1 NC9      0.158600
     17 C14        -4.8160   -1.8150    0.1690 c2        1 NC9     -0.223200
     18 C20         2.6490    2.9530   -0.9400 ca        1 NC9     -0.073000
     19 C21         3.3180    3.9410   -0.2330 ca        1 NC9     -0.200500
     20 C22         2.5940    4.9130    0.5040 ca        1 NC9      0.185600
     21 C23         1.1770    4.8610    0.4670 ca        1 NC9     -0.200500
     22 C24         0.5300    3.8650   -0.2490 ca        1 NC9     -0.073000
     23 C25         2.4260   -2.9680   -0.6000 ca        1 NC9     -0.072000
     24 C26         2.9890   -4.0370    0.0830 ca        1 NC9     -0.198500
     25 C27         3.6220   -3.8370    1.3340 ca        1 NC9      0.166600
     26 C28         3.6830   -2.5190    1.8510 ca        1 NC9     -0.198500
     27 C29         3.1150   -1.4630    1.1520 ca        1 NC9     -0.072000
     28 C30         1.8960   -0.5290   -0.8250 c3        1 NC9     -0.086100
     29 H11        -4.3070   -2.9480    1.9110 hx        1 NC9      0.100700
     30 H21        -4.7160   -1.1880    2.2170 hx        1 NC9      0.100700
     31 H1N1       -2.3790   -1.7970    2.5120 hn        1 NC9      0.464300
     32 H2N1       -2.2020   -2.1650    0.8980 hn        1 NC9      0.464300
     33 H12        -3.1750    0.4900    1.8200 hx        1 NC9      0.105700
     34 H22        -1.3970    0.0670    1.6520 hx        1 NC9      0.105700
     35 HO2        -6.8830   -2.0670   -2.7980 ho        1 NC9      0.426000
     36 H3         -2.1820   -0.7990   -0.8280 hc        1 NC9      0.100700
     37 H1N3        4.2080    6.0060    1.0810 hn        1 NC9      0.412300
     38 H2N3        2.7320    6.6490    1.5530 hn        1 NC9      0.412300
     39 H14        -1.4600    1.9540    0.3000 h1        1 NC9      0.055200
     40 H24        -1.9740    1.8460   -1.4420 h1        1 NC9      0.055200
     41 H1N4        4.3030   -5.7360    1.5490 hn        1 NC9      0.403800
     42 H2N4        4.7810   -4.6920    2.7630 hn        1 NC9      0.403800
     43 H15         1.2860    1.3020   -2.4060 h1        1 NC9      0.064200
     44 H25        -0.1880    2.3580   -2.4420 h1        1 NC9      0.064200
     45 H19        -4.4170    1.1260    0.0810 hc        1 NC9      0.075200
     46 H29        -3.9360    0.9370   -1.6470 hc        1 NC9      0.075200
     47 H111       -4.8710   -0.8970   -2.8880 h1        1 NC9      0.051700
     48 H211       -6.2420   -0.0040   -2.0560 h1        1 NC9      0.051700
     49 H14A       -5.4710   -2.6870   -0.0390 ha        1 NC9      0.189000
     50 H20         3.2370    2.2190   -1.5150 ha        1 NC9      0.125500
     51 H21A        4.4180    3.9650   -0.2450 ha        1 NC9      0.141000
     52 H23         0.5840    5.6130    1.0090 ha        1 NC9      0.141000
     53 H24A       -0.5700    3.8530   -0.2760 ha        1 NC9      0.125500
     54 H25A        1.9370   -3.1460   -1.5700 ha        1 NC9      0.129500
     55 H26         2.9370   -5.0460   -0.3540 ha        1 NC9      0.138500
     56 H28         4.1820   -2.3250    2.8120 ha        1 NC9      0.138500
     57 H29A        3.1760   -0.4460    1.5710 ha        1 NC9      0.129500
     58 H130        1.9560   -0.7290   -1.9310 hc        1 NC9      0.081200
     59 H230        2.4860    0.4040   -0.6050 hc        1 NC9      0.081200
     60 N2         -0.1960    0.8510   -0.9830 n         1 NC9     -0.474800
@<TRIPOS>BOND
     1    1    2 1   
     2    1   17 1   
     3    1   29 1   
     4    1   30 1   
     5    2    4 1   
     6    2   31 1   
     7    2   32 1   
     8    3   12 2   
     9    4    6 1   
    10    4   33 1   
    11    4   34 1   
    12    5   16 1   
    13    5   35 1   
    14    6    8 1   
    15    6   14 1   
    16    6   36 1   
    17    7   20 1   
    18    7   37 1   
    19    7   38 1   
    20    8   39 1   
    21    8   40 1   
    22    8   60 1   
    23    9   25 1   
    24    9   41 1   
    25    9   42 1   
    26   10   11 1   
    27   10   43 1   
    28   10   44 1   
    29   10   60 1   
    30   11   18 ar  
    31   11   22 ar  
    32   12   28 1   
    33   12   60 1   
    34   13   23 ar  
    35   13   27 ar  
    36   13   28 1   
    37   14   15 1   
    38   14   45 1   
    39   14   46 1   
    40   15   16 1   
    41   15   17 2   
    42   16   47 1   
    43   16   48 1   
    44   17   49 1   
    45   18   19 ar  
    46   18   50 1   
    47   19   20 ar  
    48   19   51 1   
    49   20   21 ar  
    50   21   22 ar  
    51   21   52 1   
    52   22   53 1   
    53   23   24 ar  
    54   23   54 1   
    55   24   25 ar  
    56   24   55 1   
    57   25   26 ar  
    58   26   27 ar  
    59   26   56 1   
    60   27   57 1   
    61   28   58 1   
    62   28   59 1   
@<TRIPOS>SUBSTRUCTURE
     1 NC9         1 TEMP              0 ****  ****    0 ROOT
