@<TRIPOS>MOLECULE
NC9
   61    61     1     0     0
SMALL
bcc


@<TRIPOS>ATOM
      1 C1         -0.2760   -1.5810    0.4330 c3        1 NC9     -0.222000
      2 N1          1.4930    2.6210    0.6210 n7        1 NC9     -0.152000
      3 O1          3.1270    3.7350    2.8530 o         1 NC9     -0.360000
      4 C2          1.9120    1.9790    1.6730 c2        1 NC9      0.166000
      5 O2         -0.4400    2.7570   -0.7130 oh        1 NC9     -0.263000
      6 C3          1.1460    1.7070    2.9380 c3        1 NC9     -0.129000
      7 N3          5.2350    0.7790    7.5050 n8        1 NC9     -0.251000
      8 C4          2.1020    1.5480    4.1300 c3        1 NC9     -0.119000
      9 N4          7.0160    9.0250    2.7870 n8        1 NC9     -0.296000
     10 C5          1.3400    3.4250    5.6020 c3        1 NC9     -0.061000
     11 C6          0.8250    2.6110    6.7460 c2        1 NC9     -0.147000
     12 C7          3.2700    3.8000    4.0850 c2        1 NC9      0.330000
     13 C8          4.8360    5.6940    4.2820 c2        1 NC9      0.166000
     14 C9          0.3820    0.3820    2.7490 c3        1 NC9     -0.122000
     15 C10        -0.7240    0.5070    1.7740 c2        1 NC9     -0.292000
     16 C11         0.1810    3.2850    0.4180 c3        1 NC9      0.062000
     17 C14        -1.0170   -0.3630    0.8000 c2        1 NC9     -0.072000
     18 C20         1.6990    2.5130    7.9610 c3        1 NC9      0.004000
     19 C21         2.9710    1.9100    7.7050 c1        1 NC9     -0.310000
     20 C22         4.0430    1.3540    7.7170 c1        1 NC9     -0.033000
     21 C23        -1.5820    1.6130    6.7850 c2        1 NC9     -0.117000
     22 C24        -0.3830    2.1030    6.7250 c1        1 NC9     -0.123000
     23 C25         4.9030    5.9060    2.8090 c3        1 NC9     -0.239000
     24 C26         5.7850    6.9310    2.2890 c1        1 NC9     -0.037000
     25 C27         6.7250    7.6510    3.1600 c3        1 NC9     -0.094000
     26 C28         6.4340    7.5210    4.6290 c2        1 NC9      0.013000
     27 C29         5.5920    6.5840    5.1200 c2        1 NC9     -0.254000
     28 C30         4.0680    4.7030    4.8520 c2        1 NC9     -0.362000
     29 H11         0.7480   -1.6280    0.8750 hc        1 NC9      0.109667
     30 H21        -0.8490   -2.4810    0.7860 hc        1 NC9      0.109667
     31 H1N1       -0.1840   -1.6600   -0.6810 hc        1 NC9      0.109667
     32 H2N1        2.0960    2.6750   -0.1920 hn        1 NC9      0.290000
     33 H12        -0.4410    3.1830    1.3510 h2        1 NC9      0.149500
     34 H22         2.9480    1.5560    1.6340 h4        1 NC9      0.195000
     35 HO2        -0.9460    1.9630   -0.4650 ho        1 NC9      0.239000
     36 H3          0.3980    2.5230    3.1450 hc        1 NC9      0.142000
     37 H1N3        5.2470   -0.2070    7.6890 hn        1 NC9      0.223500
     38 H2N3        6.0010    1.2630    7.9360 hn        1 NC9      0.223500
     39 H14         3.0560    1.0500    3.7870 hx        1 NC9      0.157500
     40 H24         1.6010    0.8680    4.8880 hx        1 NC9      0.157500
     41 H1N4        6.1770    9.5690    2.7510 hn        1 NC9      0.175500
     42 H2N4        7.4690    9.0520    1.8930 hn        1 NC9      0.175500
     43 H15         1.7230    4.4130    6.0010 hx        1 NC9      0.140000
     44 H25         0.5310    3.6330    4.8480 hx        1 NC9      0.140000
     45 H19         1.1070   -0.4250    2.4610 hc        1 NC9      0.123500
     46 H29        -0.0610    0.0900    3.7440 hc        1 NC9      0.123500
     47 H111       -1.4150    1.3470    1.9730 ha        1 NC9      0.125000
     48 H211        0.3970    4.3710    0.1700 h2        1 NC9      0.149500
     49 H14A       -1.9300   -0.1930    0.1930 ha        1 NC9      0.149000
     50 H20         1.8570    3.5520    8.3770 hc        1 NC9      0.134500
     51 H21A        1.1630    1.9210    8.7600 hc        1 NC9      0.134500
     52 H23        -1.8220    0.5800    6.4830 ha        1 NC9      0.173500
     53 H24A       -2.4380    2.2040    7.1570 ha        1 NC9      0.173500
     54 H25A        5.1850    4.9370    2.2880 hc        1 NC9      0.180000
     55 H26         3.8620    6.1430    2.4210 hc        1 NC9      0.180000
     56 H28         7.7060    7.0630    2.9950 h1        1 NC9      0.190000
     57 H29A        6.9680    8.2170    5.3060 ha        1 NC9      0.190000
     58 H130        5.4540    6.4890    6.2130 ha        1 NC9      0.164000
     59 H230        4.0750    4.5990    5.9510 ha        1 NC9      0.174000
     60 N2          2.4950    2.7670    4.8910 nx        1 NC9     -0.084000
     61 H212        3.1420    2.4300    5.6440 hn        1 NC9      0.291000
@<TRIPOS>BOND
     1    1   17 1   
     2    1   29 1   
     3    1   30 1   
     4    1   31 1   
     5    2    4 1   
     6    2   16 1   
     7    2   32 1   
     8    3   12 1   
     9    4    6 1   
    10    4   34 1   
    11    5   16 1   
    12    5   35 1   
    13    6    8 1   
    14    6   14 1   
    15    6   36 1   
    16    7   20 1   
    17    7   37 1   
    18    7   38 1   
    19    8   39 1   
    20    8   40 1   
    21    8   60 1   
    22    9   25 1   
    23    9   41 1   
    24    9   42 1   
    25   10   11 1   
    26   10   43 1   
    27   10   44 1   
    28   10   60 1   
    29   11   18 1   
    30   11   22 1   
    31   12   28 1   
    32   12   60 1   
    33   13   23 1   
    34   13   27 1   
    35   13   28 1   
    36   14   15 1   
    37   14   45 1   
    38   14   46 1   
    39   15   17 1   
    40   15   47 1   
    41   16   33 1   
    42   16   48 1   
    43   17   49 1   
    44   18   19 1   
    45   18   50 1   
    46   18   51 1   
    47   19   20 1   
    48   21   22 1   
    49   21   52 1   
    50   21   53 1   
    51   23   24 1   
    52   23   54 1   
    53   23   55 1   
    54   24   25 1   
    55   25   26 1   
    56   25   56 1   
    57   26   27 1   
    58   26   57 1   
    59   27   58 1   
    60   28   59 1   
    61   60   61 1   
@<TRIPOS>SUBSTRUCTURE
     1 NC9         1 TEMP              0 ****  ****    0 ROOT
