@<TRIPOS>MOLECULE
NC9
   60    56     1     0     0
SMALL
bcc


@<TRIPOS>ATOM
      1 C1         -1.7020   -2.6470   -4.2480 c3        1 NC9     -0.074000
      2 N1         -0.3540   -2.2200   -4.3390 n4        1 NC9     -0.038000
      3 O1         -1.6030    1.1600    0.5650 o         1 NC9     -0.379000
      4 C2          0.2660   -2.2150   -3.0540 c3        1 NC9     -0.125000
      5 N2         -0.1790   -0.5950    0.0570 n3        1 NC9     -0.342000
      6 O2         -3.7480    1.4310   -3.7500 oh        1 NC9     -0.314000
      7 C3          0.0620   -0.8820   -2.3610 c3        1 NC9     -0.155000
      8 N3          6.3730   -0.3880    0.6680 n3        1 NC9     -0.341000
      9 C4         -0.8530   -1.0790   -1.1510 c3        1 NC9     -0.016000
     10 N4         -1.7650    3.7120    6.6160 n3        1 NC9     -0.341000
     11 C5          1.1170   -1.1380    0.4280 c3        1 NC9      0.018000
     12 C6          2.2180   -0.1370    0.0540 c2        1 NC9     -0.183000
     13 C7         -0.8940    0.2700    0.9880 c1        1 NC9      0.311000
     14 C8         -1.4570    1.1670    3.2830 c1        1 NC9     -0.146000
     15 C9         -0.5690    0.1240   -3.3020 c3        1 NC9     -0.159000
     16 C10        -2.0500   -0.2060   -3.3430 c2        1 NC9     -0.055000
     17 C11        -3.0490    0.7440   -2.7230 c3        1 NC9     -0.010000
     18 C14        -2.5410   -1.3920   -4.1580 c2        1 NC9     -0.264000
     19 C20         2.8260    0.6460    1.0270 c2        1 NC9     -0.089000
     20 C21         4.2030    0.5870    1.2060 c1        1 NC9     -0.199000
     21 C22         4.9690   -0.2510    0.4140 c1        1 NC9      0.092500
     22 C23         4.3610   -1.0340   -0.5580 c1        1 NC9     -0.200500
     23 C24         2.9830   -0.9760   -0.7370 c1        1 NC9     -0.084000
     24 C25        -2.6320    1.2080    4.0170 c2        1 NC9     -0.058000
     25 C26        -2.7380    2.0550    5.1130 c1        1 NC9     -0.200000
     26 C27        -1.6660    2.8620    5.4730 c1        1 NC9      0.092500
     27 C28        -0.4930    2.8220    4.7410 c1        1 NC9     -0.200500
     28 C29        -0.3870    1.9740    3.6430 c1        1 NC9     -0.074000
     29 C30        -0.8460   -0.0230    2.5050 c1        1 NC9     -0.118000
     30 H11        -1.7580   -3.3400   -3.5570 hx        1 NC9      0.142000
     31 H21        -2.0170   -3.1430   -5.0370 hx        1 NC9      0.142000
     32 H1N1        0.1080   -2.7900   -4.8950 hn        1 NC9      0.245500
     33 H2N1       -0.3290   -1.3720   -4.6900 hn        1 NC9      0.245500
     34 H12        -0.1240   -2.9240   -2.5070 hx        1 NC9      0.138500
     35 H22         1.2240   -2.3790   -3.1590 hx        1 NC9      0.138500
     36 HO2        -4.2200    2.1040   -3.3930 ho        1 NC9      0.212000
     37 H3          0.9220   -0.5440   -2.0610 hc        1 NC9      0.155000
     38 H1N3        6.7440    0.0070    1.3990 hn        1 NC9      0.203750
     39 H2N3        6.8910   -0.9130    0.1170 hn        1 NC9      0.203750
     40 H14        -1.0590   -2.0260   -1.0500 h1        1 NC9      0.102000
     41 H24        -1.6860   -0.5740   -1.2850 h1        1 NC9      0.102000
     42 H1N4       -2.5330    3.7110    7.1260 hn        1 NC9      0.203750
     43 H2N4       -1.0670    4.2520    6.8440 hn        1 NC9      0.203750
     44 H15         1.2650   -1.9760   -0.0460 h1        1 NC9      0.104000
     45 H25         1.1380   -1.3020    1.3970 h1        1 NC9      0.104000
     46 H19        -0.2800    1.0330   -3.0830 hc        1 NC9      0.123000
     47 H29        -0.2310    0.0390   -4.2130 hc        1 NC9      0.123000
     48 H111       -2.5780    1.3910   -2.1610 h1        1 NC9      0.130000
     49 H211       -3.6850    0.2390   -2.1780 h1        1 NC9      0.130000
     50 H14A       -3.4320   -1.3660   -4.5730 ha        1 NC9      0.185000
     51 H20         2.2860    1.2380    1.5850 ha        1 NC9      0.132000
     52 H21A        4.6300    1.1370    1.8890 ha        1 NC9      0.142000
     53 H23         4.9030   -1.6270   -1.1180 ha        1 NC9      0.140000
     54 H24A        2.5570   -1.5250   -1.4200 ha        1 NC9      0.133000
     55 H25A       -3.3820    0.6430    3.7650 ha        1 NC9      0.131000
     56 H26        -3.5670    2.0830    5.6310 ha        1 NC9      0.139000
     57 H28         0.2590    3.3880    4.9930 ha        1 NC9      0.140000
     58 H29A        0.4400    1.9460    3.1270 ha        1 NC9      0.121000
     59 H130        0.0880   -0.1530    2.7840 ha        1 NC9      0.117000
     60 H230       -1.3580   -0.8340    2.6960 ha        1 NC9      0.117000
@<TRIPOS>BOND
     1    1    2 1   
     2    1   18 1   
     3    1   30 1   
     4    1   31 1   
     5    2    4 1   
     6    2   32 1   
     7    2   33 1   
     8    3   13 1   
     9    4    7 1   
    10    4   34 1   
    11    4   35 1   
    12    5    9 1   
    13    5   11 1   
    14    5   13 1   
    15    6   17 1   
    16    6   36 1   
    17    7    9 1   
    18    7   15 1   
    19    7   37 1   
    20    8   21 1   
    21    8   38 1   
    22    8   39 1   
    23    9   40 1   
    24    9   41 1   
    25   10   26 1   
    26   10   42 1   
    27   10   43 1   
    28   11   12 1   
    29   11   44 1   
    30   11   45 1   
    31   12   19 1   
    32   12   23 1   
    33   14   24 1   
    34   14   28 1   
    35   15   16 1   
    36   15   46 1   
    37   15   47 1   
    38   16   17 1   
    39   16   18 1   
    40   17   48 1   
    41   17   49 1   
    42   18   50 1   
    43   19   20 1   
    44   19   51 1   
    45   20   52 1   
    46   21   22 1   
    47   22   53 1   
    48   23   54 1   
    49   24   25 1   
    50   24   55 1   
    51   25   56 1   
    52   26   27 1   
    53   27   57 1   
    54   28   58 1   
    55   29   59 1   
    56   29   60 1   
@<TRIPOS>SUBSTRUCTURE
     1 NC9         1 TEMP              0 ****  ****    0 ROOT
