@<TRIPOS>MOLECULE
NC9
   61    63     1     0     0
SMALL
bcc


@<TRIPOS>ATOM
      1 C1          1.0490   -0.1150   -0.2700 c3        1 NC9      0.153000
      2 N1          2.1880    0.5770    0.4210 n4        1 NC9     -0.759000
      3 O1          3.3800    2.9780    3.3060 o         1 NC9     -0.706300
      4 C2          2.0360    0.6630    1.9000 c3        1 NC9      0.094800
      5 O2         -2.3700    2.2510   -1.0140 oh        1 NC9     -0.564800
      6 C3          0.9460    1.6350    2.3720 c3        1 NC9     -0.075700
      7 N3          3.1530    1.8730   10.0850 n3        1 NC9     -0.911800
      8 C4          1.1010    1.7690    3.9000 c3        1 NC9      0.119800
      9 N4          7.1570    8.5160    3.1600 nh        1 NC9     -0.405100
     10 C5          1.2200    3.2180    5.8830 c3        1 NC9      0.199000
     11 C6          1.8950    2.0950    6.5650 ce        1 NC9     -0.222300
     12 C7          2.6190    3.8040    3.8600 c2        1 NC9      0.540300
     13 C8          3.8730    5.9370    3.7740 ce        1 NC9      0.013000
     14 C9         -0.4550    1.1460    2.0320 c3        1 NC9     -0.080200
     15 C10        -0.8230    1.3060    0.5980 c2        1 NC9     -0.094400
     16 C11        -2.0930    2.0740    0.3550 c3        1 NC9      0.154600
     17 C14        -0.1490    0.7490   -0.4190 c2        1 NC9     -0.235200
     18 C20         3.3630    1.9870    6.6160 ce        1 NC9     -0.155000
     19 C21         3.9110    1.5640    7.7750 c2        1 NC9     -0.119200
     20 C22         3.1220    0.9930    8.9560 c3        1 NC9      0.240900
     21 C23         1.7630    0.4920    8.4220 c2        1 NC9     -0.205300
     22 C24         1.3410    1.2380    7.4250 c1        1 NC9      0.020200
     23 C25         3.7990    7.3600    4.0280 ce        1 NC9      0.078000
     24 C26         4.8560    8.1970    3.8240 cf        1 NC9     -0.362600
     25 C27         6.1160    7.7030    3.3420 cf        1 NC9      0.445600
     26 C28         6.2470    6.2380    3.0420 c3        1 NC9     -0.152500
     27 C29         5.0440    5.4280    3.2970 c2        1 NC9     -0.177200
     28 C30         2.7010    5.1670    4.0730 ce        1 NC9     -0.430000
     29 H11         1.8190   -0.3730    2.2880 hx        1 NC9      0.124700
     30 H21         1.4230   -0.4340   -1.2880 hx        1 NC9      0.114200
     31 H1N1        0.7940   -1.0430    0.3230 hx        1 NC9      0.114200
     32 H2N1        2.2800    1.5260    0.0380 hn        1 NC9      0.456800
     33 H12         3.0540    0.0610    0.2200 hn        1 NC9      0.456800
     34 H22         3.0320    1.0180    2.3170 hx        1 NC9      0.124700
     35 HO2        -1.8850    3.0290   -1.3190 ho        1 NC9      0.409000
     36 H3          1.1170    2.6340    1.8760 hc        1 NC9      0.083700
     37 H1N3        2.8090    1.4310   10.9130 hn        1 NC9      0.380300
     38 H2N3        2.6770    2.7340    9.9150 hn        1 NC9      0.380300
     39 H14         1.9980    1.1820    4.2610 hx        1 NC9      0.112200
     40 H24         0.1890    1.3490    4.4170 hx        1 NC9      0.112200
     41 H1N4        7.0890    9.4940    3.3570 hn        1 NC9      0.322700
     42 H2N4        8.0340    8.1720    2.8290 hn        1 NC9      0.322700
     43 H15         1.6980    4.1940    6.1960 hx        1 NC9      0.103700
     44 H25         0.1270    3.2350    6.1680 hx        1 NC9      0.103700
     45 H19        -1.1950    1.7090    2.6670 hc        1 NC9      0.082200
     46 H29        -0.5540    0.0590    2.3110 hc        1 NC9      0.082200
     47 H111       -2.0530    3.0570    0.8980 h1        1 NC9      0.077700
     48 H211       -2.9600    1.4660    0.7470 h1        1 NC9      0.077700
     49 H14A       -0.5190    0.8600   -1.4570 ha        1 NC9      0.193000
     50 H20         3.9490    2.3390    5.7560 ha        1 NC9      0.150000
     51 H21A        4.9970    1.6210    7.9530 ha        1 NC9      0.165000
     52 H23         3.6470    0.0280    9.2540 h1        1 NC9      0.107700
     53 H24A        1.3560   -0.4550    8.7870 ha        1 NC9      0.181000
     54 H25A        2.8430    7.7730    4.4030 ha        1 NC9      0.170000
     55 H26         4.7500    9.2760    4.0360 ha        1 NC9      0.177000
     56 H28         6.5430    6.1120    1.9550 hc        1 NC9      0.127200
     57 H29A        7.0980    5.8100    3.6570 hc        1 NC9      0.127200
     58 H130        5.1490    4.3480    3.0890 ha        1 NC9      0.181000
     59 H230        1.8620    5.7180    4.5200 ha        1 NC9      0.137000
     60 N2          1.2920    3.1620    4.3800 n4        1 NC9     -0.588200
     61 H212        0.5310    3.7420    4.0190 hn        1 NC9      0.424800
@<TRIPOS>BOND
     1    1    2 1   
     2    1   17 1   
     3    1   30 1   
     4    1   31 1   
     5    2    4 1   
     6    2   32 1   
     7    2   33 1   
     8    3   12 1   
     9    4    6 1   
    10    4   29 1   
    11    4   34 1   
    12    5   16 1   
    13    5   35 1   
    14    6    8 1   
    15    6   14 1   
    16    6   36 1   
    17    7   20 1   
    18    7   37 1   
    19    7   38 1   
    20    8   39 1   
    21    8   40 1   
    22    8   60 1   
    23    9   25 2   
    24    9   41 1   
    25    9   42 1   
    26   10   11 1   
    27   10   43 1   
    28   10   44 1   
    29   10   60 1   
    30   11   18 1   
    31   11   22 2   
    32   12   28 2   
    33   12   60 1   
    34   13   23 1   
    35   13   27 2   
    36   13   28 1   
    37   14   15 1   
    38   14   45 1   
    39   14   46 1   
    40   15   16 1   
    41   15   17 2   
    42   16   47 1   
    43   16   48 1   
    44   17   49 1   
    45   18   19 2   
    46   18   50 1   
    47   19   20 1   
    48   19   51 1   
    49   20   21 1   
    50   20   52 1   
    51   21   22 2   
    52   21   53 1   
    53   23   24 2   
    54   23   54 1   
    55   24   25 1   
    56   24   55 1   
    57   25   26 1   
    58   26   27 1   
    59   26   56 1   
    60   26   57 1   
    61   27   58 1   
    62   28   59 1   
    63   60   61 1   
@<TRIPOS>SUBSTRUCTURE
     1 NC9         1 TEMP              0 ****  ****    0 ROOT
