@<TRIPOS>MOLECULE
NC9
   63    64     1     0     0
SMALL
bcc


@<TRIPOS>ATOM
      1 C1         -0.4550    0.2760   -0.0010 c3        1 NC9     -0.097000
      2 N1          1.0470    0.2380   -0.0790 n4        1 NC9     -0.033000
      3 O1          2.3320    4.1780    3.1450 o         1 NC9     -0.161000
      4 C2          1.7230    0.1550    1.2420 c3        1 NC9     -0.138000
      5 O2         -2.2110    3.9990    0.8370 oh        1 NC9     -0.279000
      6 C3          1.6960    1.4460    2.0900 c3        1 NC9     -0.120000
      7 N3          1.0310    1.2340   11.4480 n4        1 NC9      0.090000
      8 C4          2.6630    1.1590    3.2590 c3        1 NC9     -0.128000
      9 N4          6.6330    9.1560    2.5670 n4        1 NC9     -0.050000
     10 C5          1.8610    2.3300    5.3340 c3        1 NC9     -0.081000
     11 C6          2.3200    2.0710    6.7450 c2        1 NC9     -0.129000
     12 C7          3.2650    3.5830    3.6580 c2        1 NC9      0.262000
     13 C8          5.0260    5.3400    3.1830 c2        1 NC9     -0.034000
     14 C9          0.2870    1.7810    2.5560 c3        1 NC9     -0.153000
     15 C10        -0.6320    2.2830    1.4940 c2        1 NC9     -0.117000
     16 C11        -1.2870    3.6030    1.8180 c3        1 NC9      0.009000
     17 C14        -0.9710    1.6100    0.3870 c2        1 NC9     -0.197000
     18 C20         1.4800    2.7770    7.7660 c3        1 NC9     -0.027000
     19 C21         1.3860    2.1490    9.0550 c1        1 NC9      0.074000
     20 C22         1.2300    1.7150   10.1600 c1        1 NC9     -0.254000
     21 C23         4.2990    0.5160    7.4180 c2        1 NC9     -0.078000
     22 C24         3.3250    1.2880    7.0420 c1        1 NC9     -0.201000
     23 C25         4.1880    6.4300    3.2170 c2        1 NC9     -0.147000
     24 C26         4.7500    7.6990    3.0190 c1        1 NC9     -0.019000
     25 C27         5.9250    7.8900    2.1620 c3        1 NC9     -0.097000
     26 C28         6.8130    6.6750    2.1430 c2        1 NC9     -0.140000
     27 C29         6.3610    5.4980    2.6270 c2        1 NC9     -0.117000
     28 C30         4.7070    4.0100    3.7760 c3        1 NC9     -0.149000
     29 H11         1.2310   -0.6810    1.8240 hx        1 NC9      0.153000
     30 H21        -0.8430   -0.0060   -1.0300 hx        1 NC9      0.173500
     31 H1N1       -0.7950   -0.5160    0.7310 hx        1 NC9      0.173500
     32 H2N1        1.3700    1.0730   -0.5840 hn        1 NC9      0.266500
     33 H12         1.3180   -0.5950   -0.6250 hn        1 NC9      0.266500
     34 H22         2.7980   -0.1360    1.0410 hx        1 NC9      0.153000
     35 HO2        -1.7500    4.5280    0.1730 ho        1 NC9      0.219000
     36 H3          2.0940    2.3100    1.4860 hc        1 NC9      0.130000
     37 H1N3        0.7940    0.2260   11.4190 hn        1 NC9      0.294000
     38 H2N3        1.8890    1.3670   12.0130 hn        1 NC9      0.294000
     39 H14         3.6700    0.8990    2.8120 hx        1 NC9      0.151500
     40 H24         2.2800    0.2560    3.8250 hx        1 NC9      0.151500
     41 H1N4        7.2480    9.4800    1.8120 hn        1 NC9      0.275000
     42 H2N4        5.9250    9.8780    2.7780 hn        1 NC9      0.275000
     43 H15         1.4090    3.3650    5.2640 hx        1 NC9      0.159500
     44 H25         1.0500    1.5780    5.0920 hx        1 NC9      0.159500
     45 H19        -0.1800    0.8740    3.0320 hc        1 NC9      0.112500
     46 H29         0.3580    2.5820    3.3450 hc        1 NC9      0.112500
     47 H111       -1.9030    3.4750    2.7560 h1        1 NC9      0.108500
     48 H211       -0.4950    4.3800    1.9890 h1        1 NC9      0.108500
     49 H14A       -1.7450    2.0250   -0.2950 ha        1 NC9      0.216000
     50 H20         1.8970    3.8200    7.9180 hc        1 NC9      0.153000
     51 H21A        0.4230    2.8930    7.3750 hc        1 NC9      0.153000
     52 H23         5.3280    0.8840    7.5880 ha        1 NC9      0.188000
     53 H24A        4.1600   -0.5680    7.5950 ha        1 NC9      0.188000
     54 H25A        4.9850    4.0460    4.8730 hc        1 NC9      0.166000
     55 H26         3.1290    6.3720    3.5260 ha        1 NC9      0.194000
     56 H28         5.5530    8.0550    1.0860 hx        1 NC9      0.222000
     57 H29A        7.7860    6.7550    1.6250 ha        1 NC9      0.198000
     58 H130        7.0100    4.6040    2.5740 ha        1 NC9      0.182000
     59 H230        5.3510    3.2190    3.2890 hc        1 NC9      0.166000
     60 N2          2.9410    2.2210    4.2840 n4        1 NC9     -0.080000
     61 H33         0.2490    1.7520   11.8930 hn        1 NC9      0.294000
     62 H43         7.1950    8.9960    3.4110 hn        1 NC9      0.275000
     63 H212        3.7960    1.9040    4.7740 hn        1 NC9      0.260000
@<TRIPOS>BOND
     1    1    2 1   
     2    1   17 1   
     3    1   30 1   
     4    1   31 1   
     5    2    4 1   
     6    2   32 1   
     7    2   33 1   
     8    3   12 1   
     9    4    6 1   
    10    4   29 1   
    11    4   34 1   
    12    5   16 1   
    13    5   35 1   
    14    6    8 1   
    15    6   14 1   
    16    6   36 1   
    17    7   20 1   
    18    7   37 1   
    19    7   38 1   
    20    7   61 1   
    21    8   39 1   
    22    8   40 1   
    23    8   60 1   
    24    9   25 1   
    25    9   41 1   
    26    9   42 1   
    27    9   62 1   
    28   10   11 1   
    29   10   43 1   
    30   10   44 1   
    31   10   60 1   
    32   11   18 1   
    33   11   22 1   
    34   12   28 1   
    35   12   60 1   
    36   13   23 1   
    37   13   27 1   
    38   13   28 1   
    39   14   15 1   
    40   14   45 1   
    41   14   46 1   
    42   15   16 1   
    43   15   17 1   
    44   16   47 1   
    45   16   48 1   
    46   17   49 1   
    47   18   19 1   
    48   18   50 1   
    49   18   51 1   
    50   19   20 1   
    51   21   22 1   
    52   21   52 1   
    53   21   53 1   
    54   23   24 1   
    55   23   55 1   
    56   24   25 1   
    57   25   26 1   
    58   25   56 1   
    59   26   27 1   
    60   26   57 1   
    61   27   58 1   
    62   28   54 1   
    63   28   59 1   
    64   60   63 1   
@<TRIPOS>SUBSTRUCTURE
     1 NC9         1 TEMP              0 ****  ****    0 ROOT
