@<TRIPOS>MOLECULE
NCA
   16    16     1     0     0
SMALL
bcc


@<TRIPOS>ATOM
      1 N1         -0.0500    0.0080   -0.0440 nb        1 NCA     -0.638000
      2 C2          1.2890   -0.0020    0.0040 ca        1 NCA      0.453200
      3 C3          2.0210    0.0110    1.2170 ca        1 NCA     -0.339900
      4 C4          1.2960    0.0350    2.4310 ca        1 NCA      0.004000
      5 C5         -0.0940    0.0460    2.3830 ca        1 NCA     -0.238300
      6 C6         -0.7280    0.0320    1.1240 ca        1 NCA      0.484200
      7 C7          3.4680   -0.0000    1.3060 c         1 NCA      0.584700
      8 O7          4.1890    0.0080    2.2920 o         1 NCA     -0.411100
      9 N7          4.2410   -0.0250   -0.0070 nz        1 NCA     -0.763400
     10 H2          1.7760   -0.0220   -0.9890 h4        1 NCA      0.017100
     11 H4          1.8330    0.0460    3.3960 ha        1 NCA      0.182000
     12 H5         -0.6920    0.0650    3.3080 ha        1 NCA      0.188000
     13 H6         -1.8350    0.0400    1.0350 h4        1 NCA      0.067100
     14 HN71        3.9980   -0.8650   -0.5400 hn        1 NCA      0.470133
     15 HN72        5.2510   -0.0300    0.1880 hn        1 NCA      0.470133
     16 H73         4.0110    0.8020   -0.5640 hn        1 NCA      0.470133
@<TRIPOS>BOND
     1    1    2 ar  
     2    1    6 ar  
     3    2    3 ar  
     4    2   10 1   
     5    3    4 ar  
     6    3    7 1   
     7    4    5 ar  
     8    4   11 1   
     9    5    6 ar  
    10    5   12 1   
    11    6   13 1   
    12    7    8 2   
    13    7    9 1   
    14    9   14 1   
    15    9   15 1   
    16    9   16 1   
@<TRIPOS>SUBSTRUCTURE
     1 NCA         1 TEMP              0 ****  ****    0 ROOT
