@<TRIPOS>MOLECULE
NCA
   15    15     1     0     0
SMALL
bcc


@<TRIPOS>ATOM
      1 N1          1.2430    0.1810   -1.8810 nb        1 NCA     -0.669000
      2 C2          1.1880    0.2430   -0.5370 ca        1 NCA      0.420200
      3 C3         -0.0100    0.1140    0.1950 ca        1 NCA     -0.259900
      4 C4         -1.2070   -0.0700   -0.5130 ca        1 NCA     -0.040000
      5 C5         -1.1620   -0.1380   -1.9050 ca        1 NCA     -0.254300
      6 C6          0.0860   -0.0110   -2.5430 ca        1 NCA      0.413200
      7 C7         -0.0620    0.1950    1.6780 c         1 NCA      0.675700
      8 O7         -1.0700    0.6300    2.2750 o         1 NCA     -0.608100
      9 N7          1.0280   -0.2300    2.3970 n         1 NCA     -0.672000
     10 H2          2.1570    0.4230   -0.0360 h4        1 NCA      0.023100
     11 H4         -2.1590   -0.1470    0.0370 ha        1 NCA      0.164000
     12 H5         -2.0770   -0.2820   -2.4940 ha        1 NCA      0.151000
     13 H6          0.1670   -0.0610   -3.6440 h4        1 NCA      0.027100
     14 HN71        0.9950   -0.2030    3.3860 hn        1 NCA      0.314500
     15 HN72        1.8050   -0.6450    1.9550 hn        1 NCA      0.314500
@<TRIPOS>BOND
     1    1    2 ar  
     2    1    6 ar  
     3    2    3 ar  
     4    2   10 1   
     5    3    4 ar  
     6    3    7 1   
     7    4    5 ar  
     8    4   11 1   
     9    5    6 ar  
    10    5   12 1   
    11    6   13 1   
    12    7    8 2   
    13    7    9 1   
    14    9   14 1   
    15    9   15 1   
@<TRIPOS>SUBSTRUCTURE
     1 NCA         1 TEMP              0 ****  ****    0 ROOT
