@<TRIPOS>MOLECULE
NCB
   16    15     1     0     0
SMALL
bcc


@<TRIPOS>ATOM
      1 N          -0.5220   -0.0280   -0.2440 n         1 NCB     -0.478900
      2 CA          0.8730   -0.1470   -0.0090 c3        1 NCB     -0.070300
      3 C           1.1210   -0.3290    1.4720 c         1 NCB      0.900600
      4 O           0.3690   -1.0790    2.1490 o         1 NCB     -0.836800
      5 OXT         2.0810    0.2670    2.0270 o         1 NCB     -0.836800
      6 CB          1.4110   -1.3450   -0.7600 c3        1 NCB     -0.068100
      7 O3         -0.5150    2.2050    0.2320 o         1 NCB     -0.670100
      8 C3         -1.1610    1.2300   -0.0980 c         1 NCB      0.717100
      9 N2         -2.5530    1.3520   -0.3450 n         1 NCB     -0.653000
     10 H          -1.0070   -0.7590   -0.4940 hn        1 NCB      0.294500
     11 HA          1.3260    0.6620   -0.3180 h1        1 NCB      0.069700
     12 HB3         2.3640   -1.4540   -0.5620 hc        1 NCB      0.026033
     13 HB2         1.2900   -1.2070   -1.7230 hc        1 NCB      0.026033
     14 HB1         0.9250   -2.1500   -0.4820 hc        1 NCB      0.026033
     15 H22        -3.0380    0.6190   -0.5960 hn        1 NCB      0.277000
     16 H21        -2.9650    2.1630   -0.2500 hn        1 NCB      0.277000
@<TRIPOS>BOND
     1    1    2 1   
     2    1    8 1   
     3    1   10 1   
     4    2    3 1   
     5    2    6 1   
     6    2   11 1   
     7    3    4 1   
     8    3    5 1   
     9    6   12 1   
    10    6   13 1   
    11    6   14 1   
    12    7    8 2   
    13    8    9 1   
    14    9   15 1   
    15    9   16 1   
@<TRIPOS>SUBSTRUCTURE
     1 NCB         1 TEMP              0 ****  ****    0 ROOT
