@<TRIPOS>MOLECULE
NCB
   16    15     1     0     0
SMALL
bcc


@<TRIPOS>ATOM
      1 N           0.0680   -0.7270   -0.8490 n         1 NCB     -0.478900
      2 CA          0.6610   -0.1170    0.3390 c3        1 NCB     -0.070300
      3 C          -0.4090    0.1850    1.4490 c         1 NCB      0.900600
      4 O          -1.5940   -0.2170    1.2650 o         1 NCB     -0.836800
      5 OXT        -0.0110    0.8230    2.4590 o         1 NCB     -0.836800
      6 CB          1.7400   -1.0070    0.9450 c3        1 NCB     -0.068100
      7 O3          0.8200    0.9020   -2.3520 o         1 NCB     -0.670100
      8 C3         -0.0600    0.0750   -1.9950 c         1 NCB      0.717100
      9 N2         -1.1370   -0.1570   -2.8900 n         1 NCB     -0.653000
     10 H          -0.7700   -1.2240   -0.5930 hn        1 NCB      0.294500
     11 HA          1.1330    0.8670    0.0540 h1        1 NCB      0.069700
     12 HB3         1.3350   -2.0140    1.2020 hc        1 NCB      0.026033
     13 HB2         2.6000   -1.1360    0.2460 hc        1 NCB      0.026033
     14 HB1         2.0950   -0.5150    1.8830 hc        1 NCB      0.026033
     15 H22        -1.2120    0.5350   -3.5990 hn        1 NCB      0.277000
     16 H21        -2.0020   -0.4260   -2.4850 hn        1 NCB      0.277000
@<TRIPOS>BOND
     1    1    2 1   
     2    1    8 1   
     3    1   10 1   
     4    2    3 1   
     5    2    6 1   
     6    2   11 1   
     7    3    4 1   
     8    3    5 1   
     9    6   12 1   
    10    6   13 1   
    11    6   14 1   
    12    7    8 2   
    13    8    9 1   
    14    9   15 1   
    15    9   16 1   
@<TRIPOS>SUBSTRUCTURE
     1 NCB         1 TEMP              0 ****  ****    0 ROOT
