@<TRIPOS>MOLECULE
NCD
   18    17     1     0     0
SMALL
bcc


@<TRIPOS>ATOM
      1 C6         -0.1690    0.0350   -0.4190 c3        1 NCD     -0.026300
      2 C61        -1.6750   -0.0060   -0.2910 c         1 NCD      0.910600
      3 O61        -2.3880    0.7640   -0.9870 o         1 NCD     -0.864300
      4 O62        -2.2170   -0.8160    0.5070 o         1 NCD     -0.864300
      5 N1          0.4160    0.0570    0.8750 n         1 NCD     -0.482900
      6 C2          0.5470    1.2850    1.5740 c         1 NCD      0.725100
      7 O2          0.1440    2.3150    1.0720 o         1 NCD     -0.750100
      8 N3          1.1550    1.3100    2.8560 n         1 NCD     -0.641000
      9 C5          0.3070   -1.1900   -1.1670 c3        1 NCD     -0.198400
     10 C4         -0.1570   -1.1150   -2.6050 c         1 NCD      0.900600
     11 O4         -1.1910   -1.7360   -2.9660 o         1 NCD     -0.879300
     12 O5          0.4940   -0.4370   -3.4420 o         1 NCD     -0.879300
     13 H61         0.0940    0.8390   -0.9090 h1        1 NCD      0.062700
     14 H11         0.7170   -0.7170    1.2520 hn        1 NCD      0.321500
     15 H31         1.2400    2.1010    3.3060 hn        1 NCD      0.294500
     16 H32         1.4600    0.5350    3.2320 hn        1 NCD      0.294500
     17 H51        -0.0620   -1.9930   -0.7470 hc        1 NCD      0.037700
     18 H52         1.2840   -1.2290   -1.1410 hc        1 NCD      0.037700
@<TRIPOS>BOND
     1    1    2 1   
     2    1    5 1   
     3    1    9 1   
     4    1   13 1   
     5    2    3 1   
     6    2    4 1   
     7    5    6 1   
     8    5   14 1   
     9    6    7 2   
    10    6    8 1   
    11    8   15 1   
    12    8   16 1   
    13    9   10 1   
    14    9   17 1   
    15    9   18 1   
    16   10   11 1   
    17   10   12 1   
@<TRIPOS>SUBSTRUCTURE
     1 NCD         1 TEMP              0 ****  ****    0 ROOT
