@<TRIPOS>MOLECULE
NCD
   18    17     1     0     0
SMALL
bcc


@<TRIPOS>ATOM
      1 C6         -0.7480   -0.2250   -0.3540 c3        1 NCD     -0.030300
      2 C61        -2.1460    0.0980   -0.9850 c         1 NCD      0.922600
      3 O61        -2.4790    1.3000   -1.1860 o         1 NCD     -0.862300
      4 O62        -2.9040   -0.8850   -1.2340 o         1 NCD     -0.862300
      5 N1          0.3210    0.4080   -1.1190 n         1 NCD     -0.451900
      6 C2          1.5650   -0.2600   -1.1570 c         1 NCD      0.718100
      7 O2          1.6730   -1.4710   -1.4900 o         1 NCD     -0.692100
      8 N3          2.7710    0.4870   -0.9940 n         1 NCD     -0.637000
      9 C5         -0.7970    0.2210    1.1160 c3        1 NCD     -0.202400
     10 C4          0.5410    0.3470    1.8390 c         1 NCD      0.901600
     11 O4          1.4040    1.1940    1.4330 o         1 NCD     -0.888800
     12 O5          0.7520   -0.3550    2.8740 o         1 NCD     -0.888800
     13 H61        -0.6010   -1.3420   -0.4030 h1        1 NCD      0.063700
     14 H11         0.3950    1.3750   -0.8560 hn        1 NCD      0.284500
     15 H31         3.5460   -0.1220   -0.8470 hn        1 NCD      0.273000
     16 H32         2.6980    1.1760   -0.2650 hn        1 NCD      0.273000
     17 H51        -1.2940    1.2260    1.1610 hc        1 NCD      0.040200
     18 H52        -1.4410   -0.5110    1.6670 hc        1 NCD      0.040200
@<TRIPOS>BOND
     1    1    2 1   
     2    1    5 1   
     3    1    9 1   
     4    1   13 1   
     5    2    3 1   
     6    2    4 1   
     7    5    6 1   
     8    5   14 1   
     9    6    7 2   
    10    6    8 1   
    11    8   15 1   
    12    8   16 1   
    13    9   10 1   
    14    9   17 1   
    15    9   18 1   
    16   10   11 1   
    17   10   12 1   
@<TRIPOS>SUBSTRUCTURE
     1 NCD         1 TEMP              0 ****  ****    0 ROOT
