@<TRIPOS>MOLECULE
NCE
   71    75     1     0     0
SMALL
bcc


@<TRIPOS>ATOM
      1 C75        -2.4490    0.1610    1.0400 c3        1 NCE      0.138800
      2 C72        -1.9550   -0.8720    0.0170 c3        1 NCE      0.125150
      3 O32        -0.5660   -1.1240    0.1700 os        1 NCE     -0.393100
      4 C66         0.2100    0.0590    0.0370 c3        1 NCE      0.125150
      5 C63        -0.2150    1.1240    1.0580 c3        1 NCE      0.138800
      6 N61        -1.6500    1.3800    1.0260 n3        1 NCE     -0.751600
      7 C58        -2.0860    2.3650    1.9900 c3        1 NCE      0.195800
      8 C55        -2.8810    3.4840    1.2760 c3        1 NCE     -0.170400
      9 C54        -3.2970    4.5160    2.2690 c         1 NCE      0.564100
     10 O84        -3.0650    4.6170    3.4590 o         1 NCE     -0.395100
     11 N52        -4.1440    5.6690    1.6910 n4        1 NCE     -0.569200
     12 C51        -5.5800    5.3890    1.7870 ca        1 NCE     -0.019400
     13 C85        -6.2740    5.7290    2.9240 ca        1 NCE     -0.105800
     14 C49        -6.2280    4.7670    0.6650 ca        1 NCE     -0.141000
     15 C47        -7.5660    4.5090    0.7190 ca        1 NCE     -0.050000
     16 C2         -8.3390    4.8440    1.8740 ca        1 NCE     -0.134800
     17 C45        -9.7150    4.5920    1.9510 ca        1 NCE     -0.027000
     18 C87        -7.6940    5.4640    3.0020 ca        1 NCE      0.421600
     19 N1         -8.3620    5.8110    4.1290 nb        1 NCE     -0.617000
     20 C3         -9.6930    5.5620    4.1890 ca        1 NCE      0.421600
     21 C4        -10.4160    5.9270    5.3880 ca        1 NCE     -0.105800
     22 C44       -10.4190    4.9470    3.1100 ca        1 NCE     -0.134800
     23 C42       -11.8240    4.7170    3.2490 ca        1 NCE     -0.050000
     24 C40       -12.4880    5.0670    4.3870 ca        1 NCE     -0.141000
     25 C6        -11.7660    5.6780    5.4700 ca        1 NCE     -0.019400
     26 N7        -12.5070    6.0250    6.6880 n4        1 NCE     -0.569200
     27 C9        -12.7030    7.5420    6.8590 c         1 NCE      0.564100
     28 O39       -11.6760    8.1880    6.9490 o         1 NCE     -0.395100
     29 C10       -14.1250    7.9980    6.9260 c3        1 NCE     -0.170400
     30 C13       -14.7780    7.9790    5.5300 c3        1 NCE      0.195800
     31 N16       -16.1410    8.4520    5.6020 n3        1 NCE     -0.751600
     32 C36       -16.5010    9.3660    4.5240 c3        1 NCE      0.138800
     33 C33       -17.9650    9.8200    4.6060 c3        1 NCE      0.125150
     34 O12       -18.8420    8.7070    4.7090 os        1 NCE     -0.393100
     35 C27       -18.5590    7.9150    5.8530 c3        1 NCE      0.125150
     36 C18       -17.1150    7.3900    5.8150 c3        1 NCE      0.138800
     37 H75        -3.5090    0.4400    0.7870 h1        1 NCE      0.042825
     38 H75A       -2.4460   -0.3210    2.0610 h1        1 NCE      0.042825
     39 H72        -2.1680   -0.5270   -1.0290 h1        1 NCE      0.070200
     40 H72A       -2.4450   -1.8630    0.2060 h1        1 NCE      0.070200
     41 H66         0.1250    0.4550   -1.0090 h1        1 NCE      0.070200
     42 H66A        1.2630   -0.2710    0.2430 h1        1 NCE      0.070200
     43 H63         0.3160    2.0850    0.8130 h1        1 NCE      0.042825
     44 H63A        0.1170    0.7870    2.0830 h1        1 NCE      0.042825
     45 H58        -2.7530    1.9250    2.7870 h1        1 NCE      0.049450
     46 H58A       -1.2090    2.8450    2.5110 h1        1 NCE      0.049450
     47 H55        -3.7910    3.0520    0.7740 hc        1 NCE      0.119200
     48 H55A       -2.2370    3.9590    0.4840 hc        1 NCE      0.119200
     49 HN52       -3.9360    6.5310    2.2150 hn        1 NCE      0.466050
     50 H85        -5.7870    6.2040    3.7970 ha        1 NCE      0.190000
     51 H49        -5.6480    4.5060   -0.2360 ha        1 NCE      0.165500
     52 H47        -8.0790    4.0350   -0.1370 ha        1 NCE      0.178000
     53 H45       -10.2420    4.1190    1.1050 ha        1 NCE      0.176000
     54 H4         -9.8540    6.4150    6.2080 ha        1 NCE      0.190000
     55 H42       -12.3640    4.2450    2.4090 ha        1 NCE      0.178000
     56 H40       -13.5720    4.8810    4.4760 ha        1 NCE      0.165500
     57 HN7       -13.4260    5.5680    6.6630 hn        1 NCE      0.466050
     58 H10       -14.7110    7.3690    7.6500 hc        1 NCE      0.119200
     59 H10A      -14.1180    9.0540    7.3260 hc        1 NCE      0.119200
     60 H13       -14.1720    8.6480    4.8540 h1        1 NCE      0.049450
     61 H13A      -14.7090    6.9260    5.1220 h1        1 NCE      0.049450
     62 H36       -15.8410   10.2740    4.6060 h1        1 NCE      0.042825
     63 H36A      -16.3300    8.8920    3.5150 h1        1 NCE      0.042825
     64 H33       -18.2620   10.3260    3.6500 h1        1 NCE      0.070200
     65 H33A      -18.1180   10.5110    5.4760 h1        1 NCE      0.070200
     66 H27       -19.2800    7.0580    5.7920 h1        1 NCE      0.070200
     67 H27A      -18.7390    8.5090    6.7870 h1        1 NCE      0.070200
     68 H18       -17.0450    6.6020    5.0090 h1        1 NCE      0.042825
     69 H18A      -16.8860    6.9030    6.8030 h1        1 NCE      0.042825
     70 H522       -3.8960    5.8110    0.7050 hn        1 NCE      0.466050
     71 H721      -11.9830    5.6700    7.4990 hn        1 NCE      0.466050
@<TRIPOS>BOND
     1    1    2 1   
     2    1    6 1   
     3    1   37 1   
     4    1   38 1   
     5    2    3 1   
     6    2   39 1   
     7    2   40 1   
     8    3    4 1   
     9    4    5 1   
    10    4   41 1   
    11    4   42 1   
    12    5    6 1   
    13    5   43 1   
    14    5   44 1   
    15    6    7 1   
    16    7    8 1   
    17    7   45 1   
    18    7   46 1   
    19    8    9 1   
    20    8   47 1   
    21    8   48 1   
    22    9   10 2   
    23    9   11 1   
    24   11   12 1   
    25   11   49 1   
    26   11   70 1   
    27   12   13 ar  
    28   12   14 ar  
    29   13   18 ar  
    30   13   50 1   
    31   14   15 ar  
    32   14   51 1   
    33   15   16 ar  
    34   15   52 1   
    35   16   17 ar  
    36   16   18 ar  
    37   17   22 ar  
    38   17   53 1   
    39   18   19 ar  
    40   19   20 ar  
    41   20   21 ar  
    42   20   22 ar  
    43   21   25 ar  
    44   21   54 1   
    45   22   23 ar  
    46   23   24 ar  
    47   23   55 1   
    48   24   25 ar  
    49   24   56 1   
    50   25   26 1   
    51   26   27 1   
    52   26   57 1   
    53   26   71 1   
    54   27   28 2   
    55   27   29 1   
    56   29   30 1   
    57   29   58 1   
    58   29   59 1   
    59   30   31 1   
    60   30   60 1   
    61   30   61 1   
    62   31   32 1   
    63   31   36 1   
    64   32   33 1   
    65   32   62 1   
    66   32   63 1   
    67   33   34 1   
    68   33   64 1   
    69   33   65 1   
    70   34   35 1   
    71   35   36 1   
    72   35   66 1   
    73   35   67 1   
    74   36   68 1   
    75   36   69 1   
@<TRIPOS>SUBSTRUCTURE
     1 NCE         1 TEMP              0 ****  ****    0 ROOT
