@<TRIPOS>MOLECULE
NCE
   69    73     1     0     0
SMALL
bcc


@<TRIPOS>ATOM
      1 C75       -10.8050    0.3430    0.9590 c3        1 NCE      0.133300
      2 C72       -11.9440    1.3500    1.1540 c3        1 NCE      0.125900
      3 O32       -12.2450    2.0460   -0.0500 os        1 NCE     -0.413600
      4 C66       -11.1050    2.7050   -0.5870 c3        1 NCE      0.125900
      5 C63        -9.9470    1.7300   -0.8240 c3        1 NCE      0.133300
      6 N61        -9.6200    0.9520    0.3650 n3        1 NCE     -0.733600
      7 C58        -8.5660   -0.0250    0.1260 c3        1 NCE      0.175800
      8 C55        -7.1780    0.6150    0.0700 c3        1 NCE     -0.157400
      9 C54        -6.1200   -0.4710   -0.0510 c         1 NCE      0.669100
     10 O84        -6.4220   -1.6760   -0.1040 o         1 NCE     -0.589100
     11 N52        -4.8080   -0.0120   -0.1030 n         1 NCE     -0.475100
     12 C51        -3.6260   -0.7630   -0.1930 ca        1 NCE      0.096600
     13 C85        -2.4110   -0.1020   -0.0950 ca        1 NCE     -0.261300
     14 C49        -3.6410   -2.1910   -0.3970 ca        1 NCE     -0.145000
     15 C47        -2.4740   -2.8840   -0.4910 ca        1 NCE     -0.089000
     16 C2         -1.2060   -2.2370   -0.3950 ca        1 NCE     -0.180300
     17 C45         0.0040   -2.9310   -0.4890 ca        1 NCE     -0.044000
     18 C87        -1.1630   -0.8110   -0.1940 ca        1 NCE      0.456600
     19 N1          0.0020   -0.1230   -0.0930 nb        1 NCE     -0.682000
     20 C3          1.1680   -0.8100   -0.1860 ca        1 NCE      0.456600
     21 C4          2.4140   -0.1000   -0.0800 ca        1 NCE     -0.261300
     22 C44         1.2130   -2.2360   -0.3870 ca        1 NCE     -0.180300
     23 C42         2.4820   -2.8820   -0.4750 ca        1 NCE     -0.089000
     24 C40         3.6480   -2.1880   -0.3740 ca        1 NCE     -0.145000
     25 C6          3.6300   -0.7590   -0.1710 ca        1 NCE      0.096600
     26 N7          4.8110   -0.0080   -0.0730 n         1 NCE     -0.475100
     27 C9          6.1230   -0.4660   -0.0140 c         1 NCE      0.669100
     28 O39         6.4260   -1.6710   -0.0670 o         1 NCE     -0.589100
     29 C10         7.1790    0.6220    0.1140 c3        1 NCE     -0.157400
     30 C13         8.5680   -0.0180    0.1760 c3        1 NCE      0.175800
     31 N16         9.6190    0.9600    0.4220 n3        1 NCE     -0.733600
     32 C36        10.8020    0.3510    1.0200 c3        1 NCE      0.133300
     33 C33        11.9390    1.3590    1.2230 c3        1 NCE      0.125900
     34 O12        12.2460    2.0580    0.0220 os        1 NCE     -0.413600
     35 C27        11.1070    2.7170   -0.5200 c3        1 NCE      0.125900
     36 C18         9.9510    1.7410   -0.7640 c3        1 NCE      0.133300
     37 H75       -10.5140   -0.0660    1.9660 h1        1 NCE      0.041700
     38 H75A      -11.1890   -0.5130    0.3320 h1        1 NCE      0.041700
     39 H72       -12.8930    0.8120    1.4110 h1        1 NCE      0.054700
     40 H72A      -11.6870    2.0880    1.9590 h1        1 NCE      0.054700
     41 H66       -11.4600    3.1260   -1.5640 h1        1 NCE      0.054700
     42 H66A      -10.7920    3.5340    0.1000 h1        1 NCE      0.054700
     43 H63       -10.2140    1.0640   -1.6960 h1        1 NCE      0.041700
     44 H63A       -9.0340    2.3230   -1.1090 h1        1 NCE      0.041700
     45 H58        -8.5690   -0.7750    0.9680 h1        1 NCE      0.054200
     46 H58A       -8.7290   -0.6030   -0.8310 h1        1 NCE      0.054200
     47 H55        -7.1010    1.3050   -0.8110 hc        1 NCE      0.073950
     48 H55A       -6.9930    1.2160    1.0000 hc        1 NCE      0.073950
     49 HN52       -4.6780    0.9730   -0.0180 hn        1 NCE      0.317500
     50 H85        -2.3630    0.9890    0.0600 ha        1 NCE      0.147000
     51 H49        -4.6060   -2.7200   -0.4750 ha        1 NCE      0.177000
     52 H47        -2.4870   -3.9750   -0.6450 ha        1 NCE      0.138000
     53 H45         0.0050   -4.0210   -0.6430 ha        1 NCE      0.139000
     54 H4          2.3640    0.9910    0.0750 ha        1 NCE      0.147000
     55 H42         2.4970   -3.9730   -0.6300 ha        1 NCE      0.138000
     56 H40         4.6140   -2.7160   -0.4460 ha        1 NCE      0.177000
     57 HN7         4.6790    0.9770    0.0130 hn        1 NCE      0.317500
     58 H10         7.1060    1.3130   -0.7660 hc        1 NCE      0.073950
     59 H10A        6.9890    1.2200    1.0440 hc        1 NCE      0.073950
     60 H13         8.5670   -0.7690    1.0170 h1        1 NCE      0.054200
     61 H13A        8.7370   -0.5940   -0.7810 h1        1 NCE      0.054200
     62 H36        10.5070   -0.0600    2.0250 h1        1 NCE      0.041700
     63 H36A       11.1900   -0.5040    0.3930 h1        1 NCE      0.041700
     64 H33        11.6780    2.0950    2.0280 h1        1 NCE      0.054700
     65 H33A       12.8880    0.8220    1.4840 h1        1 NCE      0.054700
     66 H27        10.7900    3.5440    0.1680 h1        1 NCE      0.054700
     67 H27A       11.4670    3.1400   -1.4940 h1        1 NCE      0.054700
     68 H18        10.2230    1.0770   -1.6360 h1        1 NCE      0.041700
     69 H18A        9.0390    2.3340   -1.0520 h1        1 NCE      0.041700
@<TRIPOS>BOND
     1    1    2 1   
     2    1    6 1   
     3    1   37 1   
     4    1   38 1   
     5    2    3 1   
     6    2   39 1   
     7    2   40 1   
     8    3    4 1   
     9    4    5 1   
    10    4   41 1   
    11    4   42 1   
    12    5    6 1   
    13    5   43 1   
    14    5   44 1   
    15    6    7 1   
    16    7    8 1   
    17    7   45 1   
    18    7   46 1   
    19    8    9 1   
    20    8   47 1   
    21    8   48 1   
    22    9   10 2   
    23    9   11 1   
    24   11   12 1   
    25   11   49 1   
    26   12   13 ar  
    27   12   14 ar  
    28   13   18 ar  
    29   13   50 1   
    30   14   15 ar  
    31   14   51 1   
    32   15   16 ar  
    33   15   52 1   
    34   16   17 ar  
    35   16   18 ar  
    36   17   22 ar  
    37   17   53 1   
    38   18   19 ar  
    39   19   20 ar  
    40   20   21 ar  
    41   20   22 ar  
    42   21   25 ar  
    43   21   54 1   
    44   22   23 ar  
    45   23   24 ar  
    46   23   55 1   
    47   24   25 ar  
    48   24   56 1   
    49   25   26 1   
    50   26   27 1   
    51   26   57 1   
    52   27   28 2   
    53   27   29 1   
    54   29   30 1   
    55   29   58 1   
    56   29   59 1   
    57   30   31 1   
    58   30   60 1   
    59   30   61 1   
    60   31   32 1   
    61   31   36 1   
    62   32   33 1   
    63   32   62 1   
    64   32   63 1   
    65   33   34 1   
    66   33   64 1   
    67   33   65 1   
    68   34   35 1   
    69   35   36 1   
    70   35   66 1   
    71   35   67 1   
    72   36   68 1   
    73   36   69 1   
@<TRIPOS>SUBSTRUCTURE
     1 NCE         1 TEMP              0 ****  ****    0 ROOT
