@<TRIPOS>MOLECULE
NCE
   69    73     1     0     0
SMALL
bcc


@<TRIPOS>ATOM
      1 C75         0.7330    1.3100    0.0190 c3        1 NCE      0.133300
      2 C72         2.1900    1.2670    0.4930 c3        1 NCE      0.125900
      3 O32         2.3820    0.3020    1.5210 os        1 NCE     -0.413600
      4 C66         1.5200    0.5230    2.6300 c3        1 NCE      0.125900
      5 C63         0.0470    0.5480    2.2070 c3        1 NCE      0.133300
      6 N61        -0.2060    1.4870    1.1210 n3        1 NCE     -0.733600
      7 C58        -1.5900    1.4640    0.6670 c3        1 NCE      0.175800
      8 C55        -2.5300    2.1970    1.6260 c3        1 NCE     -0.157400
      9 C54        -3.9290    2.2470    1.0290 c         1 NCE      0.669100
     10 O84        -4.1870    1.7380   -0.0760 o         1 NCE     -0.589100
     11 N52        -4.8800    2.8940    1.8100 n         1 NCE     -0.475100
     12 C51        -6.2370    3.1150    1.5290 ca        1 NCE      0.096600
     13 C85        -6.9820    3.8770    2.4140 ca        1 NCE     -0.261300
     14 C49        -6.8730    2.5640    0.3570 ca        1 NCE     -0.145500
     15 C47        -8.1950    2.7920    0.1220 ca        1 NCE     -0.089000
     16 C2         -8.9930    3.5710    1.0120 ca        1 NCE     -0.180300
     17 C45       -10.3510    3.8150    0.7880 ca        1 NCE     -0.044000
     18 C87        -8.3810    4.1300    2.1900 ca        1 NCE      0.456600
     19 N1         -9.0720    4.8810    3.0840 nb        1 NCE     -0.682000
     20 C3        -10.3890    5.1100    2.8540 ca        1 NCE      0.456600
     21 C4        -11.1400    5.9050    3.7890 ca        1 NCE     -0.261300
     22 C44       -11.0760    4.5870    1.7010 ca        1 NCE     -0.180300
     23 C42       -12.4640    4.8740    1.5340 ca        1 NCE     -0.089000
     24 C40       -13.1530    5.6270    2.4340 ca        1 NCE     -0.145500
     25 C6        -12.4880    6.1640    3.5960 ca        1 NCE      0.096600
     26 N7        -13.1670    6.9350    4.5520 n         1 NCE     -0.475100
     27 C9        -14.4740    7.4080    4.5080 c         1 NCE      0.669100
     28 O39       -15.2520    7.1730    3.5680 o         1 NCE     -0.589100
     29 C10       -14.8980    8.2400    5.7100 c3        1 NCE     -0.157400
     30 C13       -16.3460    8.7000    5.5300 c3        1 NCE      0.175800
     31 N16       -16.7770    9.6020    6.5890 n3        1 NCE     -0.733600
     32 C36       -17.8820   10.4540    6.1630 c3        1 NCE      0.133300
     33 C33       -18.3870   11.3630    7.2900 c3        1 NCE      0.125900
     34 O12       -18.7030   10.6230    8.4630 os        1 NCE     -0.413600
     35 C27       -17.6000    9.8510    8.9230 c3        1 NCE      0.125900
     36 C18       -17.0760    8.9080    7.8350 c3        1 NCE      0.133300
     37 H75         0.6120    2.1830   -0.6810 h1        1 NCE      0.041700
     38 H75A        0.5180    0.3650   -0.5600 h1        1 NCE      0.041700
     39 H72         2.5180    2.2760    0.8590 h1        1 NCE      0.054700
     40 H72A        2.8560    0.9240   -0.3410 h1        1 NCE      0.054700
     41 H66         1.7110   -0.3480    3.3110 h1        1 NCE      0.054700
     42 H66A        1.8020    1.4810    3.1410 h1        1 NCE      0.054700
     43 H63        -0.5720    0.8680    3.0900 h1        1 NCE      0.041700
     44 H63A       -0.2610   -0.5020    1.9280 h1        1 NCE      0.041700
     45 H58        -1.6510    1.9740   -0.3370 h1        1 NCE      0.054450
     46 H58A       -1.9750    0.4110    0.5280 h1        1 NCE      0.054450
     47 H55        -2.5700    1.6690    2.6150 hc        1 NCE      0.073700
     48 H55A       -2.1620    3.2420    1.8040 hc        1 NCE      0.073700
     49 HN52       -4.5560    3.2900    2.6670 hn        1 NCE      0.317500
     50 H85        -6.5280    4.3130    3.3190 ha        1 NCE      0.147000
     51 H49        -6.2830    1.9570   -0.3500 ha        1 NCE      0.177000
     52 H47        -8.6800    2.3710   -0.7730 ha        1 NCE      0.138000
     53 H45       -10.8480    3.4010   -0.1030 ha        1 NCE      0.139000
     54 H4        -10.6000    6.2990    4.6660 ha        1 NCE      0.147000
     55 H42       -12.9730    4.4650    0.6460 ha        1 NCE      0.138000
     56 H40       -14.2260    5.8320    2.2770 ha        1 NCE      0.177000
     57 HN7       -12.6200    7.2110    5.3380 hn        1 NCE      0.317500
     58 H10       -14.2210    9.1300    5.8060 hc        1 NCE      0.073700
     59 H10A      -14.7960    7.6230    6.6410 hc        1 NCE      0.073700
     60 H13       -17.0020    7.7830    5.4570 h1        1 NCE      0.054450
     61 H13A      -16.4190    9.2380    4.5420 h1        1 NCE      0.054450
     62 H36       -18.7510    9.8450    5.7790 h1        1 NCE      0.041700
     63 H36A      -17.5120   11.1030    5.3210 h1        1 NCE      0.041700
     64 H33       -17.6270   12.1500    7.5360 h1        1 NCE      0.054700
     65 H33A      -19.3570   11.8420    6.9920 h1        1 NCE      0.054700
     66 H27       -18.0110    9.2590    9.7820 h1        1 NCE      0.054700
     67 H27A      -16.7860   10.5360    9.2800 h1        1 NCE      0.054700
     68 H18       -17.8360    8.0860    7.6810 h1        1 NCE      0.041700
     69 H18A      -16.1240    8.4340    8.2020 h1        1 NCE      0.041700
@<TRIPOS>BOND
     1    1    2 1   
     2    1    6 1   
     3    1   37 1   
     4    1   38 1   
     5    2    3 1   
     6    2   39 1   
     7    2   40 1   
     8    3    4 1   
     9    4    5 1   
    10    4   41 1   
    11    4   42 1   
    12    5    6 1   
    13    5   43 1   
    14    5   44 1   
    15    6    7 1   
    16    7    8 1   
    17    7   45 1   
    18    7   46 1   
    19    8    9 1   
    20    8   47 1   
    21    8   48 1   
    22    9   10 2   
    23    9   11 1   
    24   11   12 1   
    25   11   49 1   
    26   12   13 ar  
    27   12   14 ar  
    28   13   18 ar  
    29   13   50 1   
    30   14   15 ar  
    31   14   51 1   
    32   15   16 ar  
    33   15   52 1   
    34   16   17 ar  
    35   16   18 ar  
    36   17   22 ar  
    37   17   53 1   
    38   18   19 ar  
    39   19   20 ar  
    40   20   21 ar  
    41   20   22 ar  
    42   21   25 ar  
    43   21   54 1   
    44   22   23 ar  
    45   23   24 ar  
    46   23   55 1   
    47   24   25 ar  
    48   24   56 1   
    49   25   26 1   
    50   26   27 1   
    51   26   57 1   
    52   27   28 2   
    53   27   29 1   
    54   29   30 1   
    55   29   58 1   
    56   29   59 1   
    57   30   31 1   
    58   30   60 1   
    59   30   61 1   
    60   31   32 1   
    61   31   36 1   
    62   32   33 1   
    63   32   62 1   
    64   32   63 1   
    65   33   34 1   
    66   33   64 1   
    67   33   65 1   
    68   34   35 1   
    69   35   36 1   
    70   35   66 1   
    71   35   67 1   
    72   36   68 1   
    73   36   69 1   
@<TRIPOS>SUBSTRUCTURE
     1 NCE         1 TEMP              0 ****  ****    0 ROOT
