@<TRIPOS>MOLECULE
NCE
   69    73     1     0     0
SMALL
bcc


@<TRIPOS>ATOM
      1 C75         0.7350    1.3410    0.0090 c3        1 NCE      0.133300
      2 C72         2.1920    1.2970    0.4840 c3        1 NCE      0.125900
      3 O32         2.3880    0.3180    1.4970 os        1 NCE     -0.413600
      4 C66         1.5240    0.5180    2.6090 c3        1 NCE      0.125900
      5 C63         0.0510    0.5440    2.1850 c3        1 NCE      0.133300
      6 N61        -0.2050    1.4980    1.1130 n3        1 NCE     -0.733600
      7 C58        -1.5890    1.4760    0.6580 c3        1 NCE      0.175800
      8 C55        -2.5330    2.1920    1.6270 c3        1 NCE     -0.157400
      9 C54        -3.9310    2.2440    1.0300 c         1 NCE      0.669100
     10 O84        -4.1880    1.7470   -0.0810 o         1 NCE     -0.589100
     11 N52        -4.8850    2.8780    1.8190 ns        1 NCE     -0.475100
     12 C51        -6.2420    3.0990    1.5390 ca        1 NCE      0.096600
     13 C85        -6.9860    3.8630    2.4230 ca        1 NCE     -0.261300
     14 C49        -6.8800    2.5440    0.3690 ca        1 NCE     -0.145000
     15 C47        -8.2020    2.7710    0.1360 ca        1 NCE     -0.089000
     16 C2         -8.9980    3.5530    1.0240 ca        1 NCE     -0.180300
     17 C45       -10.3570    3.7960    0.8020 ca        1 NCE     -0.044000
     18 C87        -8.3850    4.1160    2.2000 ca        1 NCE      0.456600
     19 N1         -9.0750    4.8690    3.0930 nb        1 NCE     -0.682000
     20 C3        -10.3930    5.0970    2.8640 ca        1 NCE      0.456600
     21 C4        -11.1420    5.8950    3.7970 ca        1 NCE     -0.261300
     22 C44       -11.0810    4.5710    1.7130 ca        1 NCE     -0.180300
     23 C42       -12.4690    4.8570    1.5470 ca        1 NCE     -0.089000
     24 C40       -13.1580    5.6130    2.4450 ca        1 NCE     -0.145000
     25 C6        -12.4900    6.1530    3.6050 ca        1 NCE      0.096600
     26 N7        -13.1690    6.9270    4.5590 ns        1 NCE     -0.475100
     27 C9        -14.4740    7.4040    4.5140 c         1 NCE      0.669100
     28 O39       -15.2520    7.1700    3.5730 o         1 NCE     -0.589100
     29 C10       -14.8960    8.2400    5.7130 c3        1 NCE     -0.157400
     30 C13       -16.3430    8.7030    5.5310 c3        1 NCE      0.175800
     31 N16       -16.7730    9.6100    6.5870 n3        1 NCE     -0.733600
     32 C36       -17.8760   10.4630    6.1590 c3        1 NCE      0.133300
     33 C33       -18.3790   11.3760    7.2830 c3        1 NCE      0.125900
     34 O12       -18.6970   10.6400    8.4580 os        1 NCE     -0.413600
     35 C27       -17.5960    9.8670    8.9200 c3        1 NCE      0.125900
     36 C18       -17.0740    8.9190    7.8350 c3        1 NCE      0.133300
     37 H75         0.5240    0.4040   -0.5840 h1        1 NCE      0.041700
     38 H75A        0.6110    2.2240   -0.6770 h1        1 NCE      0.041700
     39 H72         2.8600    0.9690   -0.3550 h1        1 NCE      0.054700
     40 H72A        2.5150    2.3010    0.8650 h1        1 NCE      0.054700
     41 H66         1.7170   -0.3620    3.2760 h1        1 NCE      0.054700
     42 H66A        1.8020    1.4700    3.1340 h1        1 NCE      0.054700
     43 H63        -0.2530   -0.5040    1.8900 h1        1 NCE      0.041700
     44 H63A       -0.5700    0.8480    3.0720 h1        1 NCE      0.041700
     45 H58        -1.9700    0.4240    0.5040 h1        1 NCE      0.054200
     46 H58A       -1.6510    2.0000   -0.3380 h1        1 NCE      0.054200
     47 H55        -2.1680    3.2360    1.8190 hc        1 NCE      0.073700
     48 H55A       -2.5700    1.6500    2.6080 hc        1 NCE      0.073700
     49 HN52       -4.5620    3.2690    2.6790 hn        1 NCE      0.317500
     50 H85        -6.5310    4.3020    3.3260 ha        1 NCE      0.147000
     51 H49        -6.2900    1.9360   -0.3370 ha        1 NCE      0.177000
     52 H47        -8.6880    2.3480   -0.7580 ha        1 NCE      0.138000
     53 H45       -10.8550    3.3800   -0.0880 ha        1 NCE      0.139000
     54 H4        -10.6010    6.2920    4.6720 ha        1 NCE      0.147000
     55 H42       -12.9790    4.4460    0.6610 ha        1 NCE      0.138000
     56 H40       -14.2300    5.8170    2.2890 ha        1 NCE      0.177000
     57 HN7       -12.6210    7.2040    5.3450 hn        1 NCE      0.317500
     58 H10       -14.7970    7.6240    6.6450 hc        1 NCE      0.073700
     59 H10A      -14.2170    9.1280    5.8090 hc        1 NCE      0.073700
     60 H13       -17.0020    7.7880    5.4600 h1        1 NCE      0.054200
     61 H13A      -16.4140    9.2390    4.5420 h1        1 NCE      0.054200
     62 H36       -17.5040   11.1090    5.3150 h1        1 NCE      0.041700
     63 H36A      -18.7460    9.8540    5.7760 h1        1 NCE      0.041700
     64 H33       -17.6170   12.1620    7.5270 h1        1 NCE      0.054700
     65 H33A      -19.3470   11.8560    6.9830 h1        1 NCE      0.054700
     66 H27       -18.0080    9.2790    9.7810 h1        1 NCE      0.054700
     67 H27A      -16.7800   10.5520    9.2750 h1        1 NCE      0.054700
     68 H18       -17.8350    8.0980    7.6830 h1        1 NCE      0.041700
     69 H18A      -16.1220    8.4450    8.2040 h1        1 NCE      0.041700
@<TRIPOS>BOND
     1    1    2 1   
     2    1    6 1   
     3    1   37 1   
     4    1   38 1   
     5    2    3 1   
     6    2   39 1   
     7    2   40 1   
     8    3    4 1   
     9    4    5 1   
    10    4   41 1   
    11    4   42 1   
    12    5    6 1   
    13    5   43 1   
    14    5   44 1   
    15    6    7 1   
    16    7    8 1   
    17    7   45 1   
    18    7   46 1   
    19    8    9 1   
    20    8   47 1   
    21    8   48 1   
    22    9   10 2   
    23    9   11 1   
    24   11   12 1   
    25   11   49 1   
    26   12   13 ar  
    27   12   14 ar  
    28   13   18 ar  
    29   13   50 1   
    30   14   15 ar  
    31   14   51 1   
    32   15   16 ar  
    33   15   52 1   
    34   16   17 ar  
    35   16   18 ar  
    36   17   22 ar  
    37   17   53 1   
    38   18   19 ar  
    39   19   20 ar  
    40   20   21 ar  
    41   20   22 ar  
    42   21   25 ar  
    43   21   54 1   
    44   22   23 ar  
    45   23   24 ar  
    46   23   55 1   
    47   24   25 ar  
    48   24   56 1   
    49   25   26 1   
    50   26   27 1   
    51   26   57 1   
    52   27   28 2   
    53   27   29 1   
    54   29   30 1   
    55   29   58 1   
    56   29   59 1   
    57   30   31 1   
    58   30   60 1   
    59   30   61 1   
    60   31   32 1   
    61   31   36 1   
    62   32   33 1   
    63   32   62 1   
    64   32   63 1   
    65   33   34 1   
    66   33   64 1   
    67   33   65 1   
    68   34   35 1   
    69   35   36 1   
    70   35   66 1   
    71   35   67 1   
    72   36   68 1   
    73   36   69 1   
@<TRIPOS>SUBSTRUCTURE
     1 NCE         1 TEMP              0 ****  ****    0 ROOT
