@<TRIPOS>MOLECULE
NCF
   35    36     1     0     0
SMALL
bcc


@<TRIPOS>ATOM
      1 S1         -0.1170    0.1200    0.0000 ss        1 NCF     -0.385200
      2 C2          1.1620    0.5830    1.1450 c3        1 NCF      0.011700
      3 C3          1.2220   -0.2870    2.3730 c3        1 NCF     -0.184700
      4 C4          1.2130   -1.7520    2.0590 ce        1 NCF      0.405300
      5 C4'         1.4290   -2.6630    3.3030 c         1 NCF      0.854300
      6 O4A         0.3250   -3.2200    3.6290 o         1 NCF     -0.776800
      7 O4B         2.5160   -2.7260    3.8870 o         1 NCF     -0.776800
      8 N5          0.8300   -2.3190    0.9610 n2        1 NCF     -0.658900
      9 C6         -0.1030   -1.6860    0.0920 c3        1 NCF      0.232600
     10 C7         -1.5840   -2.0720    0.5000 c3        1 NCF     -0.010500
     11 C8         -2.2990   -2.5010   -0.7760 c         1 NCF      0.567900
     12 O9         -2.8220   -3.6060   -0.9050 o         1 NCF     -0.510100
     13 N10        -1.6920   -3.0910    1.5920 ny        1 NCF     -0.695800
     14 C11        -2.8250   -2.8790    2.5600 c         1 NCF      0.560100
     15 O12        -3.6520   -2.0180    2.2930 o         1 NCF     -0.452100
     16 C13        -2.7440   -3.7750    3.7750 c3        1 NCF     -0.073100
     17 C14        -3.8620   -3.5630    4.6990 cc        1 NCF     -0.171400
     18 C15        -5.1440   -4.0740    4.5510 cd        1 NCF     -0.126000
     19 C16        -5.9790   -3.7220    5.6520 cd        1 NCF     -0.158000
     20 C17        -5.2930   -2.9670    6.5840 cc        1 NCF     -0.167100
     21 S19        -3.7180   -2.7060    6.1330 ss        1 NCF      0.100200
     22 H2C1        2.1440    0.5620    0.6100 h1        1 NCF      0.085700
     23 H2C2        0.9360    1.6430    1.4200 h1        1 NCF      0.085700
     24 H3C1        0.3710   -0.0540    3.0680 hc        1 NCF      0.094200
     25 H3C2        2.1760   -0.0800    2.9380 hc        1 NCF      0.094200
     26 H6          0.0940   -2.0540   -0.9530 h2        1 NCF      0.107700
     27 H7         -2.0850   -1.1200    0.8720 hx        1 NCF      0.149700
     28 H8         -2.2980   -1.7230   -1.5690 h4        1 NCF      0.052200
     29 H10        -1.8020   -4.0170    1.1620 hn        1 NCF      0.496800
     30 H131       -1.7480   -3.5820    4.2890 hc        1 NCF      0.130200
     31 H132       -2.7300   -4.8470    3.4280 hc        1 NCF      0.130200
     32 H15        -5.4880   -4.6730    3.7060 ha        1 NCF      0.153000
     33 H16        -7.0250   -4.0230    5.7310 ha        1 NCF      0.160000
     34 H17        -5.7170   -2.5830    7.5120 h4        1 NCF      0.178000
     35 H102       -0.8020   -3.1260    2.1920 hn        1 NCF      0.496800
@<TRIPOS>BOND
     1    1    2 1   
     2    1    9 1   
     3    2    3 1   
     4    2   22 1   
     5    2   23 1   
     6    3    4 1   
     7    3   24 1   
     8    3   25 1   
     9    4    5 1   
    10    4    8 2   
    11    5    6 1   
    12    5    7 1   
    13    8    9 1   
    14    9   10 1   
    15    9   26 1   
    16   10   11 1   
    17   10   13 1   
    18   10   27 1   
    19   11   12 2   
    20   11   28 1   
    21   13   14 1   
    22   13   29 1   
    23   13   35 1   
    24   14   15 2   
    25   14   16 1   
    26   16   17 1   
    27   16   30 1   
    28   16   31 1   
    29   17   18 2   
    30   17   21 1   
    31   18   19 1   
    32   18   32 1   
    33   19   20 2   
    34   19   33 1   
    35   20   21 1   
    36   20   34 1   
@<TRIPOS>SUBSTRUCTURE
     1 NCF         1 TEMP              0 ****  ****    0 ROOT
