@<TRIPOS>MOLECULE
NCF
   34    35     1     0     0
SMALL
bcc


@<TRIPOS>ATOM
      1 S1         -3.5240   -1.7380    0.5250 ss        1 NCF     -0.471200
      2 C2         -3.9150   -0.0970    1.0830 c3        1 NCF      0.033700
      3 C3         -2.7870    0.8880    0.9240 c3        1 NCF     -0.182700
      4 C4         -2.2180    0.8950   -0.4690 ce        1 NCF      0.401300
      5 C4'        -1.7920    2.3170   -0.9420 c         1 NCF      0.848300
      6 O4A        -0.5580    2.5110   -1.0830 o         1 NCF     -0.802800
      7 O4B        -2.7120    3.1570   -1.0850 o         1 NCF     -0.802800
      8 N5         -2.0580   -0.1270   -1.2350 n2        1 NCF     -0.625900
      9 C6         -2.3150   -1.4650   -0.8170 c3        1 NCF      0.232600
     10 C7         -1.0300   -2.2490   -0.3680 c3        1 NCF     -0.028300
     11 C8         -1.2860   -3.7050   -0.7250 c         1 NCF      0.568900
     12 O9         -0.6640   -4.3660   -1.5540 o         1 NCF     -0.531100
     13 N10         0.2110   -1.7340   -0.8930 n         1 NCF     -0.517900
     14 C11         0.9360   -0.8080   -0.1280 c         1 NCF      0.667100
     15 O12         0.9030   -0.8580    1.1160 o         1 NCF     -0.608100
     16 C13         1.7470    0.2240   -0.8920 c3        1 NCF     -0.112100
     17 C14         3.0000    0.5930   -0.2210 cc        1 NCF     -0.084400
     18 C15         4.1990   -0.0970   -0.2960 cd        1 NCF     -0.174000
     19 C16         5.2290    0.5520    0.4460 cd        1 NCF     -0.165000
     20 C17         4.7660    1.7060    1.0480 cc        1 NCF     -0.219100
     21 S19         3.1600    1.9700    0.7210 ss        1 NCF      0.109200
     22 H2C1       -4.8130    0.2600    0.5220 h1        1 NCF      0.063700
     23 H2C2       -4.1920   -0.2060    2.1600 h1        1 NCF      0.063700
     24 H3C1       -1.9590    0.6630    1.6480 hc        1 NCF      0.082200
     25 H3C2       -3.1680    1.9230    1.1460 hc        1 NCF      0.082200
     26 H6         -2.7700   -1.9890   -1.7050 h2        1 NCF      0.079700
     27 H7         -0.9730   -2.1950    0.7670 h1        1 NCF      0.121700
     28 H8         -2.1370   -4.1400   -0.1480 h4        1 NCF      0.001200
     29 H10         0.1940   -1.5660   -1.8770 hn        1 NCF      0.302500
     30 H131        1.9830   -0.1360   -1.9300 hc        1 NCF      0.114200
     31 H132        1.0570    1.1260   -0.9980 hc        1 NCF      0.114200
     32 H15         4.3490   -1.0260   -0.8490 ha        1 NCF      0.145000
     33 H16         6.2480    0.1690    0.5170 ha        1 NCF      0.135000
     34 H17         5.3650    2.3720    1.6650 h4        1 NCF      0.156000
@<TRIPOS>BOND
     1    1    2 1   
     2    1    9 1   
     3    2    3 1   
     4    2   22 1   
     5    2   23 1   
     6    3    4 1   
     7    3   24 1   
     8    3   25 1   
     9    4    5 1   
    10    4    8 2   
    11    5    6 1   
    12    5    7 1   
    13    8    9 1   
    14    9   10 1   
    15    9   26 1   
    16   10   11 1   
    17   10   13 1   
    18   10   27 1   
    19   11   12 2   
    20   11   28 1   
    21   13   14 1   
    22   13   29 1   
    23   14   15 2   
    24   14   16 1   
    25   16   17 1   
    26   16   30 1   
    27   16   31 1   
    28   17   18 2   
    29   17   21 1   
    30   18   19 1   
    31   18   32 1   
    32   19   20 2   
    33   19   33 1   
    34   20   21 1   
    35   20   34 1   
@<TRIPOS>SUBSTRUCTURE
     1 NCF         1 TEMP              0 ****  ****    0 ROOT
