@<TRIPOS>MOLECULE
NCF
   35    36     1     0     0
SMALL
bcc


@<TRIPOS>ATOM
      1 S1         -0.1360    0.1710    0.0300 ss        1 NCF     -0.385200
      2 C2          1.1420    0.6250    1.1790 c3        1 NCF      0.011700
      3 C3          1.2090   -0.2600    2.3950 c3        1 NCF     -0.184700
      4 C4          1.2060   -1.7210    2.0630 ce        1 NCF      0.405300
      5 C4'         1.4280   -2.6470    3.2940 c         1 NCF      0.854300
      6 O4A         0.3270   -3.2140    3.6140 o         1 NCF     -0.776800
      7 O4B         2.5160   -2.7120    3.8760 o         1 NCF     -0.776800
      8 N5          0.8240   -2.2760    0.9580 n2        1 NCF     -0.658900
      9 C6         -0.1130   -1.6360    0.0980 c3        1 NCF      0.232600
     10 C7         -1.5910   -2.0350    0.5030 c3        1 NCF     -0.010500
     11 C8         -2.3060   -2.4510   -0.7780 c         1 NCF      0.567900
     12 O9         -2.8230   -3.5560   -0.9210 o         1 NCF     -0.510100
     13 N10        -1.6940   -3.0680    1.5820 n4        1 NCF     -0.695800
     14 C11        -2.8260   -2.8740    2.5530 c         1 NCF      0.560100
     15 O12        -3.6580   -2.0140    2.2980 o         1 NCF     -0.452100
     16 C13        -2.7390   -3.7850    3.7560 c3        1 NCF     -0.073100
     17 C14        -3.8570   -3.5900    4.6850 cc        1 NCF     -0.171400
     18 C15        -5.1370   -4.1020    4.5330 cd        1 NCF     -0.126000
     19 C16        -5.9710   -3.7680    5.6390 cd        1 NCF     -0.158000
     20 C17        -5.2860   -3.0240    6.5800 cc        1 NCF     -0.167100
     21 S19        -3.7120   -2.7520    6.1310 ss        1 NCF      0.100200
     22 H2C1        0.9120    1.6800    1.4680 h1        1 NCF      0.085700
     23 H2C2        2.1240    0.6160    0.6430 h1        1 NCF      0.085700
     24 H3C1        0.3570   -0.0410    3.0950 hc        1 NCF      0.094200
     25 H3C2        2.1620   -0.0550    2.9620 hc        1 NCF      0.094200
     26 H6          0.0850   -1.9900   -0.9520 h2        1 NCF      0.107700
     27 H7         -2.0960   -1.0900    0.8870 hx        1 NCF      0.149700
     28 H8         -2.3090   -1.6630   -1.5610 h4        1 NCF      0.052200
     29 H10        -0.8020   -3.1070    2.1800 hn        1 NCF      0.496800
     30 H131       -1.7440   -3.5950    4.2710 hc        1 NCF      0.130200
     31 H132       -2.7230   -4.8530    3.3950 hc        1 NCF      0.130200
     32 H15        -5.4810   -4.6900    3.6800 ha        1 NCF      0.153000
     33 H16        -7.0170   -4.0720    5.7160 ha        1 NCF      0.160000
     34 H17        -5.7090   -2.6540    7.5140 h4        1 NCF      0.178000
     35 H102       -1.7980   -3.9890    1.1400 hn        1 NCF      0.496800
@<TRIPOS>BOND
     1    1    2 1   
     2    1    9 1   
     3    2    3 1   
     4    2   22 1   
     5    2   23 1   
     6    3    4 1   
     7    3   24 1   
     8    3   25 1   
     9    4    5 1   
    10    4    8 2   
    11    5    6 1   
    12    5    7 1   
    13    8    9 1   
    14    9   10 1   
    15    9   26 1   
    16   10   11 1   
    17   10   13 1   
    18   10   27 1   
    19   11   12 2   
    20   11   28 1   
    21   13   14 1   
    22   13   29 1   
    23   13   35 1   
    24   14   15 2   
    25   14   16 1   
    26   16   17 1   
    27   16   30 1   
    28   16   31 1   
    29   17   18 2   
    30   17   21 1   
    31   18   19 1   
    32   18   32 1   
    33   19   20 2   
    34   19   33 1   
    35   20   21 1   
    36   20   34 1   
@<TRIPOS>SUBSTRUCTURE
     1 NCF         1 TEMP              0 ****  ****    0 ROOT
