@<TRIPOS>MOLECULE
NCF
   35    36     1     0     0
SMALL
bcc


@<TRIPOS>ATOM
      1 S1         -0.1550    0.1560    0.0150 ss        1 NCF     -0.385200
      2 C2          1.1210    0.6270    1.1600 c3        1 NCF      0.011700
      3 C3          1.1960   -0.2510    2.3810 c3        1 NCF     -0.184700
      4 C4          1.2040   -1.7130    2.0570 ce        1 NCF      0.405300
      5 C4'         1.4350   -2.6310    3.2930 c         1 NCF      0.854300
      6 O4A         0.3390   -3.2050    3.6170 o         1 NCF     -0.776800
      7 O4B         2.5240   -2.6840    3.8740 o         1 NCF     -0.776800
      8 N5          0.8260   -2.2780    0.9550 n2        1 NCF     -0.658900
      9 C6         -0.1170   -1.6500    0.0930 c3        1 NCF      0.232600
     10 C7         -1.5920   -2.0580    0.5010 c3        1 NCF     -0.010500
     11 C8         -2.3040   -2.4870   -0.7760 c         1 NCF      0.567900
     12 O9         -2.8130   -3.5970   -0.9120 o         1 NCF     -0.510100
     13 N10        -1.6850   -3.0860    1.5860 n4        1 NCF     -0.695800
     14 C11        -2.8180   -2.8960    2.5580 c         1 NCF      0.560100
     15 O12        -3.6570   -2.0440    2.2980 o         1 NCF     -0.452100
     16 C13        -2.7230   -3.7990    3.7650 c3        1 NCF     -0.073100
     17 C14        -3.8400   -3.6070    4.6950 cc        1 NCF     -0.171400
     18 C15        -5.1170   -4.1280    4.5480 cd        1 NCF     -0.126000
     19 C16        -5.9520   -3.7940    5.6530 cd        1 NCF     -0.158000
     20 C17        -5.2710   -3.0400    6.5890 cc        1 NCF     -0.167100
     21 S19        -3.7000   -2.7590    6.1360 ss        1 NCF      0.100200
     22 H2C1        0.8830    1.6820    1.4440 h1        1 NCF      0.085700
     23 H2C2        2.1020    0.6230    0.6230 h1        1 NCF      0.085700
     24 H3C1        0.3430   -0.0340    3.0800 hc        1 NCF      0.094200
     25 H3C2        2.1480   -0.0350    2.9450 hc        1 NCF      0.094200
     26 H6          0.0830   -2.0080   -0.9550 h2        1 NCF      0.107700
     27 H7         -2.1040   -1.1150    0.8810 hx        1 NCF      0.149700
     28 H8         -2.3140   -1.7030   -1.5630 h4        1 NCF      0.052200
     29 H10        -1.7830   -4.0100    1.1500 hn        1 NCF      0.496800
     30 H131       -2.6990   -4.8690    3.4100 hc        1 NCF      0.130200
     31 H132       -1.7280   -3.5990    4.2780 hc        1 NCF      0.130200
     32 H15        -5.4580   -4.7240    3.6980 ha        1 NCF      0.153000
     33 H16        -6.9950   -4.1060    5.7330 ha        1 NCF      0.160000
     34 H17        -5.6950   -2.6670    7.5220 h4        1 NCF      0.178000
     35 H102       -0.7920   -3.1140    2.1840 hn        1 NCF      0.496800
@<TRIPOS>BOND
     1    1    2 1   
     2    1    9 1   
     3    2    3 1   
     4    2   22 1   
     5    2   23 1   
     6    3    4 1   
     7    3   24 1   
     8    3   25 1   
     9    4    5 1   
    10    4    8 2   
    11    5    6 1   
    12    5    7 1   
    13    8    9 1   
    14    9   10 1   
    15    9   26 1   
    16   10   11 1   
    17   10   13 1   
    18   10   27 1   
    19   11   12 2   
    20   11   28 1   
    21   13   14 1   
    22   13   29 1   
    23   13   35 1   
    24   14   15 2   
    25   14   16 1   
    26   16   17 1   
    27   16   30 1   
    28   16   31 1   
    29   17   18 2   
    30   17   21 1   
    31   18   19 1   
    32   18   32 1   
    33   19   20 2   
    34   19   33 1   
    35   20   21 1   
    36   20   34 1   
@<TRIPOS>SUBSTRUCTURE
     1 NCF         1 TEMP              0 ****  ****    0 ROOT
