@<TRIPOS>MOLECULE
NCF
   34    31     1     0     0
SMALL
bcc


@<TRIPOS>ATOM
      1 S1          2.5990    2.2260   -1.2020 ss        1 NCF     -0.059000
      2 C2          3.9210    2.2260   -1.1880 c3        1 NCF     -0.249000
      3 C3          4.5890    1.9920    0.2380 c3        1 NCF     -0.180000
      4 C4          4.0070    0.7280    0.9760 c2        1 NCF     -0.037000
      5 C4'         4.9440   -0.4040    1.4040 c2        1 NCF      0.387000
      6 O4A         5.2500   -0.5390    2.6090 o         1 NCF     -0.539000
      7 O4B         5.3650   -1.2420    0.5420 o         1 NCF     -0.539000
      8 N5          2.3290    0.4050    0.7160 n1        1 NCF     -0.220000
      9 C6          1.8190    0.7690   -0.5710 c2        1 NCF     -0.122000
     10 C7          0.2200    0.9180   -0.5560 c3        1 NCF     -0.021000
     11 C8         -0.2220    1.6940   -1.7560 c2        1 NCF      0.194000
     12 O9         -0.7470    2.7700   -1.6160 o         1 NCF     -0.310000
     13 N10        -0.3630   -0.3420   -0.5790 n         1 NCF     -0.354000
     14 C11        -1.7160   -0.5330   -0.0640 c2        1 NCF      0.311000
     15 O12        -2.3540    0.4290    0.3610 o         1 NCF     -0.386000
     16 C13        -2.3500   -1.9480   -0.0590 c3        1 NCF     -0.112000
     17 C14        -3.8010   -1.8760    0.5560 c2        1 NCF     -0.383000
     18 C15        -4.9990   -2.4430   -0.0240 c1        1 NCF     -0.136000
     19 C16        -6.2250   -2.1190    0.9430 c1        1 NCF     -0.142000
     20 C17        -5.7210   -1.3620    2.0820 c1        1 NCF     -0.443000
     21 S19        -4.1980   -1.1780    1.8920 ss        1 NCF      0.484000
     22 H2C1        4.2290    3.0830   -1.5270 h1        1 NCF      0.101500
     23 H2C2        4.2440    1.5040   -1.8100 h1        1 NCF      0.101500
     24 H3C1        5.5610    2.0070    0.0590 hc        1 NCF      0.114500
     25 H3C2        4.5000    2.7700    0.8730 hc        1 NCF      0.114500
     26 H6          1.9250    0.0410   -1.1870 h4        1 NCF      0.125000
     27 H7         -0.0440    1.3700    0.2230 h1        1 NCF      0.154000
     28 H8         -0.1630    1.2960   -2.6390 h4        1 NCF      0.111000
     29 H10         0.0880   -1.0420   -0.9330 hn        1 NCF      0.254000
     30 H131       -2.4020   -2.2920   -0.9950 hc        1 NCF      0.117500
     31 H132       -1.7990   -2.5490    0.4760 hc        1 NCF      0.117500
     32 H15        -5.0470   -2.9410   -0.8680 DU        1 NCF      0.180667
     33 H16        -7.1870   -2.3920    0.7920 DU        1 NCF      0.180667
     34 H17        -6.2520   -1.0280    2.8340 DU        1 NCF      0.180667
@<TRIPOS>BOND
     1    1    2 1   
     2    1    9 1   
     3    2    3 1   
     4    2   22 1   
     5    2   23 1   
     6    3    4 1   
     7    3   24 1   
     8    3   25 1   
     9    4    5 1   
    10    4    8 1   
    11    5    6 1   
    12    5    7 1   
    13    9   10 1   
    14    9   26 1   
    15   10   11 1   
    16   10   13 1   
    17   10   27 1   
    18   11   12 1   
    19   11   28 1   
    20   13   14 1   
    21   13   29 1   
    22   14   15 1   
    23   14   16 1   
    24   16   17 1   
    25   16   30 1   
    26   16   31 1   
    27   17   18 1   
    28   17   21 1   
    29   18   19 1   
    30   19   20 1   
    31   20   21 1   
@<TRIPOS>SUBSTRUCTURE
     1 NCF         1 TEMP              0 ****  ****    0 ROOT
