@<TRIPOS>MOLECULE
NCH
   37    33     1     0     0
SMALL
bcc


@<TRIPOS>ATOM
      1 O4         -1.3640   -1.3710   -0.8280 o         1 NCH     -1.161000
      2 P1         -0.1910   -0.9630    0.0040 p3        1 NCH      2.561000
      3 O1         -0.5900   -0.9130    1.4310 os        1 NCH     -1.083000
      4 O3          0.9850   -2.0200   -0.1800 os        1 NCH     -0.699000
      5 O2          0.3110    0.4590   -0.4500 os        1 NCH     -0.723000
      6 C1         -0.6370    1.3820   -0.9990 c3        1 NCH      0.045000
      7 C2         -0.1710    2.8510   -0.6920 c3        1 NCH     -0.145000
      8 N1         -0.8680    3.7550   -1.5470 n4        1 NCH      0.050000
      9 C3         -0.4920    5.1230   -1.2320 c3        1 NCH     -0.197000
     10 C5         -0.5400    3.4840   -2.8730 c3        1 NCH     -0.197000
     11 C4         -2.2630    3.5940   -1.3640 c3        1 NCH     -0.197000
     12 C1A         1.4280   -5.1470    2.6580 c1        1 NCH     -0.172000
     13 N1A         1.6710   -6.3050    3.5550 n2        1 NCH      0.464400
     14 O1N         2.6700   -6.2340    4.5430 o         1 NCH     -0.319200
     15 O2N         0.9650   -7.3450    3.4430 o         1 NCH     -0.319200
     16 C2A         0.4620   -5.2420    1.6560 c2        1 NCH     -0.045000
     17 C3A         0.3140   -4.2250    0.7450 c1        1 NCH     -0.199000
     18 C4A         1.1280   -3.0930    0.8170 c1        1 NCH      0.208000
     19 C5A         2.0790   -2.9950    1.8000 c1        1 NCH     -0.177000
     20 C6A         2.2330   -4.0330    2.7330 c1        1 NCH     -0.043000
     21 H11        -0.6920    1.2560   -1.9480 h1        1 NCH      0.101000
     22 H12        -1.5540    1.2210   -0.5810 h1        1 NCH      0.101000
     23 H21         0.8180    2.9310   -0.8550 hx        1 NCH      0.122500
     24 H22        -0.3650    3.0650    0.2320 hx        1 NCH      0.122500
     25 H31        -0.7810    5.7190   -1.9640 hx        1 NCH      0.139667
     26 H32        -0.9360    5.4060   -0.3750 hx        1 NCH      0.139667
     27 H33         0.4690    5.1790   -1.1320 hx        1 NCH      0.139667
     28 H51        -0.8740    4.1960   -3.4380 hx        1 NCH      0.139667
     29 H52        -0.9460    2.6320   -3.1440 hx        1 NCH      0.139667
     30 H53         0.4490    3.4230   -2.9640 hx        1 NCH      0.139667
     31 H41        -2.4530    3.4650   -0.4210 hx        1 NCH      0.139667
     32 H42        -2.5650    2.8220   -1.8620 hx        1 NCH      0.139667
     33 H43        -2.7360    4.4050   -1.6880 hx        1 NCH      0.139667
     34 H2A        -0.1980   -5.9860    1.6750 ha        1 NCH      0.163000
     35 H3A        -0.3900   -4.2970    0.0160 ha        1 NCH      0.155000
     36 H5A         2.6560   -2.1920    1.8500 ha        1 NCH      0.161000
     37 H6A         2.9680   -4.0060    3.3770 ha        1 NCH      0.165000
@<TRIPOS>BOND
     1    1    2 1   
     2    2    4 1   
     3    2    5 1   
     4    4   18 1   
     5    5    6 1   
     6    6    7 1   
     7    6   21 1   
     8    6   22 1   
     9    7    8 1   
    10    7   23 1   
    11    7   24 1   
    12    8    9 1   
    13    8   10 1   
    14    8   11 1   
    15    9   25 1   
    16    9   26 1   
    17    9   27 1   
    18   10   28 1   
    19   10   29 1   
    20   10   30 1   
    21   11   31 1   
    22   11   32 1   
    23   11   33 1   
    24   12   16 1   
    25   12   20 1   
    26   13   14 2   
    27   13   15 2   
    28   16   17 1   
    29   16   34 1   
    30   17   35 1   
    31   18   19 1   
    32   19   36 1   
    33   20   37 1   
@<TRIPOS>SUBSTRUCTURE
     1 NCH         1 TEMP              0 ****  ****    0 ROOT
