@<TRIPOS>MOLECULE
NCH
   37    37     1     0     0
SMALL
bcc


@<TRIPOS>ATOM
      1 O4         -1.4810    1.2160   -0.1390 o         1 NCH     -0.810500
      2 P1         -1.0570   -0.1780   -0.3720 p5        1 NCH      1.447800
      3 O1         -0.8670   -0.7990   -1.6850 o         1 NCH     -0.810500
      4 O3          0.1550   -0.5860    0.6760 os        1 NCH     -0.481500
      5 O2         -2.2910   -1.0170    0.3730 os        1 NCH     -0.564200
      6 C1         -3.2930   -1.4800   -0.4610 c3        1 NCH      0.180400
      7 C2         -4.6690   -0.9530   -0.0090 c3        1 NCH      0.087800
      8 N1         -4.8580    0.5410   -0.0040 n4        1 NCH     -0.584800
      9 C3         -4.3320    1.1510   -1.2590 c3        1 NCH      0.078100
     10 C5         -4.1690    1.1520    1.1740 c3        1 NCH      0.078100
     11 C4         -6.3200    0.8230    0.0970 c3        1 NCH      0.078100
     12 C1A         4.1660    0.3370    0.2250 ca        1 NCH     -0.213200
     13 N1A         5.6080    0.6500    0.0990 no        1 NCH      0.318200
     14 O1N         6.0340    1.6630    0.5910 o         1 NCH     -0.222000
     15 O2N         6.3260   -0.1150   -0.4910 o         1 NCH     -0.222000
     16 C2A         3.3220    1.2200    0.9200 ca        1 NCH     -0.048500
     17 C3A         1.9720    0.9240    1.0410 ca        1 NCH     -0.181500
     18 C4A         1.4490   -0.2500    0.4580 ca        1 NCH      0.234100
     19 C5A         2.3070   -1.1360   -0.2270 ca        1 NCH     -0.181500
     20 C6A         3.6570   -0.8410   -0.3490 ca        1 NCH     -0.048500
     21 H11        -3.3660   -2.6030   -0.3650 h1        1 NCH      0.067200
     22 H12        -3.0880   -1.2160   -1.5370 h1        1 NCH      0.067200
     23 H21        -4.8560   -1.3090    1.0430 hx        1 NCH      0.082200
     24 H22        -5.4440   -1.3890   -0.7000 hx        1 NCH      0.082200
     25 H31        -3.1960    1.1340   -1.2290 hx        1 NCH      0.101033
     26 H32        -4.7100    0.5730   -2.1400 hx        1 NCH      0.101033
     27 H33        -4.6700    2.2170   -1.3210 hx        1 NCH      0.101033
     28 H51        -4.3270    2.2600    1.1530 hx        1 NCH      0.101033
     29 H52        -4.5880    0.7120    2.1140 hx        1 NCH      0.101033
     30 H53        -3.0540    0.9370    1.1000 hx        1 NCH      0.101033
     31 H41        -6.8400    0.4500   -0.8240 hx        1 NCH      0.101033
     32 H42        -6.7370    0.3080    1.0010 hx        1 NCH      0.101033
     33 H43        -6.4790    1.9300    0.1910 hx        1 NCH      0.101033
     34 H2A         3.7320    2.1400    1.3710 ha        1 NCH      0.165500
     35 H3A         1.3010    1.6030    1.5890 ha        1 NCH      0.163500
     36 H5A         1.8980   -2.0560   -0.6730 ha        1 NCH      0.163500
     37 H6A         4.3290   -1.5290   -0.8910 ha        1 NCH      0.165500
@<TRIPOS>BOND
     1    1    2 1   
     2    2    3 1   
     3    2    4 1   
     4    2    5 1   
     5    4   18 1   
     6    5    6 1   
     7    6    7 1   
     8    6   21 1   
     9    6   22 1   
    10    7    8 1   
    11    7   23 1   
    12    7   24 1   
    13    8    9 1   
    14    8   10 1   
    15    8   11 1   
    16    9   25 1   
    17    9   26 1   
    18    9   27 1   
    19   10   28 1   
    20   10   29 1   
    21   10   30 1   
    22   11   31 1   
    23   11   32 1   
    24   11   33 1   
    25   12   13 1   
    26   12   16 ar  
    27   12   20 ar  
    28   13   14 1   
    29   13   15 1   
    30   16   17 ar  
    31   16   34 1   
    32   17   18 ar  
    33   17   35 1   
    34   18   19 ar  
    35   19   20 ar  
    36   19   36 1   
    37   20   37 1   
@<TRIPOS>SUBSTRUCTURE
     1 NCH         1 TEMP              0 ****  ****    0 ROOT
