@<TRIPOS>MOLECULE
NCH
   37    37     1     0     0
SMALL
bcc


@<TRIPOS>ATOM
      1 O4          0.1820    0.5430   -1.2690 o         1 NCH     -0.810500
      2 P1          1.0650    0.3750   -0.0980 p5        1 NCH      1.447800
      3 O1          0.7240    0.7340    1.2800 o         1 NCH     -0.810500
      4 O3          1.8350   -1.0860   -0.1740 os        1 NCH     -0.481500
      5 O2          2.3570    1.3350   -0.5310 os        1 NCH     -0.564200
      6 C1          2.3640    2.6120    0.0020 c3        1 NCH      0.180400
      7 C2          2.4340    3.6720   -1.1140 c3        1 NCH      0.087800
      8 N1          1.3000    3.6950   -2.1040 n4        1 NCH     -0.584800
      9 C3         -0.0180    3.5970   -1.4110 c3        1 NCH      0.078100
     10 C5          1.4340    2.5700   -3.0800 c3        1 NCH      0.078100
     11 C4          1.3610    4.9860   -2.8510 c3        1 NCH      0.078100
     12 C1A         0.2370   -4.7360    0.9510 ca        1 NCH     -0.213200
     13 N1A        -0.3010   -6.0590    1.3410 no        1 NCH      0.318200
     14 O1N        -0.8570   -6.7340    0.5140 o         1 NCH     -0.222000
     15 O2N        -0.1700   -6.4350    2.4770 o         1 NCH     -0.222000
     16 C2A         0.0980   -4.2930   -0.3760 ca        1 NCH     -0.048500
     17 C3A         0.6050   -3.0540   -0.7410 ca        1 NCH     -0.181500
     18 C4A         1.2470   -2.2400    0.2170 ca        1 NCH      0.234100
     19 C5A         1.3930   -2.7000    1.5430 ca        1 NCH     -0.181500
     20 C6A         0.8860   -3.9380    1.9100 ca        1 NCH     -0.048500
     21 H11         1.4740    2.7830    0.6730 h1        1 NCH      0.067200
     22 H12         3.3100    2.7590    0.6020 h1        1 NCH      0.067200
     23 H21         3.3780    3.5020   -1.7040 hx        1 NCH      0.082200
     24 H22         2.4720    4.6840   -0.6210 hx        1 NCH      0.082200
     25 H31        -0.0440    4.3240   -0.5600 hx        1 NCH      0.101033
     26 H32        -0.8360    3.8250   -2.1410 hx        1 NCH      0.101033
     27 H33        -0.1580    2.5350   -1.0330 hx        1 NCH      0.101033
     28 H51         2.4100    2.6630   -3.6180 hx        1 NCH      0.101033
     29 H52         0.5790    2.6120   -3.8030 hx        1 NCH      0.101033
     30 H53         1.3880    1.5840   -2.5130 hx        1 NCH      0.101033
     31 H41         1.1720    5.8370   -2.1460 hx        1 NCH      0.101033
     32 H42         2.3740    5.0990   -3.3170 hx        1 NCH      0.101033
     33 H43         0.5780    4.9870   -3.6540 hx        1 NCH      0.101033
     34 H2A        -0.4090   -4.9280   -1.1220 ha        1 NCH      0.165500
     35 H3A         0.5080   -2.6990   -1.7790 ha        1 NCH      0.163500
     36 H5A         1.9030   -2.0670    2.2860 ha        1 NCH      0.163500
     37 H6A         0.9930   -4.2960    2.9480 ha        1 NCH      0.165500
@<TRIPOS>BOND
     1    1    2 1   
     2    2    3 1   
     3    2    4 1   
     4    2    5 1   
     5    4   18 1   
     6    5    6 1   
     7    6    7 1   
     8    6   21 1   
     9    6   22 1   
    10    7    8 1   
    11    7   23 1   
    12    7   24 1   
    13    8    9 1   
    14    8   10 1   
    15    8   11 1   
    16    9   25 1   
    17    9   26 1   
    18    9   27 1   
    19   10   28 1   
    20   10   29 1   
    21   10   30 1   
    22   11   31 1   
    23   11   32 1   
    24   11   33 1   
    25   12   13 1   
    26   12   16 ar  
    27   12   20 ar  
    28   13   14 1   
    29   13   15 1   
    30   16   17 ar  
    31   16   34 1   
    32   17   18 ar  
    33   17   35 1   
    34   18   19 ar  
    35   19   20 ar  
    36   19   36 1   
    37   20   37 1   
@<TRIPOS>SUBSTRUCTURE
     1 NCH         1 TEMP              0 ****  ****    0 ROOT
