@<TRIPOS>MOLECULE
NCH
   37    37     1     0     0
SMALL
bcc


@<TRIPOS>ATOM
      1 O4         -0.2040    0.8670   -2.7240 o         1 NCH     -0.802000
      2 P1         -0.1830    0.1730   -1.4230 p5        1 NCH      1.446800
      3 O1         -1.1900    0.2870   -0.3660 o         1 NCH     -0.802000
      4 O3          0.2970   -1.3860   -1.6490 os        1 NCH     -0.479500
      5 O2          1.2350    0.7680   -0.7620 os        1 NCH     -0.581200
      6 C1          1.1000    1.8630    0.0710 c3        1 NCH      0.184400
      7 C2          1.9590    3.0430   -0.4220 c3        1 NCH      0.087800
      8 N1          1.6320    3.6030   -1.7810 n4        1 NCH     -0.584800
      9 C3          0.1610    3.7860   -1.9430 c3        1 NCH      0.078100
     10 C5          2.1450    2.6990   -2.8570 c3        1 NCH      0.078100
     11 C4          2.3030    4.9300   -1.9110 c3        1 NCH      0.078100
     12 C1A         0.8630   -4.2700    1.2690 ca        1 NCH     -0.214200
     13 N1A         1.0770   -5.3220    2.2870 no        1 NCH      0.318200
     14 O1N         0.1650   -6.0470    2.5870 o         1 NCH     -0.223000
     15 O2N         2.1630   -5.4320    2.7970 o         1 NCH     -0.223000
     16 C2A        -0.4060   -4.1160    0.6820 ca        1 NCH     -0.047000
     17 C3A        -0.6050   -3.1290   -0.2730 ca        1 NCH     -0.180500
     18 C4A         0.4570   -2.2770   -0.6410 ca        1 NCH      0.249100
     19 C5A         1.7290   -2.4470   -0.0550 ca        1 NCH     -0.180500
     20 C6A         1.9310   -3.4350    0.8980 ca        1 NCH     -0.047000
     21 H11         0.0190    2.1630    0.1810 h1        1 NCH      0.065200
     22 H12         1.5150    1.6090    1.0910 h1        1 NCH      0.065200
     23 H21         3.0340    2.7090   -0.4570 hx        1 NCH      0.082200
     24 H22         1.8470    3.8800    0.3230 hx        1 NCH      0.082200
     25 H31        -0.2480    4.3150   -1.0460 hx        1 NCH      0.101033
     26 H32        -0.0360    4.3850   -2.8700 hx        1 NCH      0.101033
     27 H33        -0.3270    2.7670   -2.0630 hx        1 NCH      0.101033
     28 H51         3.2540    2.5970   -2.7530 hx        1 NCH      0.101033
     29 H52         1.8800    3.1350   -3.8540 hx        1 NCH      0.101033
     30 H53         1.6420    1.6840   -2.7540 hx        1 NCH      0.101033
     31 H41         1.8650    5.6470   -1.1690 hx        1 NCH      0.101033
     32 H42         3.4010    4.8120   -1.7190 hx        1 NCH      0.101033
     33 H43         2.1450    5.3250   -2.9490 hx        1 NCH      0.101033
     34 H2A        -1.2370   -4.7790    0.9780 ha        1 NCH      0.164000
     35 H3A        -1.5940   -3.0020   -0.7380 ha        1 NCH      0.158500
     36 H5A         2.5570   -1.7900   -0.3590 ha        1 NCH      0.158500
     37 H6A         2.9240   -3.5680    1.3600 ha        1 NCH      0.164000
@<TRIPOS>BOND
     1    1    2 1   
     2    2    3 1   
     3    2    4 1   
     4    2    5 1   
     5    4   18 1   
     6    5    6 1   
     7    6    7 1   
     8    6   21 1   
     9    6   22 1   
    10    7    8 1   
    11    7   23 1   
    12    7   24 1   
    13    8    9 1   
    14    8   10 1   
    15    8   11 1   
    16    9   25 1   
    17    9   26 1   
    18    9   27 1   
    19   10   28 1   
    20   10   29 1   
    21   10   30 1   
    22   11   31 1   
    23   11   32 1   
    24   11   33 1   
    25   12   13 1   
    26   12   16 ar  
    27   12   20 ar  
    28   13   14 1   
    29   13   15 1   
    30   16   17 ar  
    31   16   34 1   
    32   17   18 ar  
    33   17   35 1   
    34   18   19 ar  
    35   19   20 ar  
    36   19   36 1   
    37   20   37 1   
@<TRIPOS>SUBSTRUCTURE
     1 NCH         1 TEMP              0 ****  ****    0 ROOT
