@<TRIPOS>MOLECULE
NCH
   37    37     1     0     0
SMALL
bcc


@<TRIPOS>ATOM
      1 O4          0.1710    0.5520   -1.2530 o         1 NCH     -0.810500
      2 P1          1.0740    0.3800   -0.0980 p5        1 NCH      1.447800
      3 O1          0.7650    0.7550    1.2840 o         1 NCH     -0.810500
      4 O3          1.8210   -1.0930   -0.1770 os        1 NCH     -0.481500
      5 O2          2.3720    1.3170   -0.5640 os        1 NCH     -0.564200
      6 C1          2.4070    2.5980   -0.0420 c3        1 NCH      0.180400
      7 C2          2.4720    3.6470   -1.1690 c3        1 NCH      0.087800
      8 N1          1.3200    3.6780   -2.1390 n4        1 NCH     -0.584800
      9 C3          0.0150    3.6070   -1.4200 c3        1 NCH      0.078100
     10 C5          1.4190    2.5430   -3.1060 c3        1 NCH      0.078100
     11 C4          1.3860    4.9620   -2.8980 c3        1 NCH      0.078100
     12 C1A         0.1940   -4.7090    1.0150 ca        1 NCH     -0.213200
     13 N1A        -0.3540   -6.0200    1.4280 no        1 NCH      0.318200
     14 O1N        -0.9400   -6.6930    0.6190 o         1 NCH     -0.222000
     15 O2N        -0.2040   -6.3890    2.5640 o         1 NCH     -0.222000
     16 C2A         0.0320   -4.2750   -0.3120 ca        1 NCH     -0.048500
     17 C3A         0.5480   -3.0470   -0.7000 ca        1 NCH     -0.181500
     18 C4A         1.2240   -2.2350    0.2360 ca        1 NCH      0.234100
     19 C5A         1.3930   -2.6850    1.5630 ca        1 NCH     -0.181500
     20 C6A         0.8750   -3.9130    1.9520 ca        1 NCH     -0.048500
     21 H11         3.3660    2.7360    0.5390 h1        1 NCH      0.067200
     22 H12         1.5330    2.7880    0.6430 h1        1 NCH      0.067200
     23 H21         2.5350    4.6620   -0.6860 hx        1 NCH      0.082200
     24 H22         3.4020    3.4580   -1.7750 hx        1 NCH      0.082200
     25 H31        -0.1340    2.5500   -1.0290 hx        1 NCH      0.101033
     26 H32         0.0150    4.3420   -0.5750 hx        1 NCH      0.101033
     27 H33        -0.8140    3.8410   -2.1370 hx        1 NCH      0.101033
     28 H51         1.3690    1.5630   -2.5300 hx        1 NCH      0.101033
     29 H52         2.3860    2.6170   -3.6630 hx        1 NCH      0.101033
     30 H53         0.5520    2.5910   -3.8140 hx        1 NCH      0.101033
     31 H41         2.3920    5.0550   -3.3840 hx        1 NCH      0.101033
     32 H42         1.2240    5.8220   -2.1970 hx        1 NCH      0.101033
     33 H43         0.5890    4.9680   -3.6860 hx        1 NCH      0.101033
     34 H2A        -0.5010   -4.9090   -1.0420 ha        1 NCH      0.165500
     35 H3A         0.4340   -2.6990   -1.7380 ha        1 NCH      0.163500
     36 H5A         1.9280   -2.0540    2.2890 ha        1 NCH      0.163500
     37 H6A         1.0000   -4.2630    2.9910 ha        1 NCH      0.165500
@<TRIPOS>BOND
     1    1    2 1   
     2    2    3 1   
     3    2    4 1   
     4    2    5 1   
     5    4   18 1   
     6    5    6 1   
     7    6    7 1   
     8    6   21 1   
     9    6   22 1   
    10    7    8 1   
    11    7   23 1   
    12    7   24 1   
    13    8    9 1   
    14    8   10 1   
    15    8   11 1   
    16    9   25 1   
    17    9   26 1   
    18    9   27 1   
    19   10   28 1   
    20   10   29 1   
    21   10   30 1   
    22   11   31 1   
    23   11   32 1   
    24   11   33 1   
    25   12   13 1   
    26   12   16 ar  
    27   12   20 ar  
    28   13   14 1   
    29   13   15 1   
    30   16   17 ar  
    31   16   34 1   
    32   17   18 ar  
    33   17   35 1   
    34   18   19 ar  
    35   19   20 ar  
    36   19   36 1   
    37   20   37 1   
@<TRIPOS>SUBSTRUCTURE
     1 NCH         1 TEMP              0 ****  ****    0 ROOT
