@<TRIPOS>MOLECULE
NCI
   85    83     1     0     0
SMALL
bcc


@<TRIPOS>ATOM
      1 O39        -0.4500    4.1120    4.9710 o         1 NCI     -0.351000
      2 C9          0.5340    3.4000    5.0200 c1        1 NCI      0.312000
      3 C10         1.2460    3.1590    6.3700 c2        1 NCI     -0.187000
      4 C13         0.1870    3.0560    7.5040 c3        1 NCI     -0.053000
      5 N16         0.8710    3.0050    8.8130 n3        1 NCI     -0.274000
      6 C18        -0.2030    3.0410    9.9700 c3        1 NCI     -0.003000
      7 C20        -0.9070    4.3100    9.9150 c3        1 NCI     -0.157000
      8 C23        -2.1390    4.2500   10.8210 c3        1 NCI     -0.214000
      9 C27         0.3940    2.8770   11.3400 c3        1 NCI     -0.161000
     10 C30         1.6060    2.3320   11.2840 c3        1 NCI     -0.149000
     11 C33         1.9690    1.3580   10.4630 c3        1 NCI     -0.153000
     12 C36         1.3600    1.5320    9.0930 c3        1 NCI     -0.055000
     13 N7          1.0410    2.7800    3.8120 n3        1 NCI     -0.330000
     14 C6          0.3760    3.0090    2.5490 c2        1 NCI      0.104000
     15 C40        -0.7940    3.7430    2.3720 c2        1 NCI     -0.146000
     16 C42        -1.4770    3.6850    1.1550 c1        1 NCI     -0.089000
     17 C4          0.8660    2.2160    1.5130 c1        1 NCI     -0.198000
     18 C3          0.1760    2.1570    0.2830 c1        1 NCI      0.064000
     19 N1          0.6630    1.3620   -0.7510 n2        1 NCI     -0.156000
     20 C44        -0.9830    2.8840    0.1070 c1        1 NCI     -0.115000
     21 C45        -1.6650    2.8220   -1.1050 c2        1 NCI     -0.045000
     22 C2         -1.1760    2.0240   -2.1410 c1        1 NCI     -0.115000
     23 C47        -1.8620    1.9720   -3.3800 c2        1 NCI     -0.090000
     24 C49        -1.3650    1.1850   -4.4240 c1        1 NCI     -0.146000
     25 C51        -0.1950    0.4510   -4.2460 c1        1 NCI      0.105000
     26 C85         0.4840    0.5010   -3.0230 c1        1 NCI     -0.199000
     27 C87        -0.0200    1.2990   -1.9650 c1        1 NCI      0.064000
     28 N52         0.5130   -0.5140   -5.0830 n         1 NCI     -0.330000
     29 C54        -0.1350   -1.0640   -6.2620 c2        1 NCI      0.311000
     30 O84        -1.2630   -0.7210   -6.5500 o         1 NCI     -0.353000
     31 C55         0.6400   -2.0430   -7.1920 c3        1 NCI     -0.187000
     32 C58        -0.3080   -3.1730   -7.6510 c3        1 NCI     -0.056000
     33 N61         0.4530   -4.1890   -8.3500 n3        1 NCI     -0.274000
     34 C63        -0.4320   -5.2940   -8.7180 c3        1 NCI     -0.004000
     35 C77        -0.9290   -5.9600   -7.4590 c3        1 NCI     -0.161000
     36 C80        -2.0620   -6.9030   -7.8010 c3        1 NCI     -0.212000
     37 C66         0.2620   -6.3290   -9.5800 c3        1 NCI     -0.155000
     38 C69         0.9300   -5.7290  -10.7470 c3        1 NCI     -0.158000
     39 C72         1.8190   -4.6160  -10.3700 c3        1 NCI     -0.158000
     40 C75         1.1210   -3.5880   -9.5060 c3        1 NCI     -0.056000
     41 H10         1.7580    2.3240    6.3250 ha        1 NCI      0.112500
     42 H10A        1.8510    3.9030    6.5570 ha        1 NCI      0.112500
     43 H13        -0.3460    2.2410    7.3810 h1        1 NCI      0.091500
     44 H13A       -0.4000    3.8390    7.4720 h1        1 NCI      0.091500
     45 H18        -0.8460    2.3190    9.8210 h1        1 NCI      0.067000
     46 H20        -1.1870    4.4880    8.9950 hc        1 NCI      0.086500
     47 H20A       -0.3130    5.0260   10.2200 hc        1 NCI      0.086500
     48 H23        -1.9930    3.5860   11.5300 hc        1 NCI      0.073000
     49 H23A       -2.2920    5.1300   11.2250 hc        1 NCI      0.073000
     50 H23B       -2.9250    3.9930   10.2880 hc        1 NCI      0.073000
     51 H27         0.4590    3.7570   11.7680 hc        1 NCI      0.084000
     52 H27A       -0.1910    2.3010   11.8770 hc        1 NCI      0.084000
     53 H30         2.2260    3.0720   11.1150 hc        1 NCI      0.082000
     54 H30A        1.7970    2.0030   12.1950 hc        1 NCI      0.082000
     55 H33         2.9450    1.3560   10.3810 hc        1 NCI      0.082000
     56 H33A        1.6760    0.4960   10.8380 hc        1 NCI      0.082000
     57 H36         0.5960    0.9250    9.0100 h1        1 NCI      0.065500
     58 H36A        2.0270    1.2900    8.4220 h1        1 NCI      0.065500
     59 HN7         1.8110    2.2940    3.8390 hn        1 NCI      0.231000
     60 H40        -1.1160    4.3320    3.0860 ha        1 NCI      0.177000
     61 H42        -2.2990    4.2000    1.0310 ha        1 NCI      0.137000
     62 H4          1.7160    1.7530    1.6170 ha        1 NCI      0.147000
     63 H45        -2.4910    3.3310   -1.2280 ha        1 NCI      0.139000
     64 H47        -2.6830    2.4860   -3.5050 ha        1 NCI      0.137000
     65 H49        -1.8350    1.1500   -5.2720 ha        1 NCI      0.178000
     66 H85         1.3020   -0.0120   -2.8990 ha        1 NCI      0.147000
     67 HN52        1.3350   -0.8240   -4.8270 hn        1 NCI      0.232000
     68 H55         0.9730   -1.5550   -7.9770 hc        1 NCI      0.113500
     69 H55A        1.3950   -2.4280   -6.7040 hc        1 NCI      0.113500
     70 H58        -0.7430   -3.5730   -6.8680 h1        1 NCI      0.093000
     71 H58A       -0.9900   -2.8040   -8.2520 h1        1 NCI      0.093000
     72 H63        -1.1980   -4.9350   -9.2090 h1        1 NCI      0.060000
     73 H77        -1.2480   -5.2810   -6.8360 hc        1 NCI      0.084000
     74 H77A       -0.1990   -6.4640   -7.0460 hc        1 NCI      0.084000
     75 H80        -2.0900   -7.0410   -8.7720 hc        1 NCI      0.074667
     76 H80A       -1.9180   -7.7640   -7.3520 hc        1 NCI      0.074667
     77 H80B       -2.9110   -6.5160   -7.5010 hc        1 NCI      0.074667
     78 H66         0.9270   -6.7960   -9.0400 hc        1 NCI      0.087000
     79 H66A       -0.4010   -6.9750   -9.8940 hc        1 NCI      0.087000
     80 H69         1.4590   -6.4180  -11.1990 hc        1 NCI      0.080500
     81 H69A        0.2510   -5.3950  -11.3640 hc        1 NCI      0.080500
     82 H72         2.1410   -4.1780  -11.1840 hc        1 NCI      0.087000
     83 H72A        2.5870   -4.9750   -9.8770 hc        1 NCI      0.087000
     84 H75         0.4540   -3.1190  -10.0490 h1        1 NCI      0.069000
     85 H75A        1.7820   -2.9410   -9.1870 h1        1 NCI      0.069000
@<TRIPOS>BOND
     1    1    2 1   
     2    2   13 1   
     3    3    4 1   
     4    3   41 1   
     5    3   42 1   
     6    4    5 1   
     7    4   43 1   
     8    4   44 1   
     9    5    6 1   
    10    5   12 1   
    11    6    7 1   
    12    6    9 1   
    13    6   45 1   
    14    7    8 1   
    15    7   46 1   
    16    7   47 1   
    17    8   48 1   
    18    8   49 1   
    19    8   50 1   
    20    9   10 1   
    21    9   51 1   
    22    9   52 1   
    23   10   11 1   
    24   10   53 1   
    25   10   54 1   
    26   11   12 1   
    27   11   55 1   
    28   11   56 1   
    29   12   57 1   
    30   12   58 1   
    31   13   14 1   
    32   13   59 1   
    33   14   15 1   
    34   14   17 1   
    35   15   16 1   
    36   15   60 1   
    37   16   61 1   
    38   17   62 1   
    39   18   19 1   
    40   18   20 1   
    41   19   27 1   
    42   20   21 1   
    43   21   22 1   
    44   21   63 1   
    45   22   23 1   
    46   23   24 1   
    47   23   64 1   
    48   24   65 1   
    49   25   26 1   
    50   25   28 1   
    51   26   66 1   
    52   28   29 1   
    53   28   67 1   
    54   29   30 1   
    55   29   31 1   
    56   31   32 1   
    57   31   68 1   
    58   31   69 1   
    59   32   33 1   
    60   32   70 1   
    61   32   71 1   
    62   33   34 1   
    63   33   40 1   
    64   34   35 1   
    65   34   37 1   
    66   34   72 1   
    67   35   36 1   
    68   35   73 1   
    69   35   74 1   
    70   36   75 1   
    71   36   76 1   
    72   36   77 1   
    73   37   38 1   
    74   37   78 1   
    75   37   79 1   
    76   38   39 1   
    77   38   80 1   
    78   38   81 1   
    79   39   40 1   
    80   39   82 1   
    81   39   83 1   
    82   40   84 1   
    83   40   85 1   
@<TRIPOS>SUBSTRUCTURE
     1 NCI         1 TEMP              0 ****  ****    0 ROOT
