@<TRIPOS>MOLECULE
NCI
   85    89     1     0     0
SMALL
bcc


@<TRIPOS>ATOM
      1 O39        -6.4270   -1.8310    0.3360 o         1 NCI     -0.590100
      2 C9         -6.1150   -0.6280    0.3880 c         1 NCI      0.668100
      3 C10        -7.1630    0.4710    0.4670 c3        1 NCI     -0.157400
      4 C13        -8.5640   -0.1500    0.4560 c3        1 NCI      0.175800
      5 N16        -9.6100    0.8660    0.4670 n3        1 NCI     -0.734600
      6 C18       -10.8290    0.4620   -0.2460 c3        1 NCI      0.192500
      7 C20       -10.6030    0.1020   -1.7250 c3        1 NCI     -0.077400
      8 C23        -9.7610    1.0880   -2.4890 c3        1 NCI     -0.083100
      9 C27       -11.9180    1.5480   -0.1850 c3        1 NCI     -0.076400
     10 C30       -12.2070    1.9810    1.2340 c3        1 NCI     -0.079400
     11 C33       -10.9300    2.4250    1.9110 c3        1 NCI     -0.077400
     12 C36        -9.8770    1.3250    1.8250 c3        1 NCI      0.172800
     13 N7         -4.7960   -0.1840    0.3840 n         1 NCI     -0.476100
     14 C6         -3.6200   -0.9460    0.3040 ca        1 NCI      0.096600
     15 C40        -3.6400   -2.3880    0.3350 ca        1 NCI     -0.146000
     16 C42        -2.4770   -3.0920    0.2650 ca        1 NCI     -0.089000
     17 C4         -2.4070   -0.2830    0.2050 ca        1 NCI     -0.263300
     18 C3         -1.1640   -1.0050    0.1310 ca        1 NCI      0.457600
     19 N1          0.0000   -0.3150    0.0360 nb        1 NCI     -0.682000
     20 C44        -1.2110   -2.4440    0.1620 ca        1 NCI     -0.180300
     21 C45        -0.0060   -3.1500    0.0890 ca        1 NCI     -0.045000
     22 C2          1.2020   -2.4530   -0.0100 ca        1 NCI     -0.180300
     23 C47         2.4650   -3.1100   -0.0880 ca        1 NCI     -0.089000
     24 C49         3.6310   -2.4140   -0.1840 ca        1 NCI     -0.146000
     25 C51         3.6180   -0.9710   -0.2090 ca        1 NCI      0.096600
     26 C85         2.4070   -0.3000   -0.1340 ca        1 NCI     -0.263300
     27 C87         1.1610   -1.0130   -0.0340 ca        1 NCI      0.457600
     28 N52         4.7970   -0.2190   -0.3170 n         1 NCI     -0.476100
     29 C54         6.1140   -0.6680   -0.3040 c         1 NCI      0.668100
     30 O84         6.4210   -1.8690   -0.2060 o         1 NCI     -0.590100
     31 C55         7.1670    0.4230   -0.4240 c3        1 NCI     -0.157400
     32 C58         8.5650   -0.2040   -0.3900 c3        1 NCI      0.175800
     33 N61         9.6150    0.8050   -0.4390 n3        1 NCI     -0.734600
     34 C63        10.8320    0.4230    0.2890 c3        1 NCI      0.192500
     35 C77        10.6050    0.1210    1.7800 c3        1 NCI     -0.077400
     36 C80         9.7670    1.1390    2.5060 c3        1 NCI     -0.083100
     37 C66        11.9270    1.5020    0.1870 c3        1 NCI     -0.076400
     38 C69        12.2180    1.8800   -1.2470 c3        1 NCI     -0.079400
     39 C72        10.9430    2.3030   -1.9400 c3        1 NCI     -0.077400
     40 C75         9.8840    1.2130   -1.8130 c3        1 NCI      0.172800
     41 H10        -7.0040    1.0670    1.4030 hc        1 NCI      0.073200
     42 H10A       -7.0470    1.1640   -0.4090 hc        1 NCI      0.073200
     43 H13        -8.6430   -0.7840   -0.4710 h1        1 NCI      0.053700
     44 H13A       -8.6440   -0.8520    1.3380 h1        1 NCI      0.053700
     45 H18       -11.2620   -0.4660    0.2490 h1        1 NCI      0.017700
     46 H20       -10.1420   -0.9180   -1.7960 hc        1 NCI      0.040200
     47 H20A      -11.6160    0.0280   -2.2060 hc        1 NCI      0.040200
     48 H23        -9.7520    0.8220   -3.5740 hc        1 NCI      0.034367
     49 H23A      -10.1620    2.1240   -2.3810 hc        1 NCI      0.034367
     50 H23B       -8.7060    1.0840   -2.1190 hc        1 NCI      0.034367
     51 H27       -11.5970    2.4360   -0.7900 hc        1 NCI      0.048200
     52 H27A      -12.8490    1.1340   -0.6510 hc        1 NCI      0.048200
     53 H30       -12.9510    2.8200    1.2310 hc        1 NCI      0.041200
     54 H30A      -12.6620    1.1300    1.8060 hc        1 NCI      0.041200
     55 H33       -10.5480    3.3600    1.4250 hc        1 NCI      0.047200
     56 H33A      -11.1190    2.6520    2.9910 hc        1 NCI      0.047200
     57 H36       -10.2030    0.4710    2.4910 h1        1 NCI      0.027700
     58 H36A       -8.9070    1.7230    2.2380 h1        1 NCI      0.027700
     59 HN7        -4.6600    0.8030    0.4010 hn        1 NCI      0.317500
     60 H40        -4.6040   -2.9180    0.4140 ha        1 NCI      0.177000
     61 H42        -2.4940   -4.1940    0.2870 ha        1 NCI      0.137000
     62 H4         -2.3550    0.8180    0.1790 ha        1 NCI      0.147000
     63 H45        -0.0090   -4.2510    0.1100 ha        1 NCI      0.139000
     64 H47         2.4770   -4.2120   -0.0690 ha        1 NCI      0.137000
     65 H49         4.5920   -2.9510   -0.2430 ha        1 NCI      0.177000
     66 H85         2.3610    0.8010   -0.1500 ha        1 NCI      0.147000
     67 HN52        4.6650    0.7680   -0.3710 hn        1 NCI      0.317500
     68 H55         7.0110    0.9830   -1.3830 hc        1 NCI      0.073200
     69 H55A        7.0530    1.1480    0.4250 hc        1 NCI      0.073200
     70 H58         8.6420   -0.8030    0.5600 h1        1 NCI      0.053700
     71 H58A        8.6420   -0.9390   -1.2440 h1        1 NCI      0.053700
     72 H63        11.2610   -0.5240   -0.1710 h1        1 NCI      0.017700
     73 H77        10.1390   -0.8940    1.8900 hc        1 NCI      0.040200
     74 H77A       11.6170    0.0600    2.2640 hc        1 NCI      0.040200
     75 H80         8.7130    1.1250    2.1370 hc        1 NCI      0.034367
     76 H80A        9.7580    0.9140    3.6010 hc        1 NCI      0.034367
     77 H80B       10.1730    2.1680    2.3600 hc        1 NCI      0.034367
     78 H66        11.6090    2.4130    0.7580 hc        1 NCI      0.048200
     79 H66A       12.8560    1.1010    0.6680 hc        1 NCI      0.048200
     80 H69        12.9650    2.7140   -1.2760 hc        1 NCI      0.041200
     81 H69A       12.6690    1.0050   -1.7860 hc        1 NCI      0.041200
     82 H72        10.5650    3.2570   -1.4900 hc        1 NCI      0.047200
     83 H72A       11.1330    2.4890   -3.0280 hc        1 NCI      0.047200
     84 H75        10.2070    0.3320   -2.4460 h1        1 NCI      0.027700
     85 H75A        8.9160    1.5990   -2.2410 h1        1 NCI      0.027700
@<TRIPOS>BOND
     1    1    2 2   
     2    2    3 1   
     3    2   13 1   
     4    3    4 1   
     5    3   41 1   
     6    3   42 1   
     7    4    5 1   
     8    4   43 1   
     9    4   44 1   
    10    5    6 1   
    11    5   12 1   
    12    6    7 1   
    13    6    9 1   
    14    6   45 1   
    15    7    8 1   
    16    7   46 1   
    17    7   47 1   
    18    8   48 1   
    19    8   49 1   
    20    8   50 1   
    21    9   10 1   
    22    9   51 1   
    23    9   52 1   
    24   10   11 1   
    25   10   53 1   
    26   10   54 1   
    27   11   12 1   
    28   11   55 1   
    29   11   56 1   
    30   12   57 1   
    31   12   58 1   
    32   13   14 1   
    33   13   59 1   
    34   14   15 ar  
    35   14   17 ar  
    36   15   16 ar  
    37   15   60 1   
    38   16   20 ar  
    39   16   61 1   
    40   17   18 ar  
    41   17   62 1   
    42   18   19 ar  
    43   18   20 ar  
    44   19   27 ar  
    45   20   21 ar  
    46   21   22 ar  
    47   21   63 1   
    48   22   23 ar  
    49   22   27 ar  
    50   23   24 ar  
    51   23   64 1   
    52   24   25 ar  
    53   24   65 1   
    54   25   26 ar  
    55   25   28 1   
    56   26   27 ar  
    57   26   66 1   
    58   28   29 1   
    59   28   67 1   
    60   29   30 2   
    61   29   31 1   
    62   31   32 1   
    63   31   68 1   
    64   31   69 1   
    65   32   33 1   
    66   32   70 1   
    67   32   71 1   
    68   33   34 1   
    69   33   40 1   
    70   34   35 1   
    71   34   37 1   
    72   34   72 1   
    73   35   36 1   
    74   35   73 1   
    75   35   74 1   
    76   36   75 1   
    77   36   76 1   
    78   36   77 1   
    79   37   38 1   
    80   37   78 1   
    81   37   79 1   
    82   38   39 1   
    83   38   80 1   
    84   38   81 1   
    85   39   40 1   
    86   39   82 1   
    87   39   83 1   
    88   40   84 1   
    89   40   85 1   
@<TRIPOS>SUBSTRUCTURE
     1 NCI         1 TEMP              0 ****  ****    0 ROOT
