@<TRIPOS>MOLECULE
NCI
   87    91     1     0     0
SMALL
bcc


@<TRIPOS>ATOM
      1 O39         2.8030   -3.1840   -0.7680 o         1 NCI     -0.410600
      2 C9          3.0410   -2.0240   -0.4890 c         1 NCI      0.570600
      3 C10         2.4530   -1.1220    0.5430 c3        1 NCI     -0.166900
      4 C13         1.3500   -1.8730    1.3260 c3        1 NCI      0.165800
      5 N16         0.8540   -1.0440    2.4040 n3        1 NCI     -0.765100
      6 C18        -0.4990   -0.5160    2.1770 c3        1 NCI      0.179000
      7 C20        -0.6310    0.3030    0.8830 c3        1 NCI     -0.087900
      8 C23         0.1540    1.5890    0.8710 c3        1 NCI     -0.090600
      9 C27        -0.9930    0.3440    3.3520 c3        1 NCI     -0.075900
     10 C30        -0.8810   -0.3930    4.6670 c3        1 NCI     -0.085900
     11 C33         0.5470   -0.8380    4.8820 c3        1 NCI     -0.077900
     12 C36         1.0300   -1.6810    3.7070 c3        1 NCI      0.163300
     13 N7          4.1630   -1.3890   -1.3380 n4        1 NCI     -0.559700
     14 C6          3.6430   -0.7990   -2.5750 ca        1 NCI     -0.018400
     15 C40         3.2620    0.5870   -2.5590 ca        1 NCI     -0.139500
     16 C42         2.7890    1.1660   -3.6990 ca        1 NCI     -0.053000
     17 C4          3.5390   -1.5640   -3.7130 ca        1 NCI     -0.105300
     18 C3          3.0410   -0.9670   -4.9330 ca        1 NCI      0.421100
     19 N1          2.9530   -1.7350   -6.0460 nb        1 NCI     -0.618000
     20 C44         2.6640    0.4220   -4.9130 ca        1 NCI     -0.134800
     21 C45         2.1870    0.9980   -6.0980 ca        1 NCI     -0.029000
     22 C2          2.0930    0.2170   -7.2570 ca        1 NCI     -0.134800
     23 C47         1.6160    0.7460   -8.4970 ca        1 NCI     -0.053000
     24 C49         1.5370   -0.0310   -9.6140 ca        1 NCI     -0.139500
     25 C51         1.9380   -1.4110   -9.5500 ca        1 NCI     -0.018400
     26 C85         2.4010   -1.9720   -8.3830 ca        1 NCI     -0.105300
     27 C87         2.4930   -1.1640   -7.1860 ca        1 NCI      0.421100
     28 N52         1.8300   -2.2140  -10.7700 n4        1 NCI     -0.559700
     29 C54         3.1740   -2.6580  -11.3360 c         1 NCI      0.570600
     30 O84         3.9400   -3.1820  -10.5430 o         1 NCI     -0.410600
     31 C55         3.4050   -2.4270  -12.7990 c3        1 NCI     -0.166900
     32 C58         2.1890   -2.6090  -13.7120 c3        1 NCI      0.165800
     33 N61         1.2200   -3.5800  -13.2200 n3        1 NCI     -0.765100
     34 C63        -0.0390   -3.5660  -13.9930 c3        1 NCI      0.179000
     35 C77        -0.7220   -2.1940  -14.0990 c3        1 NCI     -0.087900
     36 C80        -0.9000   -1.4540  -12.8000 c3        1 NCI     -0.090600
     37 C66        -1.0510   -4.5780  -13.4280 c3        1 NCI     -0.075900
     38 C69        -0.4700   -5.9730  -13.3710 c3        1 NCI     -0.085900
     39 C72         0.8350   -5.9740  -12.6090 c3        1 NCI     -0.077900
     40 C75         1.7910   -4.9300  -13.1770 c3        1 NCI      0.163300
     41 H10         3.2570   -0.7820    1.2540 hc        1 NCI      0.118450
     42 H10A        2.0140   -0.2110    0.0480 hc        1 NCI      0.118450
     43 H13         0.5430   -2.1640    0.5940 h1        1 NCI      0.065700
     44 H13A        1.8030   -2.8310    1.7140 h1        1 NCI      0.065700
     45 H18        -1.2200   -1.3890    2.0790 h1        1 NCI      0.042200
     46 H20        -1.7230    0.5370    0.7550 hc        1 NCI      0.051950
     47 H20A       -0.3320   -0.3260    0.0030 hc        1 NCI      0.051950
     48 H23         0.1960    2.0030   -0.1660 hc        1 NCI      0.032367
     49 H23A       -0.3310    2.3540    1.5260 hc        1 NCI      0.032367
     50 H23B        1.1980    1.4370    1.2380 hc        1 NCI      0.032367
     51 H27        -2.0610    0.6200    3.1520 hc        1 NCI      0.057200
     52 H27A       -0.3960    1.2920    3.4070 hc        1 NCI      0.057200
     53 H30        -1.5640   -1.2830    4.6670 hc        1 NCI      0.060950
     54 H30A       -1.2040    0.2780    5.5050 hc        1 NCI      0.060950
     55 H33         1.2090    0.0570    5.0110 hc        1 NCI      0.056200
     56 H33A        0.6260   -1.4590    5.8120 hc        1 NCI      0.056200
     57 H36         2.1330   -1.8770    3.8330 h1        1 NCI      0.037950
     58 H36A        0.4960   -2.6770    3.7420 h1        1 NCI      0.037950
     59 HN7         4.6300   -0.6570   -0.7900 hn        1 NCI      0.472800
     60 H40         3.3550    1.1770   -1.6330 ha        1 NCI      0.164500
     61 H42         2.4950    2.2310   -3.7040 ha        1 NCI      0.176000
     62 H4          3.8230   -2.6330   -3.7380 ha        1 NCI      0.189500
     63 H45         1.8880    2.0600   -6.1180 ha        1 NCI      0.174000
     64 H47         1.3110    1.8070   -8.5310 ha        1 NCI      0.176000
     65 H49         1.1620    0.3940  -10.5600 ha        1 NCI      0.164500
     66 H85         2.7300   -3.0270   -8.3260 ha        1 NCI      0.189500
     67 HN52        1.3170   -1.6790  -11.4890 hn        1 NCI      0.472800
     68 H55         4.2230   -3.1430  -13.1040 hc        1 NCI      0.118450
     69 H55A        3.8060   -1.3830  -12.9280 hc        1 NCI      0.118450
     70 H58         1.6710   -1.6120  -13.8140 h1        1 NCI      0.065700
     71 H58A        2.5880   -2.8800  -14.7350 h1        1 NCI      0.065700
     72 H63         0.1880   -3.8880  -15.0600 h1        1 NCI      0.042200
     73 H77        -0.1600   -1.5500  -14.8270 hc        1 NCI      0.051950
     74 H77A       -1.7330   -2.3770  -14.5580 hc        1 NCI      0.051950
     75 H80        -1.0270   -2.1580  -11.9430 hc        1 NCI      0.032367
     76 H80A       -0.0270   -0.7840  -12.5940 hc        1 NCI      0.032367
     77 H80B       -1.8080   -0.8020  -12.8530 hc        1 NCI      0.032367
     78 H66        -1.3820   -4.2600  -12.4050 hc        1 NCI      0.057200
     79 H66A       -1.9540   -4.5750  -14.0930 hc        1 NCI      0.057200
     80 H69        -0.2990   -6.3540  -14.4130 hc        1 NCI      0.060950
     81 H69A       -1.2000   -6.6670  -12.8790 hc        1 NCI      0.060950
     82 H72         0.6430   -5.7710  -11.5240 hc        1 NCI      0.056200
     83 H72A        1.3270   -6.9790  -12.6840 hc        1 NCI      0.056200
     84 H75         2.7110   -4.8900  -12.5260 h1        1 NCI      0.037950
     85 H75A        2.1180   -5.2660  -14.2060 h1        1 NCI      0.037950
     86 H721        4.8510   -2.1160   -1.5790 hn        1 NCI      0.472800
     87 H522        1.2820   -3.0660  -10.5710 hn        1 NCI      0.472800
@<TRIPOS>BOND
     1    1    2 2   
     2    2    3 1   
     3    2   13 1   
     4    3    4 1   
     5    3   41 1   
     6    3   42 1   
     7    4    5 1   
     8    4   43 1   
     9    4   44 1   
    10    5    6 1   
    11    5   12 1   
    12    6    7 1   
    13    6    9 1   
    14    6   45 1   
    15    7    8 1   
    16    7   46 1   
    17    7   47 1   
    18    8   48 1   
    19    8   49 1   
    20    8   50 1   
    21    9   10 1   
    22    9   51 1   
    23    9   52 1   
    24   10   11 1   
    25   10   53 1   
    26   10   54 1   
    27   11   12 1   
    28   11   55 1   
    29   11   56 1   
    30   12   57 1   
    31   12   58 1   
    32   13   14 1   
    33   13   59 1   
    34   13   86 1   
    35   14   15 ar  
    36   14   17 ar  
    37   15   16 ar  
    38   15   60 1   
    39   16   20 ar  
    40   16   61 1   
    41   17   18 ar  
    42   17   62 1   
    43   18   19 ar  
    44   18   20 ar  
    45   19   27 ar  
    46   20   21 ar  
    47   21   22 ar  
    48   21   63 1   
    49   22   23 ar  
    50   22   27 ar  
    51   23   24 ar  
    52   23   64 1   
    53   24   25 ar  
    54   24   65 1   
    55   25   26 ar  
    56   25   28 1   
    57   26   27 ar  
    58   26   66 1   
    59   28   29 1   
    60   28   67 1   
    61   28   87 1   
    62   29   30 2   
    63   29   31 1   
    64   31   32 1   
    65   31   68 1   
    66   31   69 1   
    67   32   33 1   
    68   32   70 1   
    69   32   71 1   
    70   33   34 1   
    71   33   40 1   
    72   34   35 1   
    73   34   37 1   
    74   34   72 1   
    75   35   36 1   
    76   35   73 1   
    77   35   74 1   
    78   36   75 1   
    79   36   76 1   
    80   36   77 1   
    81   37   38 1   
    82   37   78 1   
    83   37   79 1   
    84   38   39 1   
    85   38   80 1   
    86   38   81 1   
    87   39   40 1   
    88   39   82 1   
    89   39   83 1   
    90   40   84 1   
    91   40   85 1   
@<TRIPOS>SUBSTRUCTURE
     1 NCI         1 TEMP              0 ****  ****    0 ROOT
