@<TRIPOS>MOLECULE
NCI
   85    89     1     0     0
SMALL
bcc


@<TRIPOS>ATOM
      1 O39        -0.6350    0.4490    0.4630 o         1 NCI     -0.590100
      2 C9          0.3780   -0.2520    0.2940 c         1 NCI      0.668100
      3 C10         1.2800   -0.6520    1.4510 c3        1 NCI     -0.157400
      4 C13         0.7390   -0.0600    2.7560 c3        1 NCI      0.175800
      5 N16         1.6030   -0.3600    3.8900 n3        1 NCI     -0.734600
      6 C18         1.6030    0.6830    4.9230 c3        1 NCI      0.192500
      7 C20         2.0360    2.0700    4.4160 c3        1 NCI     -0.077400
      8 C23         3.2790    2.0680    3.5670 c3        1 NCI     -0.083100
      9 C27         2.5030    0.3140    6.1160 c3        1 NCI     -0.076400
     10 C30         2.1630   -1.0450    6.6830 c3        1 NCI     -0.079400
     11 C33         2.2160   -2.0900    5.5910 c3        1 NCI     -0.077400
     12 C36         1.3170   -1.6860    4.4280 c3        1 NCI      0.172800
     13 N7          0.7710   -0.7300   -0.9520 ns        1 NCI     -0.476100
     14 C6          0.1610   -0.5250   -2.1990 ca        1 NCI      0.097600
     15 C40        -1.0870    0.1860   -2.3310 ca        1 NCI     -0.146000
     16 C42        -1.6530    0.3580   -3.5570 ca        1 NCI     -0.089000
     17 C4          0.7790   -1.0320   -3.3310 ca        1 NCI     -0.263300
     18 C3          0.2010   -0.8640   -4.6380 ca        1 NCI      0.457600
     19 N1          0.8410   -1.3780   -5.7190 nb        1 NCI     -0.682000
     20 C44        -1.0450   -0.1490   -4.7440 ca        1 NCI     -0.180300
     21 C45        -1.6100    0.0180   -6.0110 ca        1 NCI     -0.045000
     22 C2         -0.9620   -0.5060   -7.1340 ca        1 NCI     -0.180300
     23 C47        -1.4830   -0.3710   -8.4560 ca        1 NCI     -0.089000
     24 C49        -0.8380   -0.8870   -9.5370 ca        1 NCI     -0.146000
     25 C51         0.4080   -1.5970   -9.3710 ca        1 NCI      0.097600
     26 C85         0.9420   -1.7460   -8.1010 ca        1 NCI     -0.263300
     27 C87         0.2810   -1.2080   -6.9420 ca        1 NCI      0.457600
     28 N52         1.1070   -2.1360  -10.4620 ns        1 NCI     -0.476100
     29 C54         0.7240   -2.1800  -11.7990 c         1 NCI      0.668100
     30 O84        -0.3450   -1.7020  -12.2160 o         1 NCI     -0.590100
     31 C55         1.7180   -2.8580  -12.7300 c3        1 NCI     -0.157400
     32 C58         1.1760   -2.8410  -14.1630 c3        1 NCI      0.175800
     33 N61         2.0620   -3.5360  -15.0880 n3        1 NCI     -0.734600
     34 C63         1.3580   -4.1850  -16.2020 c3        1 NCI      0.192500
     35 C77         0.3080   -5.2210  -15.7640 c3        1 NCI     -0.077400
     36 C80         0.7800   -6.1850  -14.7090 c3        1 NCI     -0.083100
     37 C66         2.3310   -4.8800  -17.1720 c3        1 NCI     -0.076400
     38 C69         3.4150   -3.9430  -17.6550 c3        1 NCI     -0.079400
     39 C72         4.1350   -3.3330  -16.4740 c3        1 NCI     -0.077400
     40 C75         3.1390   -2.6590  -15.5370 c3        1 NCI      0.172800
     41 H10         2.3200   -0.2730    1.2630 hc        1 NCI      0.073200
     42 H10A        1.3250   -1.7700    1.5150 hc        1 NCI      0.073200
     43 H13        -0.3120   -0.4470    2.9080 h1        1 NCI      0.053700
     44 H13A        0.6560    1.0540    2.6110 h1        1 NCI      0.053700
     45 H18         0.5490    0.8050    5.3320 h1        1 NCI      0.017700
     46 H20         2.2060    2.7150    5.3200 hc        1 NCI      0.040200
     47 H20A        1.1930    2.5410    3.8440 hc        1 NCI      0.040200
     48 H23         3.5940    3.1170    3.3490 hc        1 NCI      0.034367
     49 H23A        4.1180    1.5470    4.0880 hc        1 NCI      0.034367
     50 H23B        3.0980    1.5470    2.5950 hc        1 NCI      0.034367
     51 H27         2.3720    1.0970    6.9070 hc        1 NCI      0.048200
     52 H27A        3.5770    0.3280    5.7930 hc        1 NCI      0.048200
     53 H30         2.8830   -1.3070    7.5000 hc        1 NCI      0.041200
     54 H30A        1.1360   -1.0220    7.1340 hc        1 NCI      0.041200
     55 H33         3.2720   -2.2120    5.2350 hc        1 NCI      0.047200
     56 H33A        1.8690   -3.0800    5.9820 hc        1 NCI      0.047200
     57 H36         1.4600   -2.4240    3.5880 h1        1 NCI      0.027700
     58 H36A        0.2410   -1.7660    4.7690 h1        1 NCI      0.027700
     59 HN7         1.6130   -1.2650   -0.9770 hn        1 NCI      0.317500
     60 H40        -1.5820    0.5900   -1.4320 ha        1 NCI      0.177000
     61 H42        -2.6060    0.9020   -3.6570 ha        1 NCI      0.137000
     62 H4          1.7340   -1.5810   -3.2670 ha        1 NCI      0.147000
     63 H45        -2.5620    0.5600   -6.1250 ha        1 NCI      0.139000
     64 H47        -2.4350    0.1700   -8.5830 ha        1 NCI      0.137000
     65 H49        -1.2660   -0.7660  -10.5460 ha        1 NCI      0.177000
     66 H85         1.8920   -2.2820   -7.9390 ha        1 NCI      0.147000
     67 HN52        1.9740   -2.5720  -10.2340 hn        1 NCI      0.317500
     68 H55         2.7010   -2.3210  -12.6760 hc        1 NCI      0.073200
     69 H55A        1.8810   -3.9170  -12.3970 hc        1 NCI      0.073200
     70 H58         1.0070   -1.7650  -14.4630 h1        1 NCI      0.053700
     71 H58A        0.1640   -3.3350  -14.1460 h1        1 NCI      0.053700
     72 H63         0.8020   -3.3970  -16.8040 h1        1 NCI      0.017700
     73 H77         0.0050   -5.7930  -16.6810 hc        1 NCI      0.040200
     74 H77A       -0.6130   -4.6910  -15.4010 hc        1 NCI      0.040200
     75 H80         0.0080   -6.9760  -14.5420 hc        1 NCI      0.034367
     76 H80A        0.9600   -5.6600  -13.7390 hc        1 NCI      0.034367
     77 H80B        1.7320   -6.6800  -15.0170 hc        1 NCI      0.034367
     78 H66         2.7980   -5.7640  -16.6650 hc        1 NCI      0.048200
     79 H66A        1.7410   -5.2580  -18.0460 hc        1 NCI      0.048200
     80 H69         4.1410   -4.5030  -18.3000 hc        1 NCI      0.041200
     81 H69A        2.9630   -3.1310  -18.2830 hc        1 NCI      0.041200
     82 H72         4.7030   -4.1270  -15.9240 hc        1 NCI      0.047200
     83 H72A        4.8720   -2.5630  -16.8220 hc        1 NCI      0.047200
     84 H75         3.6880   -2.3100  -14.6170 h1        1 NCI      0.027700
     85 H75A        2.7300   -1.7400  -16.0560 h1        1 NCI      0.027700
@<TRIPOS>BOND
     1    1    2 2   
     2    2    3 1   
     3    2   13 1   
     4    3    4 1   
     5    3   41 1   
     6    3   42 1   
     7    4    5 1   
     8    4   43 1   
     9    4   44 1   
    10    5    6 1   
    11    5   12 1   
    12    6    7 1   
    13    6    9 1   
    14    6   45 1   
    15    7    8 1   
    16    7   46 1   
    17    7   47 1   
    18    8   48 1   
    19    8   49 1   
    20    8   50 1   
    21    9   10 1   
    22    9   51 1   
    23    9   52 1   
    24   10   11 1   
    25   10   53 1   
    26   10   54 1   
    27   11   12 1   
    28   11   55 1   
    29   11   56 1   
    30   12   57 1   
    31   12   58 1   
    32   13   14 1   
    33   13   59 1   
    34   14   15 ar  
    35   14   17 ar  
    36   15   16 ar  
    37   15   60 1   
    38   16   20 ar  
    39   16   61 1   
    40   17   18 ar  
    41   17   62 1   
    42   18   19 ar  
    43   18   20 ar  
    44   19   27 ar  
    45   20   21 ar  
    46   21   22 ar  
    47   21   63 1   
    48   22   23 ar  
    49   22   27 ar  
    50   23   24 ar  
    51   23   64 1   
    52   24   25 ar  
    53   24   65 1   
    54   25   26 ar  
    55   25   28 1   
    56   26   27 ar  
    57   26   66 1   
    58   28   29 1   
    59   28   67 1   
    60   29   30 2   
    61   29   31 1   
    62   31   32 1   
    63   31   68 1   
    64   31   69 1   
    65   32   33 1   
    66   32   70 1   
    67   32   71 1   
    68   33   34 1   
    69   33   40 1   
    70   34   35 1   
    71   34   37 1   
    72   34   72 1   
    73   35   36 1   
    74   35   73 1   
    75   35   74 1   
    76   36   75 1   
    77   36   76 1   
    78   36   77 1   
    79   37   38 1   
    80   37   78 1   
    81   37   79 1   
    82   38   39 1   
    83   38   80 1   
    84   38   81 1   
    85   39   40 1   
    86   39   82 1   
    87   39   83 1   
    88   40   84 1   
    89   40   85 1   
@<TRIPOS>SUBSTRUCTURE
     1 NCI         1 TEMP              0 ****  ****    0 ROOT
