@<TRIPOS>MOLECULE
NCI
   85    89     1     0     0
SMALL
bcc


@<TRIPOS>ATOM
      1 O39        -0.6410    0.4260    0.4690 o         1 NCI     -0.590100
      2 C9          0.3820   -0.2600    0.2960 c         1 NCI      0.668100
      3 C10         1.2940   -0.6460    1.4500 c3        1 NCI     -0.157400
      4 C13         0.7460   -0.0660    2.7570 c3        1 NCI      0.175800
      5 N16         1.6180   -0.3540    3.8890 n3        1 NCI     -0.734600
      6 C18         1.6030    0.6880    4.9240 c3        1 NCI      0.192500
      7 C20         2.0120    2.0830    4.4180 c3        1 NCI     -0.077400
      8 C23         3.2520    2.1020    3.5660 c3        1 NCI     -0.083100
      9 C27         2.5120    0.3320    6.1140 c3        1 NCI     -0.076400
     10 C30         2.1950   -1.0340    6.6790 c3        1 NCI     -0.079400
     11 C33         2.2640   -2.0750    5.5860 c3        1 NCI     -0.077400
     12 C36         1.3550   -1.6850    4.4260 c3        1 NCI      0.172800
     13 N7          0.7790   -0.7310   -0.9510 n         1 NCI     -0.476100
     14 C6          0.1620   -0.5360   -2.1960 ca        1 NCI      0.097600
     15 C40        -1.0970    0.1590   -2.3240 ca        1 NCI     -0.146000
     16 C42        -1.6690    0.3220   -3.5490 ca        1 NCI     -0.089000
     17 C4          0.7820   -1.0360   -3.3300 ca        1 NCI     -0.263300
     18 C3          0.1970   -0.8770   -4.6350 ca        1 NCI      0.457600
     19 N1          0.8390   -1.3840   -5.7170 nb        1 NCI     -0.682000
     20 C44        -1.0580   -0.1790   -4.7370 ca        1 NCI     -0.180300
     21 C45        -1.6310   -0.0210   -6.0030 ca        1 NCI     -0.045000
     22 C2         -0.9800   -0.5370   -7.1270 ca        1 NCI     -0.180300
     23 C47        -1.5080   -0.4110   -8.4470 ca        1 NCI     -0.089000
     24 C49        -0.8600   -0.9210   -9.5300 ca        1 NCI     -0.146000
     25 C51         0.3960   -1.6130   -9.3680 ca        1 NCI      0.097600
     26 C85         0.9370   -1.7540   -8.1000 ca        1 NCI     -0.263300
     27 C87         0.2720   -1.2230   -6.9390 ca        1 NCI      0.457600
     28 N52         1.0970   -2.1460  -10.4600 n         1 NCI     -0.476100
     29 C54         0.7140   -2.1890  -11.7970 c         1 NCI      0.668100
     30 O84        -0.3590   -1.7180  -12.2120 o         1 NCI     -0.590100
     31 C55         1.7120   -2.8570  -12.7300 c3        1 NCI     -0.157400
     32 C58         1.1690   -2.8410  -14.1630 c3        1 NCI      0.175800
     33 N61         2.0590   -3.5280  -15.0910 n3        1 NCI     -0.734600
     34 C63         1.3590   -4.1780  -16.2060 c3        1 NCI      0.192500
     35 C77         0.3140   -5.2200  -15.7700 c3        1 NCI     -0.077400
     36 C80         0.7910   -6.1850  -14.7180 c3        1 NCI     -0.083100
     37 C66         2.3360   -4.8650  -17.1770 c3        1 NCI     -0.076400
     38 C69         3.4140   -3.9210  -17.6580 c3        1 NCI     -0.079400
     39 C72         4.1310   -3.3100  -16.4760 c3        1 NCI     -0.077400
     40 C75         3.1310   -2.6440  -15.5370 c3        1 NCI      0.172800
     41 H10         2.3270   -0.2490    1.2600 hc        1 NCI      0.073200
     42 H10A        1.3580   -1.7640    1.5120 hc        1 NCI      0.073200
     43 H13         0.6440    1.0470    2.6150 h1        1 NCI      0.053700
     44 H13A       -0.2980   -0.4700    2.9120 h1        1 NCI      0.053700
     45 H18         0.5480    0.7910    5.3360 h1        1 NCI      0.017700
     46 H20         2.1730    2.7290    5.3230 hc        1 NCI      0.040200
     47 H20A        1.1600    2.5400    3.8490 hc        1 NCI      0.040200
     48 H23         3.0770    1.5810    2.5930 hc        1 NCI      0.034367
     49 H23A        4.1010    1.5950    4.0840 hc        1 NCI      0.034367
     50 H23B        3.5500    3.1580    3.3490 hc        1 NCI      0.034367
     51 H27         2.3700    1.1110    6.9070 hc        1 NCI      0.048200
     52 H27A        3.5850    0.3640    5.7890 hc        1 NCI      0.048200
     53 H30         2.9220   -1.2850    7.4950 hc        1 NCI      0.041200
     54 H30A        1.1690   -1.0280    7.1330 hc        1 NCI      0.041200
     55 H33         3.3200   -2.1800    5.2260 hc        1 NCI      0.047200
     56 H33A        1.9330   -3.0720    5.9750 hc        1 NCI      0.047200
     57 H36         0.2810   -1.7830    4.7690 h1        1 NCI      0.027700
     58 H36A        1.5080   -2.4180    3.5840 h1        1 NCI      0.027700
     59 HN7         1.6290   -1.2530   -0.9790 hn        1 NCI      0.317500
     60 H40        -1.5930    0.5580   -1.4240 ha        1 NCI      0.178000
     61 H42        -2.6300    0.8540   -3.6460 ha        1 NCI      0.137000
     62 H4          1.7440   -1.5720   -3.2680 ha        1 NCI      0.147000
     63 H45        -2.5900    0.5080   -6.1130 ha        1 NCI      0.139000
     64 H47        -2.4670    0.1170   -8.5710 ha        1 NCI      0.137000
     65 H49        -1.2940   -0.8060  -10.5370 ha        1 NCI      0.178000
     66 H85         1.8940   -2.2770   -7.9400 ha        1 NCI      0.147000
     67 HN52        1.9690   -2.5730  -10.2340 hn        1 NCI      0.317500
     68 H55         1.8830   -3.9160  -12.4000 hc        1 NCI      0.073200
     69 H55A        2.6920   -2.3140  -12.6750 hc        1 NCI      0.073200
     70 H58         0.9940   -1.7640  -14.4610 h1        1 NCI      0.053700
     71 H58A        0.1600   -3.3400  -14.1470 h1        1 NCI      0.053700
     72 H63         0.7980   -3.3910  -16.8050 h1        1 NCI      0.017700
     73 H77         0.0140   -5.7920  -16.6890 hc        1 NCI      0.040200
     74 H77A       -0.6090   -4.6970  -15.4060 hc        1 NCI      0.040200
     75 H80         0.9680   -5.6620  -13.7470 hc        1 NCI      0.034367
     76 H80A        1.7460   -6.6740  -15.0280 hc        1 NCI      0.034367
     77 H80B        0.0230   -6.9800  -14.5530 hc        1 NCI      0.034367
     78 H66         2.8070   -5.7480  -16.6730 hc        1 NCI      0.048200
     79 H66A        1.7470   -5.2440  -18.0530 hc        1 NCI      0.048200
     80 H69         2.9570   -3.1100  -18.2850 hc        1 NCI      0.041200
     81 H69A        4.1430   -4.4760  -18.3050 hc        1 NCI      0.041200
     82 H72         4.8630   -2.5360  -16.8220 hc        1 NCI      0.047200
     83 H72A        4.7030   -4.1030  -15.9280 hc        1 NCI      0.047200
     84 H75         3.6790   -2.2950  -14.6160 h1        1 NCI      0.027700
     85 H75A        2.7180   -1.7260  -16.0540 h1        1 NCI      0.027700
@<TRIPOS>BOND
     1    1    2 2   
     2    2    3 1   
     3    2   13 1   
     4    3    4 1   
     5    3   41 1   
     6    3   42 1   
     7    4    5 1   
     8    4   43 1   
     9    4   44 1   
    10    5    6 1   
    11    5   12 1   
    12    6    7 1   
    13    6    9 1   
    14    6   45 1   
    15    7    8 1   
    16    7   46 1   
    17    7   47 1   
    18    8   48 1   
    19    8   49 1   
    20    8   50 1   
    21    9   10 1   
    22    9   51 1   
    23    9   52 1   
    24   10   11 1   
    25   10   53 1   
    26   10   54 1   
    27   11   12 1   
    28   11   55 1   
    29   11   56 1   
    30   12   57 1   
    31   12   58 1   
    32   13   14 1   
    33   13   59 1   
    34   14   15 ar  
    35   14   17 ar  
    36   15   16 ar  
    37   15   60 1   
    38   16   20 ar  
    39   16   61 1   
    40   17   18 ar  
    41   17   62 1   
    42   18   19 ar  
    43   18   20 ar  
    44   19   27 ar  
    45   20   21 ar  
    46   21   22 ar  
    47   21   63 1   
    48   22   23 ar  
    49   22   27 ar  
    50   23   24 ar  
    51   23   64 1   
    52   24   25 ar  
    53   24   65 1   
    54   25   26 ar  
    55   25   28 1   
    56   26   27 ar  
    57   26   66 1   
    58   28   29 1   
    59   28   67 1   
    60   29   30 2   
    61   29   31 1   
    62   31   32 1   
    63   31   68 1   
    64   31   69 1   
    65   32   33 1   
    66   32   70 1   
    67   32   71 1   
    68   33   34 1   
    69   33   40 1   
    70   34   35 1   
    71   34   37 1   
    72   34   72 1   
    73   35   36 1   
    74   35   73 1   
    75   35   74 1   
    76   36   75 1   
    77   36   76 1   
    78   36   77 1   
    79   37   38 1   
    80   37   78 1   
    81   37   79 1   
    82   38   39 1   
    83   38   80 1   
    84   38   81 1   
    85   39   40 1   
    86   39   82 1   
    87   39   83 1   
    88   40   84 1   
    89   40   85 1   
@<TRIPOS>SUBSTRUCTURE
     1 NCI         1 TEMP              0 ****  ****    0 ROOT
