@<TRIPOS>MOLECULE
NCJ
   79    83     1     0     0
SMALL
bcc


@<TRIPOS>ATOM
      1 O39        -0.4070    0.4330    0.4510 o         1 NCJ     -0.588100
      2 C9          0.5480   -0.3490    0.3050 c         1 NCJ      0.669100
      3 C10         1.4120   -0.7920    1.4770 c3        1 NCJ     -0.157400
      4 C13         0.9770   -0.0530    2.7440 c3        1 NCJ      0.171800
      5 N16         1.9050   -0.2210    3.8560 n3        1 NCJ     -0.726600
      6 C18         1.6280    0.7170    4.9570 c3        1 NCJ      0.185500
      7 C20         1.7110    2.1850    4.5320 c3        1 NCJ     -0.096100
      8 C27         2.6000    0.5200    6.1340 c3        1 NCJ     -0.076400
      9 C30         2.6080   -0.9110    6.6180 c3        1 NCJ     -0.079400
     10 C33         2.9150   -1.8450    5.4700 c3        1 NCJ     -0.077400
     11 C36         1.9540   -1.6070    4.3100 c3        1 NCJ      0.166800
     12 N7          0.9030   -0.8930   -0.9250 n         1 NCJ     -0.476100
     13 C6          0.3150   -0.6680   -2.1790 ca        1 NCJ      0.096600
     14 C40        -0.9090    0.0830   -2.3240 ca        1 NCJ     -0.145000
     15 C42        -1.4580    0.2700   -3.5560 ca        1 NCJ     -0.089000
     16 C4          0.9270   -1.1980   -3.3050 ca        1 NCJ     -0.262300
     17 C3          0.3650   -1.0160   -4.6170 ca        1 NCJ      0.456600
     18 N1          0.9970   -1.5540   -5.6900 nb        1 NCJ     -0.682000
     19 C44        -0.8560   -0.2610   -4.7350 ca        1 NCJ     -0.180300
     20 C45        -1.4050   -0.0800   -6.0090 ca        1 NCJ     -0.045000
     21 C2         -0.7640   -0.6280   -7.1240 ca        1 NCJ     -0.180300
     22 C47        -1.2690   -0.4810   -8.4500 ca        1 NCJ     -0.089000
     23 C49        -0.6320   -1.0210   -9.5250 ca        1 NCJ     -0.145000
     24 C51         0.5890   -1.7700   -9.3460 ca        1 NCJ      0.096600
     25 C85         1.1070   -1.9340   -8.0710 ca        1 NCJ     -0.262300
     26 C87         0.4530   -1.3700   -6.9190 ca        1 NCJ      0.456600
     27 N52         1.2820   -2.3300  -10.4300 n         1 NCJ     -0.476100
     28 C54         0.8830   -2.4110  -11.7600 c         1 NCJ      0.669100
     29 O84        -0.1930   -1.9460  -12.1760 o         1 NCJ     -0.588100
     30 C55         1.8710   -3.1040  -12.6870 c3        1 NCJ     -0.157400
     31 C58         1.2730   -3.2090  -14.0920 c3        1 NCJ      0.171800
     32 N61         2.0380   -4.0770  -14.9780 n3        1 NCJ     -0.726600
     33 C63         1.2990   -4.4020  -16.2100 c3        1 NCJ      0.185500
     34 C77        -0.0330   -5.1060  -15.9460 c3        1 NCJ     -0.096100
     35 C66         2.1210   -5.3020  -17.1490 c3        1 NCJ     -0.076400
     36 C69         3.4730   -4.7020  -17.4580 c3        1 NCJ     -0.079400
     37 C72         4.2120   -4.4010  -16.1750 c3        1 NCJ     -0.077400
     38 C75         3.3610   -3.5300  -15.2550 c3        1 NCJ      0.166800
     39 H10         2.4900   -0.5780    1.2560 hc        1 NCJ      0.073700
     40 H10A        1.2940   -1.9000    1.6090 hc        1 NCJ      0.073700
     41 H13         0.9180    1.0440    2.4900 h1        1 NCJ      0.052700
     42 H13A       -0.0690   -0.3910    3.0080 h1        1 NCJ      0.052700
     43 H18         0.5800    0.5350    5.3530 h1        1 NCJ      0.019700
     44 H20         1.7370    2.8270    5.4450 hc        1 NCJ      0.041700
     45 H20A        0.8180    2.4800    3.9300 hc        1 NCJ      0.041700
     46 H20B        2.6320    2.3820    3.9330 hc        1 NCJ      0.041700
     47 H27         3.6320    0.8220    5.8190 hc        1 NCJ      0.047950
     48 H27A        2.2820    1.2000    6.9660 hc        1 NCJ      0.047950
     49 H30         3.3740   -1.0340    7.4280 hc        1 NCJ      0.040700
     50 H30A        1.6090   -1.1690    7.0590 hc        1 NCJ      0.040700
     51 H33         3.9710   -1.6880    5.1280 hc        1 NCJ      0.047200
     52 H33A        2.8160   -2.9120    5.7990 hc        1 NCJ      0.047200
     53 H36         2.2950   -2.2330    3.4380 h1        1 NCJ      0.027200
     54 H36A        0.9290   -1.9760    4.6140 h1        1 NCJ      0.027200
     55 HN7         1.7110   -1.4770   -0.9370 hn        1 NCJ      0.317500
     56 H40        -1.3980    0.5060   -1.4310 ha        1 NCJ      0.177000
     57 H42        -2.3920    0.8440   -3.6660 ha        1 NCJ      0.137000
     58 H4          1.8620   -1.7760   -3.2300 ha        1 NCJ      0.147000
     59 H45        -2.3370    0.4920   -6.1320 ha        1 NCJ      0.139000
     60 H47        -2.2020    0.0910   -8.5880 ha        1 NCJ      0.137000
     61 H49        -1.0470   -0.8900  -10.5380 ha        1 NCJ      0.177000
     62 H85         2.0370   -2.5000   -7.8980 ha        1 NCJ      0.147000
     63 HN52        2.1450   -2.7720  -10.1970 hn        1 NCJ      0.317500
     64 H55         2.1100   -4.1260  -12.2910 hc        1 NCJ      0.073700
     65 H55A        2.8200   -2.5060  -12.7080 hc        1 NCJ      0.073700
     66 H58         0.2340   -3.6330  -13.9830 h1        1 NCJ      0.052700
     67 H58A        1.1660   -2.1640  -14.5080 h1        1 NCJ      0.052700
     68 H63         1.0730   -3.4440  -16.7770 h1        1 NCJ      0.019700
     69 H77        -0.7990   -4.3890  -15.5650 hc        1 NCJ      0.041700
     70 H77A        0.0860   -5.9340  -15.2070 hc        1 NCJ      0.041700
     71 H77B       -0.4130   -5.5370  -16.9040 hc        1 NCJ      0.041700
     72 H66         1.5410   -5.4380  -18.0990 hc        1 NCJ      0.047950
     73 H66A        2.2510   -6.3110  -16.6780 hc        1 NCJ      0.047950
     74 H69         3.3430   -3.7580  -18.0510 hc        1 NCJ      0.040700
     75 H69A        4.0700   -5.4130  -18.0860 hc        1 NCJ      0.040700
     76 H72         4.4740   -5.3590  -15.6550 hc        1 NCJ      0.047200
     77 H72A        5.1670   -3.8570  -16.3930 hc        1 NCJ      0.047200
     78 H75         3.2920   -2.4950  -15.7080 h1        1 NCJ      0.027200
     79 H75A        3.8980   -3.4340  -14.2690 h1        1 NCJ      0.027200
@<TRIPOS>BOND
     1    1    2 2   
     2    2    3 1   
     3    2   12 1   
     4    3    4 1   
     5    3   39 1   
     6    3   40 1   
     7    4    5 1   
     8    4   41 1   
     9    4   42 1   
    10    5    6 1   
    11    5   11 1   
    12    6    7 1   
    13    6    8 1   
    14    6   43 1   
    15    7   44 1   
    16    7   45 1   
    17    7   46 1   
    18    8    9 1   
    19    8   47 1   
    20    8   48 1   
    21    9   10 1   
    22    9   49 1   
    23    9   50 1   
    24   10   11 1   
    25   10   51 1   
    26   10   52 1   
    27   11   53 1   
    28   11   54 1   
    29   12   13 1   
    30   12   55 1   
    31   13   14 ar  
    32   13   16 ar  
    33   14   15 ar  
    34   14   56 1   
    35   15   19 ar  
    36   15   57 1   
    37   16   17 ar  
    38   16   58 1   
    39   17   18 ar  
    40   17   19 ar  
    41   18   26 ar  
    42   19   20 ar  
    43   20   21 ar  
    44   20   59 1   
    45   21   22 ar  
    46   21   26 ar  
    47   22   23 ar  
    48   22   60 1   
    49   23   24 ar  
    50   23   61 1   
    51   24   25 ar  
    52   24   27 1   
    53   25   26 ar  
    54   25   62 1   
    55   27   28 1   
    56   27   63 1   
    57   28   29 2   
    58   28   30 1   
    59   30   31 1   
    60   30   64 1   
    61   30   65 1   
    62   31   32 1   
    63   31   66 1   
    64   31   67 1   
    65   32   33 1   
    66   32   38 1   
    67   33   34 1   
    68   33   35 1   
    69   33   68 1   
    70   34   69 1   
    71   34   70 1   
    72   34   71 1   
    73   35   36 1   
    74   35   72 1   
    75   35   73 1   
    76   36   37 1   
    77   36   74 1   
    78   36   75 1   
    79   37   38 1   
    80   37   76 1   
    81   37   77 1   
    82   38   78 1   
    83   38   79 1   
@<TRIPOS>SUBSTRUCTURE
     1 NCJ         1 TEMP              0 ****  ****    0 ROOT
