@<TRIPOS>MOLECULE
NCJ
   79    83     1     0     0
SMALL
bcc


@<TRIPOS>ATOM
      1 O39        -0.4130    0.4250    0.4530 o         1 NCJ     -0.588100
      2 C9          0.5510   -0.3460    0.3050 c         1 NCJ      0.669100
      3 C10         1.4190   -0.7840    1.4760 c3        1 NCJ     -0.157400
      4 C13         0.9720   -0.0570    2.7470 c3        1 NCJ      0.171800
      5 N16         1.9040   -0.2150    3.8570 n3        1 NCJ     -0.726600
      6 C18         1.6050    0.7080    4.9650 c3        1 NCJ      0.185500
      7 C20         1.6560    2.1800    4.5520 c3        1 NCJ     -0.096100
      8 C27         2.5800    0.5230    6.1410 c3        1 NCJ     -0.076400
      9 C30         2.6190   -0.9120    6.6150 c3        1 NCJ     -0.079400
     10 C33         2.9460   -1.8300    5.4600 c3        1 NCJ     -0.077400
     11 C36         1.9810   -1.6030    4.3000 c3        1 NCJ      0.166800
     12 N7          0.9120   -0.8830   -0.9270 ns        1 NCJ     -0.476100
     13 C6          0.3210   -0.6610   -2.1810 ca        1 NCJ      0.096600
     14 C40        -0.9040    0.0870   -2.3260 ca        1 NCJ     -0.145000
     15 C42        -1.4540    0.2720   -3.5570 ca        1 NCJ     -0.089000
     16 C4          0.9330   -1.1910   -3.3060 ca        1 NCJ     -0.262300
     17 C3          0.3690   -1.0130   -4.6180 ca        1 NCJ      0.456600
     18 N1          1.0010   -1.5520   -5.6910 nb        1 NCJ     -0.682000
     19 C44        -0.8530   -0.2610   -4.7360 ca        1 NCJ     -0.180300
     20 C45        -1.4040   -0.0830   -6.0090 ca        1 NCJ     -0.045000
     21 C2         -0.7640   -0.6320   -7.1240 ca        1 NCJ     -0.180300
     22 C47        -1.2710   -0.4880   -8.4500 ca        1 NCJ     -0.089000
     23 C49        -0.6330   -1.0290   -9.5240 ca        1 NCJ     -0.145000
     24 C51         0.5880   -1.7760   -9.3450 ca        1 NCJ      0.096600
     25 C85         1.1080   -1.9360   -8.0700 ca        1 NCJ     -0.262300
     26 C87         0.4550   -1.3710   -6.9190 ca        1 NCJ      0.456600
     27 N52         1.2810   -2.3380  -10.4290 ns        1 NCJ     -0.476100
     28 C54         0.8830   -2.4160  -11.7600 c         1 NCJ      0.669100
     29 O84        -0.1900   -1.9460  -12.1770 o         1 NCJ     -0.588100
     30 C55         1.8710   -3.1110  -12.6860 c3        1 NCJ     -0.157400
     31 C58         1.2760   -3.2090  -14.0920 c3        1 NCJ      0.171800
     32 N61         2.0360   -4.0820  -14.9790 n3        1 NCJ     -0.726600
     33 C63         1.3020   -4.3850  -16.2200 c3        1 NCJ      0.185500
     34 C77        -0.0430   -5.0690  -15.9720 c3        1 NCJ     -0.096100
     35 C66         2.1180   -5.2920  -17.1590 c3        1 NCJ     -0.076400
     36 C69         3.4820   -4.7110  -17.4520 c3        1 NCJ     -0.079400
     37 C72         4.2150   -4.4300  -16.1610 c3        1 NCJ     -0.077400
     38 C75         3.3700   -3.5540  -15.2410 c3        1 NCJ      0.166800
     39 H10         2.4950   -0.5540    1.2570 hc        1 NCJ      0.073700
     40 H10A        1.3160   -1.8940    1.6010 hc        1 NCJ      0.073700
     41 H13         0.8970    1.0400    2.4970 h1        1 NCJ      0.052700
     42 H13A       -0.0670   -0.4130    3.0090 h1        1 NCJ      0.052700
     43 H18         0.5610    0.4990    5.3590 h1        1 NCJ      0.019700
     44 H20         0.7570    2.4600    3.9520 hc        1 NCJ      0.041700
     45 H20A        1.6660    2.8160    5.4710 hc        1 NCJ      0.041700
     46 H20B        2.5730    2.4020    3.9570 hc        1 NCJ      0.041700
     47 H27         3.6060    0.8490    5.8300 hc        1 NCJ      0.048200
     48 H27A        2.2480    1.1890    6.9790 hc        1 NCJ      0.048200
     49 H30         3.3870   -1.0250    7.4230 hc        1 NCJ      0.040700
     50 H30A        1.6260   -1.1940    7.0530 hc        1 NCJ      0.040700
     51 H33         3.9990   -1.6490    5.1190 hc        1 NCJ      0.047200
     52 H33A        2.8700   -2.9010    5.7800 hc        1 NCJ      0.047200
     53 H36         0.9640   -1.9960    4.6010 h1        1 NCJ      0.027200
     54 H36A        2.3370   -2.2160    3.4240 h1        1 NCJ      0.027200
     55 HN7         1.7250   -1.4600   -0.9400 hn        1 NCJ      0.317500
     56 H40        -1.3930    0.5110   -1.4320 ha        1 NCJ      0.177000
     57 H42        -2.3900    0.8440   -3.6670 ha        1 NCJ      0.137000
     58 H4          1.8690   -1.7680   -3.2310 ha        1 NCJ      0.147000
     59 H45        -2.3370    0.4870   -6.1330 ha        1 NCJ      0.139000
     60 H47        -2.2040    0.0820   -8.5880 ha        1 NCJ      0.137000
     61 H49        -1.0500   -0.9000  -10.5370 ha        1 NCJ      0.177000
     62 H85         2.0400   -2.5000   -7.8980 ha        1 NCJ      0.147000
     63 HN52        2.1430   -2.7810  -10.1950 hn        1 NCJ      0.317500
     64 H55         2.8230   -2.5180  -12.7030 hc        1 NCJ      0.073700
     65 H55A        2.1030   -4.1360  -12.2920 hc        1 NCJ      0.073700
     66 H58         1.1790   -2.1630  -14.5070 h1        1 NCJ      0.052700
     67 H58A        0.2340   -3.6260  -13.9880 h1        1 NCJ      0.052700
     68 H63         1.0970   -3.4200  -16.7810 h1        1 NCJ      0.019700
     69 H77        -0.8000   -4.3430  -15.5910 hc        1 NCJ      0.041700
     70 H77A        0.0560   -5.9050  -15.2400 hc        1 NCJ      0.041700
     71 H77B       -0.4230   -5.4850  -16.9360 hc        1 NCJ      0.041700
     72 H66         1.5430   -5.4120  -18.1140 hc        1 NCJ      0.048200
     73 H66A        2.2280   -6.3060  -16.6940 hc        1 NCJ      0.048200
     74 H69         3.3710   -3.7610  -18.0390 hc        1 NCJ      0.040700
     75 H69A        4.0720   -5.4260  -18.0810 hc        1 NCJ      0.040700
     76 H72         4.4570   -5.3970  -15.6470 hc        1 NCJ      0.047200
     77 H72A        5.1790   -3.9000  -16.3670 hc        1 NCJ      0.047200
     78 H75         3.9000   -3.4740  -14.2500 h1        1 NCJ      0.027200
     79 H75A        3.3210   -2.5150  -15.6850 h1        1 NCJ      0.027200
@<TRIPOS>BOND
     1    1    2 2   
     2    2    3 1   
     3    2   12 1   
     4    3    4 1   
     5    3   39 1   
     6    3   40 1   
     7    4    5 1   
     8    4   41 1   
     9    4   42 1   
    10    5    6 1   
    11    5   11 1   
    12    6    7 1   
    13    6    8 1   
    14    6   43 1   
    15    7   44 1   
    16    7   45 1   
    17    7   46 1   
    18    8    9 1   
    19    8   47 1   
    20    8   48 1   
    21    9   10 1   
    22    9   49 1   
    23    9   50 1   
    24   10   11 1   
    25   10   51 1   
    26   10   52 1   
    27   11   53 1   
    28   11   54 1   
    29   12   13 1   
    30   12   55 1   
    31   13   14 ar  
    32   13   16 ar  
    33   14   15 ar  
    34   14   56 1   
    35   15   19 ar  
    36   15   57 1   
    37   16   17 ar  
    38   16   58 1   
    39   17   18 ar  
    40   17   19 ar  
    41   18   26 ar  
    42   19   20 ar  
    43   20   21 ar  
    44   20   59 1   
    45   21   22 ar  
    46   21   26 ar  
    47   22   23 ar  
    48   22   60 1   
    49   23   24 ar  
    50   23   61 1   
    51   24   25 ar  
    52   24   27 1   
    53   25   26 ar  
    54   25   62 1   
    55   27   28 1   
    56   27   63 1   
    57   28   29 2   
    58   28   30 1   
    59   30   31 1   
    60   30   64 1   
    61   30   65 1   
    62   31   32 1   
    63   31   66 1   
    64   31   67 1   
    65   32   33 1   
    66   32   38 1   
    67   33   34 1   
    68   33   35 1   
    69   33   68 1   
    70   34   69 1   
    71   34   70 1   
    72   34   71 1   
    73   35   36 1   
    74   35   72 1   
    75   35   73 1   
    76   36   37 1   
    77   36   74 1   
    78   36   75 1   
    79   37   38 1   
    80   37   76 1   
    81   37   77 1   
    82   38   78 1   
    83   38   79 1   
@<TRIPOS>SUBSTRUCTURE
     1 NCJ         1 TEMP              0 ****  ****    0 ROOT
