@<TRIPOS>MOLECULE
NCJ
   81    85     1     0     0
SMALL
bcc


@<TRIPOS>ATOM
      1 O39         4.0380   -1.5380   -0.3530 o         1 NCJ     -0.397100
      2 C9          3.4680   -0.4650   -0.4100 c         1 NCJ      0.566100
      3 C10         2.5720    0.2250    0.5620 c3        1 NCJ     -0.169400
      4 C13         2.3870   -0.6590    1.8200 c3        1 NCJ      0.195800
      5 N16         1.5710    0.0350    2.7910 n3        1 NCJ     -0.757600
      6 C18         0.2070   -0.4970    2.9190 c3        1 NCJ      0.187500
      7 C20        -0.5540   -0.5000    1.5930 c3        1 NCJ     -0.099100
      8 C27        -0.6300    0.3000    3.9340 c3        1 NCJ     -0.075400
      9 C30         0.0730    0.4210    5.2670 c3        1 NCJ     -0.083400
     10 C33         1.4440    1.0280    5.0790 c3        1 NCJ     -0.079400
     11 C36         2.2550    0.2250    4.0660 c3        1 NCJ      0.181800
     12 N7          3.7420    0.3250   -1.7090 n4        1 NCJ     -0.572200
     13 C6          2.7950   -0.0280   -2.7710 ca        1 NCJ     -0.016400
     14 C40         1.5960    0.7550   -2.9010 ca        1 NCJ     -0.142000
     15 C42         0.7030    0.4600   -3.8870 ca        1 NCJ     -0.050000
     16 C4          3.0660   -1.0770   -3.6170 ca        1 NCJ     -0.110300
     17 C3          2.1320   -1.4070   -4.6710 ca        1 NCJ      0.422600
     18 N1          2.4190   -2.4420   -5.4970 nb        1 NCJ     -0.619000
     19 C44         0.9350   -0.6180   -4.7980 ca        1 NCJ     -0.135300
     20 C45         0.0330   -0.9390   -5.8220 ca        1 NCJ     -0.027000
     21 C2          0.3170   -2.0060   -6.6850 ca        1 NCJ     -0.135300
     22 C47        -0.5630   -2.3830   -7.7470 ca        1 NCJ     -0.050000
     23 C49        -0.2670   -3.4280   -8.5720 ca        1 NCJ     -0.142000
     24 C51         0.9490   -4.1670   -8.3730 ca        1 NCJ     -0.016400
     25 C85         1.8320   -3.8460   -7.3690 ca        1 NCJ     -0.110300
     26 C87         1.5380   -2.7410   -6.4820 ca        1 NCJ      0.422600
     27 N52         1.2300   -5.2940   -9.2670 n4        1 NCJ     -0.572200
     28 C54         2.0710   -4.8610  -10.4880 c         1 NCJ      0.566100
     29 O84         3.2720   -4.9050  -10.3050 o         1 NCJ     -0.397100
     30 C55         1.2750   -4.4840  -11.6920 c3        1 NCJ     -0.169400
     31 C58         2.2270   -4.0830  -12.8450 c3        1 NCJ      0.195800
     32 N61         1.4590   -3.7780  -14.0310 n3        1 NCJ     -0.757600
     33 C63         1.3950   -2.3460  -14.3530 c3        1 NCJ      0.187500
     34 C77         0.8280   -1.5060  -13.2070 c3        1 NCJ     -0.099100
     35 C66         0.5350   -2.0740  -15.6000 c3        1 NCJ     -0.075400
     36 C69         0.9740   -2.9140  -16.7770 c3        1 NCJ     -0.083400
     37 C72         0.9640   -4.3780  -16.4050 c3        1 NCJ     -0.079400
     38 C75         1.8180   -4.6250  -15.1640 c3        1 NCJ      0.181800
     39 H10         3.0210    1.2130    0.8590 hc        1 NCJ      0.112200
     40 H10A        1.5720    0.4210    0.0850 hc        1 NCJ      0.112200
     41 H13         1.9330   -1.6370    1.4910 h1        1 NCJ      0.059700
     42 H13A        3.4130   -0.8890    2.2280 h1        1 NCJ      0.059700
     43 H18         0.2590   -1.5700    3.2880 h1        1 NCJ      0.035700
     44 H20        -0.0690   -1.1680    0.8420 hc        1 NCJ      0.036367
     45 H20A       -1.5890   -0.8780    1.7770 hc        1 NCJ      0.036367
     46 H20B       -0.6240    0.5300    1.1680 hc        1 NCJ      0.036367
     47 H27        -0.8440    1.3210    3.5240 hc        1 NCJ      0.056200
     48 H27A       -1.6090   -0.2300    4.0650 hc        1 NCJ      0.056200
     49 H30         0.1660   -0.5900    5.7430 hc        1 NCJ      0.057200
     50 H30A       -0.5360    1.0620    5.9570 hc        1 NCJ      0.057200
     51 H33         1.3470    2.0910    4.7370 hc        1 NCJ      0.060200
     52 H33A        2.0050    1.0310    6.0500 hc        1 NCJ      0.060200
     53 H36         2.5230   -0.7690    4.5300 h1        1 NCJ      0.036700
     54 H36A        3.2140    0.7770    3.8530 h1        1 NCJ      0.036700
     55 HN7         3.6680    1.3300   -1.5160 hn        1 NCJ      0.464800
     56 H40         1.4030    1.5920   -2.2090 ha        1 NCJ      0.166000
     57 H42        -0.2210    1.0540   -4.0020 ha        1 NCJ      0.178000
     58 H4          3.9820   -1.6920   -3.5260 ha        1 NCJ      0.188000
     59 H45        -0.8940   -0.3540   -5.9490 ha        1 NCJ      0.175000
     60 H47        -1.4950   -1.8080   -7.8850 ha        1 NCJ      0.178000
     61 H49        -0.9590   -3.7070   -9.3840 ha        1 NCJ      0.166000
     62 H85         2.7750   -4.4020   -7.2070 ha        1 NCJ      0.188000
     63 HN52        1.7480   -6.0130   -8.7440 hn        1 NCJ      0.464800
     64 H55         0.6370   -5.3530  -12.0140 hc        1 NCJ      0.112200
     65 H55A        0.5950   -3.6220  -11.4430 hc        1 NCJ      0.112200
     66 H58         2.8470   -3.2090  -12.4920 h1        1 NCJ      0.059700
     67 H58A        2.9340   -4.9450  -13.0160 h1        1 NCJ      0.059700
     68 H63         2.4420   -1.9660  -14.5720 h1        1 NCJ      0.035700
     69 H77        -0.2000   -1.8450  -12.9330 hc        1 NCJ      0.036367
     70 H77A        1.4780   -1.5540  -12.3020 hc        1 NCJ      0.036367
     71 H77B        0.7720   -0.4410  -13.5400 hc        1 NCJ      0.036367
     72 H66        -0.5410   -2.2820  -15.3660 hc        1 NCJ      0.056200
     73 H66A        0.6280   -0.9850  -15.8510 hc        1 NCJ      0.056200
     74 H69         0.2850   -2.7360  -17.6440 hc        1 NCJ      0.057200
     75 H69A        2.0050   -2.6100  -17.1000 hc        1 NCJ      0.057200
     76 H72        -0.0880   -4.7170  -16.2190 hc        1 NCJ      0.060200
     77 H72A        1.3800   -4.9960  -17.2420 hc        1 NCJ      0.060200
     78 H75         1.6820   -5.6950  -14.8390 h1        1 NCJ      0.036700
     79 H75A        2.9040   -4.4840  -15.4440 h1        1 NCJ      0.036700
     80 H721        4.6970    0.1160   -2.0310 hn        1 NCJ      0.464800
     81 H522        0.3420   -5.6930   -9.5910 hn        1 NCJ      0.464800
@<TRIPOS>BOND
     1    1    2 2   
     2    2    3 1   
     3    2   12 1   
     4    3    4 1   
     5    3   39 1   
     6    3   40 1   
     7    4    5 1   
     8    4   41 1   
     9    4   42 1   
    10    5    6 1   
    11    5   11 1   
    12    6    7 1   
    13    6    8 1   
    14    6   43 1   
    15    7   44 1   
    16    7   45 1   
    17    7   46 1   
    18    8    9 1   
    19    8   47 1   
    20    8   48 1   
    21    9   10 1   
    22    9   49 1   
    23    9   50 1   
    24   10   11 1   
    25   10   51 1   
    26   10   52 1   
    27   11   53 1   
    28   11   54 1   
    29   12   13 1   
    30   12   55 1   
    31   12   80 1   
    32   13   14 ar  
    33   13   16 ar  
    34   14   15 ar  
    35   14   56 1   
    36   15   19 ar  
    37   15   57 1   
    38   16   17 ar  
    39   16   58 1   
    40   17   18 ar  
    41   17   19 ar  
    42   18   26 ar  
    43   19   20 ar  
    44   20   21 ar  
    45   20   59 1   
    46   21   22 ar  
    47   21   26 ar  
    48   22   23 ar  
    49   22   60 1   
    50   23   24 ar  
    51   23   61 1   
    52   24   25 ar  
    53   24   27 1   
    54   25   26 ar  
    55   25   62 1   
    56   27   28 1   
    57   27   63 1   
    58   27   81 1   
    59   28   29 2   
    60   28   30 1   
    61   30   31 1   
    62   30   64 1   
    63   30   65 1   
    64   31   32 1   
    65   31   66 1   
    66   31   67 1   
    67   32   33 1   
    68   32   38 1   
    69   33   34 1   
    70   33   35 1   
    71   33   68 1   
    72   34   69 1   
    73   34   70 1   
    74   34   71 1   
    75   35   36 1   
    76   35   72 1   
    77   35   73 1   
    78   36   37 1   
    79   36   74 1   
    80   36   75 1   
    81   37   38 1   
    82   37   76 1   
    83   37   77 1   
    84   38   78 1   
    85   38   79 1   
@<TRIPOS>SUBSTRUCTURE
     1 NCJ         1 TEMP              0 ****  ****    0 ROOT
