@<TRIPOS>MOLECULE
NCJ
   79    83     1     0     0
SMALL
bcc


@<TRIPOS>ATOM
      1 O39        -6.4240   -1.6800    0.1730 o         1 NCJ     -0.588100
      2 C9         -6.1130   -0.4820    0.2840 c         1 NCJ      0.669100
      3 C10        -7.1630    0.6150    0.3890 c3        1 NCJ     -0.157400
      4 C13        -8.5590    0.0080    0.2270 c3        1 NCJ      0.171800
      5 N16        -9.6050    1.0100    0.0580 n3        1 NCJ     -0.726600
      6 C18       -10.8770    0.4130   -0.3830 c3        1 NCJ      0.185500
      7 C20       -10.7630   -0.3350   -1.7120 c3        1 NCJ     -0.096100
      8 C27       -11.9820    1.4730   -0.5400 c3        1 NCJ     -0.076400
      9 C30       -12.1610    2.2860    0.7210 c3        1 NCJ     -0.079400
     10 C33       -10.8430    2.9000    1.1340 c3        1 NCJ     -0.077400
     11 C36        -9.7640    1.8280    1.2550 c3        1 NCJ      0.166800
     12 N7         -4.7950   -0.0400    0.3350 n         1 NCJ     -0.476100
     13 C6         -3.6180   -0.8000    0.2490 ca        1 NCJ      0.096600
     14 C40        -3.6390   -2.2430    0.2550 ca        1 NCJ     -0.145000
     15 C42        -2.4760   -2.9470    0.1840 ca        1 NCJ     -0.089000
     16 C4         -2.4040   -0.1370    0.1730 ca        1 NCJ     -0.262300
     17 C3         -1.1610   -0.8580    0.0990 ca        1 NCJ      0.456600
     18 N1          0.0050   -0.1670    0.0270 nb        1 NCJ     -0.682000
     19 C44        -1.2080   -2.2970    0.1040 ca        1 NCJ     -0.180300
     20 C45        -0.0040   -3.0030    0.0310 ca        1 NCJ     -0.045000
     21 C2          1.2050   -2.3050   -0.0440 ca        1 NCJ     -0.180300
     22 C47         2.4690   -2.9620   -0.1210 ca        1 NCJ     -0.089000
     23 C49         3.6360   -2.2650   -0.1940 ca        1 NCJ     -0.145000
     24 C51         3.6240   -0.8220   -0.1930 ca        1 NCJ      0.096600
     25 C85         2.4130   -0.1510   -0.1180 ca        1 NCJ     -0.262300
     26 C87         1.1660   -0.8650   -0.0430 ca        1 NCJ      0.456600
     27 N52         4.8050   -0.0700   -0.2810 n         1 NCJ     -0.476100
     28 C54         6.1210   -0.5190   -0.2280 c         1 NCJ      0.669100
     29 O84         6.4240   -1.7190   -0.1120 o         1 NCJ     -0.588100
     30 C55         7.1770    0.5710   -0.3350 c3        1 NCJ     -0.157400
     31 C58         8.5690   -0.0430   -0.1700 c3        1 NCJ      0.171800
     32 N61         9.6210    0.9520   -0.0040 n3        1 NCJ     -0.726600
     33 C63        10.8900    0.3490    0.4380 c3        1 NCJ      0.185500
     34 C77        10.7710   -0.3950    1.7700 c3        1 NCJ     -0.096100
     35 C66        12.0010    1.4030    0.5930 c3        1 NCJ     -0.076400
     36 C69        12.1850    2.2120   -0.6710 c3        1 NCJ     -0.079400
     37 C72        10.8700    2.8320   -1.0850 c3        1 NCJ     -0.077400
     38 C75         9.7850    1.7670   -1.2030 c3        1 NCJ      0.166800
     39 H10        -7.0640    1.1100    1.3900 hc        1 NCJ      0.073700
     40 H10A       -6.9840    1.3880   -0.4050 hc        1 NCJ      0.073700
     41 H13        -8.5370   -0.6440   -0.6920 h1        1 NCJ      0.052700
     42 H13A       -8.7540   -0.6660    1.1120 h1        1 NCJ      0.052700
     43 H18       -11.2350   -0.3310    0.3980 h1        1 NCJ      0.019700
     44 H20       -10.2420   -1.3130   -1.5800 hc        1 NCJ      0.041700
     45 H20A      -11.7890   -0.5430   -2.1030 hc        1 NCJ      0.041700
     46 H20B      -10.2110    0.2700   -2.4700 hc        1 NCJ      0.041700
     47 H27       -11.7280    2.1500   -1.3970 hc        1 NCJ      0.048200
     48 H27A      -12.9380    0.9460   -0.7900 hc        1 NCJ      0.048200
     49 H30       -12.9220    3.0910    0.5500 hc        1 NCJ      0.040700
     50 H30A      -12.5470    1.6290    1.5440 hc        1 NCJ      0.040700
     51 H33       -10.5320    3.6690    0.3800 hc        1 NCJ      0.047200
     52 H33A      -10.9450    3.4130    2.1250 hc        1 NCJ      0.047200
     53 H36        -9.9930    1.1920    2.1610 h1        1 NCJ      0.027200
     54 H36A       -8.7790    2.3430    1.4420 h1        1 NCJ      0.027200
     55 HN7        -4.6580    0.9470    0.3850 hn        1 NCJ      0.317500
     56 H40        -4.6040   -2.7730    0.3150 ha        1 NCJ      0.177000
     57 H42        -2.4940   -4.0480    0.1870 ha        1 NCJ      0.137000
     58 H4         -2.3510    0.9650    0.1670 ha        1 NCJ      0.147000
     59 H45        -0.0070   -4.1040    0.0330 ha        1 NCJ      0.139000
     60 H47         2.4800   -4.0640   -0.1210 ha        1 NCJ      0.137000
     61 H49         4.5980   -2.8020   -0.2530 ha        1 NCJ      0.177000
     62 H85         2.3680    0.9500   -0.1150 ha        1 NCJ      0.147000
     63 HN52        4.6740    0.9180   -0.3340 hn        1 NCJ      0.317500
     64 H55         7.0820    1.0630   -1.3390 hc        1 NCJ      0.073700
     65 H55A        7.0020    1.3480    0.4550 hc        1 NCJ      0.073700
     66 H58         8.5430   -0.6930    0.7510 h1        1 NCJ      0.052700
     67 H58A        8.7610   -0.7220   -1.0530 h1        1 NCJ      0.052700
     68 H63        11.2430   -0.3990   -0.3410 h1        1 NCJ      0.019700
     69 H77        10.2440   -1.3700    1.6400 hc        1 NCJ      0.041700
     70 H77A       11.7960   -0.6080    2.1600 hc        1 NCJ      0.041700
     71 H77B       10.2230    0.2150    2.5260 hc        1 NCJ      0.041700
     72 H66        11.7510    2.0840    1.4470 hc        1 NCJ      0.048200
     73 H66A       12.9540    0.8710    0.8440 hc        1 NCJ      0.048200
     74 H69        12.9500    3.0130   -0.5020 hc        1 NCJ      0.040700
     75 H69A       12.5660    1.5500   -1.4920 hc        1 NCJ      0.040700
     76 H72        10.5640    3.6060   -0.3340 hc        1 NCJ      0.047200
     77 H72A       10.9760    3.3420   -2.0780 hc        1 NCJ      0.047200
     78 H75        10.0110    1.1270   -2.1080 h1        1 NCJ      0.027200
     79 H75A        8.8030    2.2870   -1.3920 h1        1 NCJ      0.027200
@<TRIPOS>BOND
     1    1    2 2   
     2    2    3 1   
     3    2   12 1   
     4    3    4 1   
     5    3   39 1   
     6    3   40 1   
     7    4    5 1   
     8    4   41 1   
     9    4   42 1   
    10    5    6 1   
    11    5   11 1   
    12    6    7 1   
    13    6    8 1   
    14    6   43 1   
    15    7   44 1   
    16    7   45 1   
    17    7   46 1   
    18    8    9 1   
    19    8   47 1   
    20    8   48 1   
    21    9   10 1   
    22    9   49 1   
    23    9   50 1   
    24   10   11 1   
    25   10   51 1   
    26   10   52 1   
    27   11   53 1   
    28   11   54 1   
    29   12   13 1   
    30   12   55 1   
    31   13   14 ar  
    32   13   16 ar  
    33   14   15 ar  
    34   14   56 1   
    35   15   19 ar  
    36   15   57 1   
    37   16   17 ar  
    38   16   58 1   
    39   17   18 ar  
    40   17   19 ar  
    41   18   26 ar  
    42   19   20 ar  
    43   20   21 ar  
    44   20   59 1   
    45   21   22 ar  
    46   21   26 ar  
    47   22   23 ar  
    48   22   60 1   
    49   23   24 ar  
    50   23   61 1   
    51   24   25 ar  
    52   24   27 1   
    53   25   26 ar  
    54   25   62 1   
    55   27   28 1   
    56   27   63 1   
    57   28   29 2   
    58   28   30 1   
    59   30   31 1   
    60   30   64 1   
    61   30   65 1   
    62   31   32 1   
    63   31   66 1   
    64   31   67 1   
    65   32   33 1   
    66   32   38 1   
    67   33   34 1   
    68   33   35 1   
    69   33   68 1   
    70   34   69 1   
    71   34   70 1   
    72   34   71 1   
    73   35   36 1   
    74   35   72 1   
    75   35   73 1   
    76   36   37 1   
    77   36   74 1   
    78   36   75 1   
    79   37   38 1   
    80   37   76 1   
    81   37   77 1   
    82   38   78 1   
    83   38   79 1   
@<TRIPOS>SUBSTRUCTURE
     1 NCJ         1 TEMP              0 ****  ****    0 ROOT
