@<TRIPOS>MOLECULE
NCJ
   79    77     1     0     0
SMALL
bcc


@<TRIPOS>ATOM
      1 O39        -0.2210    3.4400    4.9730 o         1 NCJ     -0.351000
      2 C9          0.8840    2.9290    4.9720 c1        1 NCJ      0.312000
      3 C10         1.6560    2.7340    6.3140 c2        1 NCJ     -0.186000
      4 C13         0.7120    3.0310    7.5060 c3        1 NCJ     -0.053000
      5 N16         1.5050    3.3980    8.6740 n3        1 NCJ     -0.272000
      6 C18         0.6950    4.4140    9.5580 c3        1 NCJ     -0.006000
      7 C20         0.4870    5.6470    8.7870 c3        1 NCJ     -0.207000
      8 C27         1.3840    4.7630   10.8440 c3        1 NCJ     -0.162000
      9 C30         2.3050    3.8630   11.1660 c3        1 NCJ     -0.149000
     10 C33         2.1830    2.5610   11.0080 c3        1 NCJ     -0.152000
     11 C36         1.4810    2.2240    9.7110 c3        1 NCJ     -0.057000
     12 N7          1.4960    2.4920    3.7030 n3        1 NCJ     -0.330000
     13 C6          0.7850    2.6690    2.4540 c2        1 NCJ      0.105000
     14 C40        -0.2660    3.5770    2.2790 c2        1 NCJ     -0.146000
     15 C42        -0.9990    3.5700    1.1050 c1        1 NCJ     -0.089000
     16 C4          1.0930    1.7580    1.4470 c1        1 NCJ     -0.198000
     17 C3          0.3530    1.7520    0.2620 c1        1 NCJ      0.063000
     18 N1          0.6770    0.8630   -0.7550 n2        1 NCJ     -0.156000
     19 C44        -0.6890    2.6540    0.0900 c1        1 NCJ     -0.115000
     20 C45        -1.4120    2.6670   -1.1060 c2        1 NCJ     -0.045000
     21 C2         -1.0850    1.7700   -2.1310 c1        1 NCJ     -0.115000
     22 C47        -1.7830    1.7970   -3.3280 c2        1 NCJ     -0.089000
     23 C49        -1.4390    0.9180   -4.3580 c1        1 NCJ     -0.146000
     24 C51        -0.4000    0.0210   -4.1840 c1        1 NCJ      0.103000
     25 C85         0.2950   -0.0070   -2.9960 c1        1 NCJ     -0.197000
     26 C87        -0.0500    0.8760   -1.9590 c1        1 NCJ      0.063000
     27 N52         0.0380   -1.1330   -4.9820 n         1 NCJ     -0.327000
     28 C54        -0.7730   -1.6040   -6.0850 c2        1 NCJ      0.313000
     29 O84        -1.8300   -1.0380   -6.3540 o         1 NCJ     -0.348000
     30 C55        -0.2190   -2.6890   -7.0270 c3        1 NCJ     -0.191000
     31 C58        -1.3180   -3.7830   -7.2770 c3        1 NCJ     -0.061000
     32 N61        -0.7390   -4.8880   -8.0220 n3        1 NCJ     -0.258000
     33 C63        -1.6540   -6.1630   -7.8610 c3        1 NCJ     -0.011000
     34 C77        -1.6630   -6.5590   -6.4760 c3        1 NCJ     -0.215000
     35 C66        -1.1960   -7.3360   -8.6960 c3        1 NCJ     -0.150000
     36 C69        -0.3930   -6.9490   -9.6890 c3        1 NCJ     -0.150000
     37 C72        -0.5530   -5.8450  -10.4180 c3        1 NCJ     -0.162000
     38 C75        -1.0160   -4.6850   -9.5760 c3        1 NCJ     -0.070000
     39 H10         2.4150    3.3420    6.3420 ha        1 NCJ      0.113000
     40 H10A        1.9730    1.8190    6.3740 ha        1 NCJ      0.113000
     41 H13         0.1240    3.7610    7.2770 h1        1 NCJ      0.091000
     42 H13A        0.1780    2.2320    7.7090 h1        1 NCJ      0.091000
     43 H18        -0.1670    4.0270    9.7640 h1        1 NCJ      0.066000
     44 H20        -0.2730    5.5250    8.1670 hc        1 NCJ      0.077333
     45 H20A        0.2930    6.3870    9.4010 hc        1 NCJ      0.077333
     46 H20B        1.2900    5.8510    8.2800 hc        1 NCJ      0.077333
     47 H27         0.7180    4.8080   11.5590 hc        1 NCJ      0.083500
     48 H27A        1.8200    5.6540   10.7510 hc        1 NCJ      0.083500
     49 H30         3.1010    4.1140   10.6850 hc        1 NCJ      0.082000
     50 H30A        2.5000    4.0050   12.1430 hc        1 NCJ      0.082000
     51 H33         3.0830    2.1510   11.0040 hc        1 NCJ      0.082000
     52 H33A        1.6680    2.1940   11.7560 hc        1 NCJ      0.082000
     53 H36         1.9140    1.4450    9.3120 h1        1 NCJ      0.065500
     54 H36A        0.5530    1.9990    9.9070 h1        1 NCJ      0.065500
     55 HN7         2.3050    2.1170    3.7060 hn        1 NCJ      0.231000
     56 H40        -0.5350    4.1630    3.0190 ha        1 NCJ      0.178000
     57 H42        -1.7280    4.2020    0.9840 ha        1 NCJ      0.137000
     58 H4          1.8620    1.2070    1.5250 ha        1 NCJ      0.147000
     59 H45        -2.1050    3.3210   -1.2430 ha        1 NCJ      0.139000
     60 H47        -2.5280    2.4400   -3.4540 ha        1 NCJ      0.137000
     61 H49        -1.9310    0.9360   -5.1990 ha        1 NCJ      0.178000
     62 H85         1.0430   -0.6530   -2.8700 ha        1 NCJ      0.148000
     63 HN52        0.8130   -1.5770   -4.7590 hn        1 NCJ      0.234000
     64 H55         0.5710   -3.1060   -6.6140 hc        1 NCJ      0.119500
     65 H55A        0.0370   -2.2800   -7.8850 hc        1 NCJ      0.119500
     66 H58        -2.0720   -3.3860   -7.8020 h1        1 NCJ      0.079500
     67 H58A       -1.6540   -4.1070   -6.4220 h1        1 NCJ      0.079500
     68 H63        -2.5880   -5.9230   -8.1310 h1        1 NCJ      0.059000
     69 H77        -1.8120   -7.5310   -6.4150 hc        1 NCJ      0.080000
     70 H77A       -2.3750   -6.0920   -6.0090 hc        1 NCJ      0.080000
     71 H77B       -0.8170   -6.3370   -6.0750 hc        1 NCJ      0.080000
     72 H66        -1.9740   -7.7770   -9.0750 hc        1 NCJ      0.083000
     73 H66A       -0.7100   -7.9790   -8.1170 hc        1 NCJ      0.083000
     74 H69        -0.3720   -7.7000  -10.3300 hc        1 NCJ      0.083000
     75 H69A        0.5080   -6.8850   -9.3000 hc        1 NCJ      0.083000
     76 H72         0.3050   -5.6140  -10.8430 hc        1 NCJ      0.083500
     77 H72A       -1.2160   -6.0160  -11.1130 hc        1 NCJ      0.083500
     78 H75        -0.5590   -3.8850   -9.8710 h1        1 NCJ      0.073500
     79 H75A       -1.9890   -4.5640   -9.7110 h1        1 NCJ      0.073500
@<TRIPOS>BOND
     1    1    2 1   
     2    2   12 1   
     3    3    4 1   
     4    3   39 1   
     5    3   40 1   
     6    4    5 1   
     7    4   41 1   
     8    4   42 1   
     9    5    6 1   
    10    5   11 1   
    11    6    7 1   
    12    6    8 1   
    13    6   43 1   
    14    7   44 1   
    15    7   45 1   
    16    7   46 1   
    17    8    9 1   
    18    8   47 1   
    19    8   48 1   
    20    9   10 1   
    21    9   49 1   
    22    9   50 1   
    23   10   11 1   
    24   10   51 1   
    25   10   52 1   
    26   11   53 1   
    27   11   54 1   
    28   12   13 1   
    29   12   55 1   
    30   13   14 1   
    31   13   16 1   
    32   14   15 1   
    33   14   56 1   
    34   15   57 1   
    35   16   58 1   
    36   17   18 1   
    37   17   19 1   
    38   18   26 1   
    39   19   20 1   
    40   20   21 1   
    41   20   59 1   
    42   21   22 1   
    43   22   23 1   
    44   22   60 1   
    45   23   61 1   
    46   24   25 1   
    47   24   27 1   
    48   25   62 1   
    49   27   28 1   
    50   27   63 1   
    51   28   29 1   
    52   28   30 1   
    53   30   31 1   
    54   30   64 1   
    55   30   65 1   
    56   31   32 1   
    57   31   66 1   
    58   31   67 1   
    59   32   33 1   
    60   32   38 1   
    61   33   34 1   
    62   33   35 1   
    63   33   68 1   
    64   34   69 1   
    65   34   70 1   
    66   34   71 1   
    67   35   36 1   
    68   35   72 1   
    69   35   73 1   
    70   36   37 1   
    71   36   74 1   
    72   36   75 1   
    73   37   38 1   
    74   37   76 1   
    75   37   77 1   
    76   38   78 1   
    77   38   79 1   
@<TRIPOS>SUBSTRUCTURE
     1 NCJ         1 TEMP              0 ****  ****    0 ROOT
