@<TRIPOS>MOLECULE
NCK
   79    83     1     0     0
SMALL
bcc


@<TRIPOS>ATOM
      1 O39        -0.2740    1.0190    0.3600 o         1 NCK     -0.586100
      2 C9          0.7070    0.2540    0.3520 c         1 NCK      0.665600
      3 C10         1.5240   -0.0170    1.6050 c3        1 NCK     -0.156900
      4 C13         0.9320    0.7600    2.7840 c3        1 NCK      0.178300
      5 N16         1.6100    0.4620    4.0380 n3        1 NCK     -0.739100
      6 C18         0.7300    0.6240    5.1890 c3        1 NCK      0.172800
      7 C27         1.4140    0.3140    6.5180 c3        1 NCK     -0.074900
      8 C30         2.6900    1.1240    6.6820 c3        1 NCK     -0.067700
      9 C20         3.3950    0.7650    7.9700 c3        1 NCK     -0.089600
     10 C33         3.5960    0.8880    5.4840 c3        1 NCK     -0.074900
     11 C36         2.8650    1.1880    4.1780 c3        1 NCK      0.172800
     12 N7          1.1420   -0.4120   -0.7890 n         1 NCK     -0.474600
     13 C6          0.5940   -0.3790   -2.0810 ca        1 NCK      0.085100
     14 C40        -0.5100    0.4850   -2.4210 ca        1 NCK     -0.155000
     15 C42        -1.0100    0.4940   -3.6880 ca        1 NCK     -0.087000
     16 C4          1.1420   -1.2000   -3.0550 ca        1 NCK     -0.239800
     17 C3          0.6320   -1.2070   -4.4000 ca        1 NCK      0.454100
     18 N1          1.2010   -2.0260   -5.3210 nb        1 NCK     -0.670000
     19 C44        -0.4710   -0.3360   -4.7140 ca        1 NCK     -0.181800
     20 C45        -0.9700   -0.3420   -6.0210 ca        1 NCK     -0.047000
     21 C2         -0.3930   -1.1810   -6.9780 ca        1 NCK     -0.181800
     22 C87         0.7080   -2.0220   -6.5830 ca        1 NCK      0.454100
     23 C47        -0.8560   -1.2350   -8.3280 ca        1 NCK     -0.087000
     24 C49        -0.2780   -2.0600   -9.2410 ca        1 NCK     -0.155000
     25 C51         0.8320   -2.9150   -8.8680 ca        1 NCK      0.085100
     26 C85         1.3040   -2.8890   -7.5720 ca        1 NCK     -0.239800
     27 N52         1.3640   -3.7300   -9.8790 n         1 NCK     -0.474600
     28 C54         2.4070   -4.6450   -9.7750 c         1 NCK      0.665600
     29 O84         3.0210   -4.8500   -8.7150 o         1 NCK     -0.586100
     30 C55         2.7490   -5.3810  -11.0610 c3        1 NCK     -0.156900
     31 C58         3.8750   -6.3840  -10.7940 c3        1 NCK      0.178300
     32 N61         4.1840   -7.1910  -11.9660 n3        1 NCK     -0.739100
     33 C63         5.0330   -6.4870  -12.9180 c3        1 NCK      0.172800
     34 C66         5.3680   -7.3130  -14.1580 c3        1 NCK     -0.074900
     35 C69         5.9710   -8.6530  -13.7720 c3        1 NCK     -0.067700
     36 C77         6.2420   -9.4950  -14.9990 c3        1 NCK     -0.089600
     37 C72         5.0350   -9.3740  -12.8160 c3        1 NCK     -0.074900
     38 C75         4.7050   -8.5040  -11.6060 c3        1 NCK      0.172800
     39 H10         1.5170   -1.1170    1.8280 hc        1 NCK      0.072950
     40 H10A        2.5870    0.2940    1.4270 hc        1 NCK      0.072950
     41 H13         0.9640    1.8610    2.5330 h1        1 NCK      0.052450
     42 H13A       -0.1550    0.4750    2.8730 h1        1 NCK      0.052450
     43 H18        -0.1340   -0.0870    5.0560 h1        1 NCK      0.029950
     44 H18A        0.3070    1.6710    5.2390 h1        1 NCK      0.029950
     45 H27         0.7000    0.5540    7.3470 hc        1 NCK      0.047825
     46 H27A        1.6540   -0.7790    6.5770 hc        1 NCK      0.047825
     47 H30         2.4170    2.2170    6.7130 hc        1 NCK      0.046700
     48 H20         4.3220    1.3770    8.0880 hc        1 NCK      0.034700
     49 H20A        3.6820   -0.3150    7.9750 hc        1 NCK      0.034700
     50 H20B        2.7270    0.9570    8.8440 hc        1 NCK      0.034700
     51 H33         3.9530   -0.1740    5.4870 hc        1 NCK      0.047825
     52 H33A        4.4960    1.5530    5.5480 hc        1 NCK      0.047825
     53 H36         2.7050    2.3060    4.1070 h1        1 NCK      0.029950
     54 H36A        3.5270    0.8870    3.3170 h1        1 NCK      0.029950
     55 HN7         1.9230   -1.0210   -0.6780 hn        1 NCK      0.317000
     56 H40        -0.9490    1.1390   -1.6490 ha        1 NCK      0.153500
     57 H42        -1.8540    1.1540   -3.9460 ha        1 NCK      0.135000
     58 H4          1.9860   -1.8730   -2.8300 ha        1 NCK      0.170500
     59 H45        -1.8120    0.3110   -6.2930 ha        1 NCK      0.137000
     60 H47        -1.6990   -0.5860   -8.6120 ha        1 NCK      0.135000
     61 H49        -0.6540   -2.0830  -10.2750 ha        1 NCK      0.153500
     62 H85         2.1470   -3.5260   -7.2510 ha        1 NCK      0.170500
     63 HN52        0.9270   -3.6460  -10.7700 hn        1 NCK      0.317000
     64 H55         1.8410   -5.9180  -11.4420 hc        1 NCK      0.072950
     65 H55A        3.0650   -4.6370  -11.8380 hc        1 NCK      0.072950
     66 H58         3.5420   -7.0590   -9.9540 h1        1 NCK      0.052450
     67 H58A        4.7750   -5.8130  -10.4200 h1        1 NCK      0.052450
     68 H63         6.0030   -6.1550  -12.4390 h1        1 NCK      0.029950
     69 H63A        4.4810   -5.5600  -13.2410 h1        1 NCK      0.029950
     70 H66         4.4420   -7.4800  -14.7670 hc        1 NCK      0.047825
     71 H66A        6.0920   -6.7330  -14.7860 hc        1 NCK      0.047825
     72 H69         6.9480   -8.4650  -13.2410 hc        1 NCK      0.046700
     73 H77         5.2950   -9.7030  -15.5520 hc        1 NCK      0.034700
     74 H77A        6.9440   -8.9640  -15.6860 hc        1 NCK      0.034700
     75 H77B        6.7010  -10.4700  -14.7060 hc        1 NCK      0.034700
     76 H72         4.0920   -9.6530  -13.3540 hc        1 NCK      0.047825
     77 H72A        5.5140  -10.3190  -12.4510 hc        1 NCK      0.047825
     78 H75         3.9150   -9.0250  -10.9940 h1        1 NCK      0.029950
     79 H75A        5.6320   -8.4170  -10.9650 h1        1 NCK      0.029950
@<TRIPOS>BOND
     1    1    2 2   
     2    2    3 1   
     3    2   12 1   
     4    3    4 1   
     5    3   39 1   
     6    3   40 1   
     7    4    5 1   
     8    4   41 1   
     9    4   42 1   
    10    5    6 1   
    11    5   11 1   
    12    6    7 1   
    13    6   43 1   
    14    6   44 1   
    15    7    8 1   
    16    7   45 1   
    17    7   46 1   
    18    8    9 1   
    19    8   10 1   
    20    8   47 1   
    21    9   48 1   
    22    9   49 1   
    23    9   50 1   
    24   10   11 1   
    25   10   51 1   
    26   10   52 1   
    27   11   53 1   
    28   11   54 1   
    29   12   13 1   
    30   12   55 1   
    31   13   14 ar  
    32   13   16 ar  
    33   14   15 ar  
    34   14   56 1   
    35   15   19 ar  
    36   15   57 1   
    37   16   17 ar  
    38   16   58 1   
    39   17   18 ar  
    40   17   19 ar  
    41   18   22 ar  
    42   19   20 ar  
    43   20   21 ar  
    44   20   59 1   
    45   21   22 ar  
    46   21   23 ar  
    47   22   26 ar  
    48   23   24 ar  
    49   23   60 1   
    50   24   25 ar  
    51   24   61 1   
    52   25   26 ar  
    53   25   27 1   
    54   26   62 1   
    55   27   28 1   
    56   27   63 1   
    57   28   29 2   
    58   28   30 1   
    59   30   31 1   
    60   30   64 1   
    61   30   65 1   
    62   31   32 1   
    63   31   66 1   
    64   31   67 1   
    65   32   33 1   
    66   32   38 1   
    67   33   34 1   
    68   33   68 1   
    69   33   69 1   
    70   34   35 1   
    71   34   70 1   
    72   34   71 1   
    73   35   36 1   
    74   35   37 1   
    75   35   72 1   
    76   36   73 1   
    77   36   74 1   
    78   36   75 1   
    79   37   38 1   
    80   37   76 1   
    81   37   77 1   
    82   38   78 1   
    83   38   79 1   
@<TRIPOS>SUBSTRUCTURE
     1 NCK         1 TEMP              0 ****  ****    0 ROOT
