@<TRIPOS>MOLECULE
NCK
   81    85     1     0     0
SMALL
bcc


@<TRIPOS>ATOM
      1 O39        -1.7790    1.1230    0.1440 o         1 NCK     -0.395600
      2 C9         -0.6210    1.2760   -0.1970 c         1 NCK      0.566100
      3 C10         0.6520    0.8120    0.4280 c3        1 NCK     -0.167400
      4 C13         0.3370    0.0110    1.7140 c3        1 NCK      0.193300
      5 N16         1.5630   -0.4830    2.2970 n3        1 NCK     -0.758600
      6 C18         1.5130   -1.8990    2.6450 c3        1 NCK      0.178050
      7 C27         2.8310   -2.4220    3.2110 c3        1 NCK     -0.076650
      8 C30         3.3060   -1.5710    4.3780 c3        1 NCK     -0.067700
      9 C20         4.6400   -2.0630    4.8930 c3        1 NCK     -0.093100
     10 C33         3.3980   -0.1180    3.9420 c3        1 NCK     -0.076650
     11 C36         2.0710    0.3680    3.3670 c3        1 NCK      0.178050
     12 N7         -0.4470    2.1100   -1.4840 n4        1 NCK     -0.572700
     13 C6         -0.5410    1.2800   -2.6890 ca        1 NCK     -0.013400
     14 C40        -1.8010    0.6460   -2.9680 ca        1 NCK     -0.139500
     15 C42        -1.9380   -0.1080   -4.0960 ca        1 NCK     -0.049000
     16 C4          0.5390    1.1430   -3.5280 ca        1 NCK     -0.117800
     17 C3          0.4140    0.3480   -4.7310 ca        1 NCK      0.423600
     18 N1          1.4870    0.2310   -5.5510 nb        1 NCK     -0.623000
     19 C44        -0.8510   -0.2790   -5.0090 ca        1 NCK     -0.135300
     20 C45        -0.9720   -1.0390   -6.1810 ca        1 NCK     -0.026000
     21 C2          0.1260   -1.1640   -7.0410 ca        1 NCK     -0.135300
     22 C87         1.3540   -0.5030   -6.6810 ca        1 NCK      0.423600
     23 C47         0.0620   -1.9170   -8.2550 ca        1 NCK     -0.049000
     24 C49         1.1410   -2.0180   -9.0820 ca        1 NCK     -0.139500
     25 C51         2.3690   -1.3590   -8.7290 ca        1 NCK     -0.013400
     26 C85         2.4880   -0.6260   -7.5720 ca        1 NCK     -0.117800
     27 N52         3.5060   -1.4750   -9.6470 n4        1 NCK     -0.572700
     28 C54         4.3890   -2.6960   -9.3110 c         1 NCK      0.566100
     29 O84         5.2960   -2.4540   -8.5390 o         1 NCK     -0.395600
     30 C55         3.9980   -3.9580  -10.0030 c3        1 NCK     -0.167400
     31 C58         4.8920   -5.1220   -9.5110 c3        1 NCK      0.193300
     32 N61         4.4760   -6.3570  -10.1350 n3        1 NCK     -0.758600
     33 C63         5.2570   -6.6920  -11.3200 c3        1 NCK      0.178050
     34 C66         4.7770   -7.9620  -12.0170 c3        1 NCK     -0.076650
     35 C69         4.7070   -9.1270  -11.0430 c3        1 NCK     -0.067700
     36 C77         4.1750  -10.3660  -11.7270 c3        1 NCK     -0.093100
     37 C72         3.8340   -8.7470   -9.8580 c3        1 NCK     -0.076650
     38 C75         4.3280   -7.4630   -9.1960 c3        1 NCK      0.178050
     39 H10         1.2160    0.1650   -0.2980 hc        1 NCK      0.111200
     40 H10A        1.2970    1.6980    0.6830 hc        1 NCK      0.111200
     41 H13        -0.3500   -0.8380    1.4320 h1        1 NCK      0.059700
     42 H13A       -0.2350    0.6920    2.4090 h1        1 NCK      0.059700
     43 H18         1.2700   -2.4710    1.7060 h1        1 NCK      0.033200
     44 H18A        0.6930   -2.1020    3.3950 h1        1 NCK      0.033200
     45 H27         3.6150   -2.4330    2.4100 hc        1 NCK      0.057825
     46 H27A        2.6710   -3.4790    3.5480 hc        1 NCK      0.057825
     47 H30         2.5490   -1.6490    5.2090 hc        1 NCK      0.055200
     48 H20         4.9720   -1.4430    5.7600 hc        1 NCK      0.044200
     49 H20A        4.5580   -3.1260    5.2260 hc        1 NCK      0.044200
     50 H20B        5.4200   -2.0020    4.0960 hc        1 NCK      0.044200
     51 H33         4.2130   -0.0040    3.1800 hc        1 NCK      0.057825
     52 H33A        3.6580    0.5290    4.8200 hc        1 NCK      0.057825
     53 H36         2.2160    1.3990    2.9370 h1        1 NCK      0.033200
     54 H36A        1.3230    0.4510    4.2100 h1        1 NCK      0.033200
     55 HN7        -1.1980    2.8140   -1.5270 hn        1 NCK      0.465050
     56 H40        -2.6450    0.7680   -2.2670 ha        1 NCK      0.174500
     57 H42        -2.9000   -0.6010   -4.3250 ha        1 NCK      0.179500
     58 H4          1.5150    1.6240   -3.3290 ha        1 NCK      0.182500
     59 H45        -1.9290   -1.5330   -6.4250 ha        1 NCK      0.176000
     60 H47        -0.8900   -2.4160   -8.5130 ha        1 NCK      0.179500
     61 H49         1.0710   -2.5990  -10.0170 ha        1 NCK      0.174500
     62 H85         3.4280   -0.1170   -7.2850 ha        1 NCK      0.182500
     63 HN52        4.0770   -0.6210   -9.5820 hn        1 NCK      0.465050
     64 H55         2.9170   -4.1880   -9.7950 hc        1 NCK      0.111200
     65 H55A        4.1220   -3.8320  -11.1140 hc        1 NCK      0.111200
     66 H58         5.9630   -4.8530   -9.7450 h1        1 NCK      0.059700
     67 H58A        4.7950   -5.1820   -8.3900 h1        1 NCK      0.059700
     68 H63         5.1690   -5.8270  -12.0370 h1        1 NCK      0.033200
     69 H63A        6.3510   -6.8140  -11.0630 h1        1 NCK      0.033200
     70 H66         5.4930   -8.1980  -12.8470 hc        1 NCK      0.057825
     71 H66A        3.7670   -7.7920  -12.4730 hc        1 NCK      0.057825
     72 H69         5.7480   -9.3410  -10.6670 hc        1 NCK      0.055200
     73 H77         4.8330  -10.6470  -12.5850 hc        1 NCK      0.044200
     74 H77A        4.1450  -11.2210  -11.0080 hc        1 NCK      0.044200
     75 H77B        3.1430  -10.1930  -12.1140 hc        1 NCK      0.044200
     76 H72         3.8530   -9.5650   -9.0910 hc        1 NCK      0.057825
     77 H72A        2.7740   -8.6200  -10.1980 hc        1 NCK      0.057825
     78 H75         3.5790   -7.1490   -8.4150 h1        1 NCK      0.033200
     79 H75A        5.3040   -7.6810   -8.6710 h1        1 NCK      0.033200
     80 H721        0.4590    2.5880   -1.4580 hn        1 NCK      0.465050
     81 H522        3.1520   -1.5670  -10.6060 hn        1 NCK      0.465050
@<TRIPOS>BOND
     1    1    2 2   
     2    2    3 1   
     3    2   12 1   
     4    3    4 1   
     5    3   39 1   
     6    3   40 1   
     7    4    5 1   
     8    4   41 1   
     9    4   42 1   
    10    5    6 1   
    11    5   11 1   
    12    6    7 1   
    13    6   43 1   
    14    6   44 1   
    15    7    8 1   
    16    7   45 1   
    17    7   46 1   
    18    8    9 1   
    19    8   10 1   
    20    8   47 1   
    21    9   48 1   
    22    9   49 1   
    23    9   50 1   
    24   10   11 1   
    25   10   51 1   
    26   10   52 1   
    27   11   53 1   
    28   11   54 1   
    29   12   13 1   
    30   12   55 1   
    31   12   80 1   
    32   13   14 ar  
    33   13   16 ar  
    34   14   15 ar  
    35   14   56 1   
    36   15   19 ar  
    37   15   57 1   
    38   16   17 ar  
    39   16   58 1   
    40   17   18 ar  
    41   17   19 ar  
    42   18   22 ar  
    43   19   20 ar  
    44   20   21 ar  
    45   20   59 1   
    46   21   22 ar  
    47   21   23 ar  
    48   22   26 ar  
    49   23   24 ar  
    50   23   60 1   
    51   24   25 ar  
    52   24   61 1   
    53   25   26 ar  
    54   25   27 1   
    55   26   62 1   
    56   27   28 1   
    57   27   63 1   
    58   27   81 1   
    59   28   29 2   
    60   28   30 1   
    61   30   31 1   
    62   30   64 1   
    63   30   65 1   
    64   31   32 1   
    65   31   66 1   
    66   31   67 1   
    67   32   33 1   
    68   32   38 1   
    69   33   34 1   
    70   33   68 1   
    71   33   69 1   
    72   34   35 1   
    73   34   70 1   
    74   34   71 1   
    75   35   36 1   
    76   35   37 1   
    77   35   72 1   
    78   36   73 1   
    79   36   74 1   
    80   36   75 1   
    81   37   38 1   
    82   37   76 1   
    83   37   77 1   
    84   38   78 1   
    85   38   79 1   
@<TRIPOS>SUBSTRUCTURE
     1 NCK         1 TEMP              0 ****  ****    0 ROOT
