@<TRIPOS>MOLECULE
NCK
   79    83     1     0     0
SMALL
bcc


@<TRIPOS>ATOM
      1 O39        -6.2600   -1.8230    0.2510 o         1 NCK     -0.586100
      2 C9         -5.8120   -0.6670    0.1530 c         1 NCK      0.665600
      3 C10        -6.7290    0.5450    0.0820 c3        1 NCK     -0.156900
      4 C13        -8.1890    0.0910    0.1640 c3        1 NCK      0.178300
      5 N16        -9.1150    1.2140    0.2030 n3        1 NCK     -0.739100
      6 C18       -10.3450    0.8860    0.9130 c3        1 NCK      0.172800
      7 C27       -11.3340    2.0480    0.9740 c3        1 NCK     -0.074900
      8 C30       -11.6270    2.5940   -0.4140 c3        1 NCK     -0.067700
      9 C20       -12.5560    3.7840   -0.3400 c3        1 NCK     -0.089600
     10 C33       -10.3210    2.9670   -1.0970 c3        1 NCK     -0.074900
     11 C36        -9.3560    1.7840   -1.1150 c3        1 NCK      0.172800
     12 N7         -4.4520   -0.3790    0.0980 n         1 NCK     -0.474600
     13 C6         -3.3690   -1.2690    0.1470 ca        1 NCK      0.085100
     14 C40        -3.5550   -2.6980    0.2230 ca        1 NCK     -0.155000
     15 C42        -2.4780   -3.5300    0.2640 ca        1 NCK     -0.087000
     16 C4         -2.0830   -0.7510    0.1160 ca        1 NCK     -0.239800
     17 C3         -0.9300   -1.6090    0.1580 ca        1 NCK      0.454100
     18 N1          0.3100   -1.0570    0.1250 nb        1 NCK     -0.670000
     19 C44        -1.1420   -3.0310    0.2340 ca        1 NCK     -0.181800
     20 C45        -0.0220   -3.8680    0.2760 ca        1 NCK     -0.047000
     21 C2          1.2590   -3.3120    0.2430 ca        1 NCK     -0.181800
     22 C87         1.3870   -1.8790    0.1660 ca        1 NCK      0.454100
     23 C47         2.4420   -4.1110    0.2830 ca        1 NCK     -0.087000
     24 C49         3.6780   -3.5460    0.2490 ca        1 NCK     -0.155000
     25 C51         3.8320   -2.1060    0.1710 ca        1 NCK      0.085100
     26 C85         2.7100   -1.3040    0.1320 ca        1 NCK     -0.239800
     27 N52         5.1460   -1.6160    0.1380 n         1 NCK     -0.474600
     28 C54         5.5600   -0.2890    0.0910 c         1 NCK      0.665600
     29 O84         4.7640    0.6650    0.0680 o         1 NCK     -0.586100
     30 C55         7.0660   -0.0820    0.0670 c3        1 NCK     -0.156900
     31 C58         7.3790    1.4160    0.0680 c3        1 NCK      0.178300
     32 N61         8.8100    1.6810    0.1400 n3        1 NCK     -0.739100
     33 C63         9.4660    1.5440   -1.1530 c3        1 NCK      0.172800
     34 C66        10.9680    1.8130   -1.1020 c3        1 NCK     -0.074900
     35 C69        11.2570    3.1710   -0.4830 c3        1 NCK     -0.067700
     36 C77        12.7460    3.4080   -0.3740 c3        1 NCK     -0.089600
     37 C72        10.5930    3.2560    0.8820 c3        1 NCK     -0.074900
     38 C75         9.1000    2.9540    0.7890 c3        1 NCK      0.172800
     39 H10        -6.4960    1.2420    0.9290 hc        1 NCK      0.072950
     40 H10A       -6.5440    1.0920   -0.8800 hc        1 NCK      0.072950
     41 H13        -8.3940   -0.6000   -0.7060 h1        1 NCK      0.052450
     42 H13A       -8.3070   -0.5210    1.1040 h1        1 NCK      0.052450
     43 H18       -10.8650   -0.0020    0.4450 h1        1 NCK      0.029950
     44 H18A      -10.0630    0.6000    1.9650 h1        1 NCK      0.029950
     45 H27       -12.2800    1.6810    1.4480 hc        1 NCK      0.047825
     46 H27A      -10.9210    2.8660    1.6190 hc        1 NCK      0.047825
     47 H30       -12.1260    1.7830   -1.0180 hc        1 NCK      0.046700
     48 H20       -12.0930    4.6100    0.2520 hc        1 NCK      0.034700
     49 H20A      -12.7770    4.1670   -1.3660 hc        1 NCK      0.034700
     50 H20B      -13.5170    3.4950    0.1480 hc        1 NCK      0.034700
     51 H33       -10.5180    3.2800   -2.1550 hc        1 NCK      0.047825
     52 H33A       -9.8530    3.8340   -0.5640 hc        1 NCK      0.047825
     53 H36        -8.3640    2.1350   -1.5180 h1        1 NCK      0.029950
     54 H36A       -9.7570    1.0070   -1.8330 h1        1 NCK      0.029950
     55 HN7        -4.2040    0.5850    0.0350 hn        1 NCK      0.317000
     56 H40        -4.5760   -3.1140    0.2470 ha        1 NCK      0.153500
     57 H42        -2.6220   -4.6210    0.3230 ha        1 NCK      0.135000
     58 H4         -1.9040    0.3360    0.0590 ha        1 NCK      0.170500
     59 H45        -0.1510   -4.9600    0.3350 ha        1 NCK      0.137000
     60 H47         2.3260   -5.2040    0.3420 ha        1 NCK      0.135000
     61 H49         4.5750   -4.1840    0.2810 ha        1 NCK      0.153500
     62 H85         2.7880   -0.2030    0.0730 ha        1 NCK      0.170500
     63 HN52        5.8620   -2.3090    0.1670 hn        1 NCK      0.317000
     64 H55         7.5290   -0.5710    0.9640 hc        1 NCK      0.072950
     65 H55A        7.4890   -0.5690   -0.8510 hc        1 NCK      0.072950
     66 H58         6.9060    1.8770   -0.8490 h1        1 NCK      0.052450
     67 H58A        6.8710    1.8730    0.9650 h1        1 NCK      0.052450
     68 H63         9.3010    0.4860   -1.5040 h1        1 NCK      0.029950
     69 H63A        9.0070    2.2320   -1.9250 h1        1 NCK      0.029950
     70 H66        11.4790    1.0130   -0.5070 hc        1 NCK      0.047825
     71 H66A       11.3710    1.7750   -2.1460 hc        1 NCK      0.047825
     72 H69        10.8120    3.9660   -1.1460 hc        1 NCK      0.046700
     73 H77        13.2210    3.3590   -1.3840 hc        1 NCK      0.034700
     74 H77A       12.9470    4.4140    0.0660 hc        1 NCK      0.034700
     75 H77B       13.2220    2.6360    0.2780 hc        1 NCK      0.034700
     76 H72        11.0860    2.5350    1.5840 hc        1 NCK      0.047825
     77 H72A       10.7190    4.2860    1.3050 hc        1 NCK      0.047825
     78 H75         8.5930    3.8120    0.2570 h1        1 NCK      0.029950
     79 H75A        8.6790    2.9040    1.8330 h1        1 NCK      0.029950
@<TRIPOS>BOND
     1    1    2 2   
     2    2    3 1   
     3    2   12 1   
     4    3    4 1   
     5    3   39 1   
     6    3   40 1   
     7    4    5 1   
     8    4   41 1   
     9    4   42 1   
    10    5    6 1   
    11    5   11 1   
    12    6    7 1   
    13    6   43 1   
    14    6   44 1   
    15    7    8 1   
    16    7   45 1   
    17    7   46 1   
    18    8    9 1   
    19    8   10 1   
    20    8   47 1   
    21    9   48 1   
    22    9   49 1   
    23    9   50 1   
    24   10   11 1   
    25   10   51 1   
    26   10   52 1   
    27   11   53 1   
    28   11   54 1   
    29   12   13 1   
    30   12   55 1   
    31   13   14 ar  
    32   13   16 ar  
    33   14   15 ar  
    34   14   56 1   
    35   15   19 ar  
    36   15   57 1   
    37   16   17 ar  
    38   16   58 1   
    39   17   18 ar  
    40   17   19 ar  
    41   18   22 ar  
    42   19   20 ar  
    43   20   21 ar  
    44   20   59 1   
    45   21   22 ar  
    46   21   23 ar  
    47   22   26 ar  
    48   23   24 ar  
    49   23   60 1   
    50   24   25 ar  
    51   24   61 1   
    52   25   26 ar  
    53   25   27 1   
    54   26   62 1   
    55   27   28 1   
    56   27   63 1   
    57   28   29 2   
    58   28   30 1   
    59   30   31 1   
    60   30   64 1   
    61   30   65 1   
    62   31   32 1   
    63   31   66 1   
    64   31   67 1   
    65   32   33 1   
    66   32   38 1   
    67   33   34 1   
    68   33   68 1   
    69   33   69 1   
    70   34   35 1   
    71   34   70 1   
    72   34   71 1   
    73   35   36 1   
    74   35   37 1   
    75   35   72 1   
    76   36   73 1   
    77   36   74 1   
    78   36   75 1   
    79   37   38 1   
    80   37   76 1   
    81   37   77 1   
    82   38   78 1   
    83   38   79 1   
@<TRIPOS>SUBSTRUCTURE
     1 NCK         1 TEMP              0 ****  ****    0 ROOT
