@<TRIPOS>MOLECULE
NCK
   79    83     1     0     0
SMALL
bcc


@<TRIPOS>ATOM
      1 O39        -0.2600    1.0440    0.3530 o         1 NCK     -0.586100
      2 C9          0.7040    0.2570    0.3500 c         1 NCK      0.665600
      3 C10         1.5130   -0.0240    1.6070 c3        1 NCK     -0.156900
      4 C13         0.9370    0.7740    2.7790 c3        1 NCK      0.178300
      5 N16         1.6060    0.4690    4.0370 n3        1 NCK     -0.739100
      6 C18         0.7280    0.6580    5.1850 c3        1 NCK      0.172800
      7 C27         1.4020    0.3410    6.5180 c3        1 NCK     -0.074900
      8 C30         2.6960    1.1230    6.6780 c3        1 NCK     -0.067700
      9 C20         3.3900    0.7560    7.9700 c3        1 NCK     -0.089600
     10 C33         3.5980    0.8580    5.4840 c3        1 NCK     -0.074900
     11 C36         2.8770    1.1660    4.1740 c3        1 NCK      0.172800
     12 N7          1.1260   -0.4240   -0.7860 ns        1 NCK     -0.474600
     13 C6          0.5850   -0.3840   -2.0800 ca        1 NCK      0.085100
     14 C40        -0.5140    0.4860   -2.4230 ca        1 NCK     -0.155000
     15 C42        -1.0080    0.5010   -3.6920 ca        1 NCK     -0.087000
     16 C4          1.1350   -1.2030   -3.0540 ca        1 NCK     -0.239800
     17 C3          0.6310   -1.2040   -4.4020 ca        1 NCK      0.454100
     18 N1          1.2000   -2.0220   -5.3230 nb        1 NCK     -0.670000
     19 C44        -0.4680   -0.3280   -4.7180 ca        1 NCK     -0.181800
     20 C45        -0.9600   -0.3280   -6.0270 ca        1 NCK     -0.047000
     21 C2         -0.3830   -1.1660   -6.9850 ca        1 NCK     -0.181800
     22 C87         0.7140   -2.0120   -6.5880 ca        1 NCK      0.454100
     23 C47        -0.8390   -1.2120   -8.3360 ca        1 NCK     -0.087000
     24 C49        -0.2610   -2.0360   -9.2500 ca        1 NCK     -0.155000
     25 C51         0.8440   -2.8970   -8.8750 ca        1 NCK      0.085100
     26 C85         1.3100   -2.8780   -7.5770 ca        1 NCK     -0.239800
     27 N52         1.3780   -3.7100   -9.8860 ns        1 NCK     -0.474600
     28 C54         2.4130   -4.6340   -9.7800 c         1 NCK      0.665600
     29 O84         3.0170   -4.8500   -8.7160 o         1 NCK     -0.586100
     30 C55         2.7610   -5.3650  -11.0670 c3        1 NCK     -0.156900
     31 C58         3.8730   -6.3820  -10.7960 c3        1 NCK      0.178300
     32 N61         4.1870   -7.1830  -11.9710 n3        1 NCK     -0.739100
     33 C63         5.0540   -6.4810  -12.9070 c3        1 NCK      0.172800
     34 C66         5.3940   -7.3010  -14.1490 c3        1 NCK     -0.074900
     35 C69         5.9780   -8.6510  -13.7680 c3        1 NCK     -0.067700
     36 C77         6.2540   -9.4860  -14.9980 c3        1 NCK     -0.089600
     37 C72         5.0230   -9.3690  -12.8280 c3        1 NCK     -0.074900
     38 C75         4.6890   -8.5050  -11.6150 c3        1 NCK      0.172800
     39 H10         1.4790   -1.1220    1.8370 hc        1 NCK      0.072950
     40 H10A        2.5830    0.2600    1.4290 hc        1 NCK      0.072950
     41 H13         0.9940    1.8720    2.5220 h1        1 NCK      0.052450
     42 H13A       -0.1570    0.5140    2.8680 h1        1 NCK      0.052450
     43 H18         0.3290    1.7150    5.2280 h1        1 NCK      0.029950
     44 H18A       -0.1520   -0.0330    5.0550 h1        1 NCK      0.029950
     45 H27         1.6160   -0.7570    6.5850 hc        1 NCK      0.047825
     46 H27A        0.6920    0.6030    7.3430 hc        1 NCK      0.047825
     47 H30         2.4480    2.2220    6.7010 hc        1 NCK      0.046700
     48 H20         4.3300    1.3470    8.0860 hc        1 NCK      0.034700
     49 H20A        2.7250    0.9690    8.8410 hc        1 NCK      0.034700
     50 H20B        3.6520   -0.3300    7.9830 hc        1 NCK      0.034700
     51 H33         3.9300   -0.2120    5.4940 hc        1 NCK      0.047825
     52 H33A        4.5130    1.5020    5.5450 hc        1 NCK      0.047825
     53 H36         2.7430    2.2870    4.0960 h1        1 NCK      0.029950
     54 H36A        3.5330    0.8440    3.3170 h1        1 NCK      0.029950
     55 HN7         1.8980   -1.0460   -0.6710 hn        1 NCK      0.317000
     56 H40        -0.9540    1.1390   -1.6510 ha        1 NCK      0.153500
     57 H42        -1.8490    1.1650   -3.9510 ha        1 NCK      0.135000
     58 H4          1.9750   -1.8800   -2.8280 ha        1 NCK      0.170500
     59 H45        -1.8000    0.3300   -6.3010 ha        1 NCK      0.137000
     60 H47        -1.6790   -0.5590   -8.6230 ha        1 NCK      0.135000
     61 H49        -0.6310   -2.0540  -10.2870 ha        1 NCK      0.153500
     62 H85         2.1500   -3.5200   -7.2540 ha        1 NCK      0.170500
     63 HN52        0.9490   -3.6180  -10.7800 hn        1 NCK      0.317000
     64 H55         1.8500   -5.8890  -11.4610 hc        1 NCK      0.072950
     65 H55A        3.0920   -4.6190  -11.8360 hc        1 NCK      0.072950
     66 H58         3.5240   -7.0600   -9.9650 h1        1 NCK      0.052450
     67 H58A        4.7750   -5.8230  -10.4070 h1        1 NCK      0.052450
     68 H63         4.5160   -5.5450  -13.2280 h1        1 NCK      0.029950
     69 H63A        6.0220   -6.1640  -12.4140 h1        1 NCK      0.029950
     70 H66         4.4730   -7.4520  -14.7700 hc        1 NCK      0.047825
     71 H66A        6.1320   -6.7240  -14.7640 hc        1 NCK      0.047825
     72 H69         6.9500   -8.4780  -13.2240 hc        1 NCK      0.046700
     73 H77         5.3100   -9.6780  -15.5640 hc        1 NCK      0.034700
     74 H77A        6.6980  -10.4690  -14.7070 hc        1 NCK      0.034700
     75 H77B        6.9690   -8.9570  -15.6730 hc        1 NCK      0.034700
     76 H72         4.0830   -9.6330  -13.3790 hc        1 NCK      0.047825
     77 H72A        5.4870  -10.3220  -12.4660 hc        1 NCK      0.047825
     78 H75         3.8850   -9.0220  -11.0170 h1        1 NCK      0.029950
     79 H75A        5.6090   -8.4330  -10.9620 h1        1 NCK      0.029950
@<TRIPOS>BOND
     1    1    2 2   
     2    2    3 1   
     3    2   12 1   
     4    3    4 1   
     5    3   39 1   
     6    3   40 1   
     7    4    5 1   
     8    4   41 1   
     9    4   42 1   
    10    5    6 1   
    11    5   11 1   
    12    6    7 1   
    13    6   43 1   
    14    6   44 1   
    15    7    8 1   
    16    7   45 1   
    17    7   46 1   
    18    8    9 1   
    19    8   10 1   
    20    8   47 1   
    21    9   48 1   
    22    9   49 1   
    23    9   50 1   
    24   10   11 1   
    25   10   51 1   
    26   10   52 1   
    27   11   53 1   
    28   11   54 1   
    29   12   13 1   
    30   12   55 1   
    31   13   14 ar  
    32   13   16 ar  
    33   14   15 ar  
    34   14   56 1   
    35   15   19 ar  
    36   15   57 1   
    37   16   17 ar  
    38   16   58 1   
    39   17   18 ar  
    40   17   19 ar  
    41   18   22 ar  
    42   19   20 ar  
    43   20   21 ar  
    44   20   59 1   
    45   21   22 ar  
    46   21   23 ar  
    47   22   26 ar  
    48   23   24 ar  
    49   23   60 1   
    50   24   25 ar  
    51   24   61 1   
    52   25   26 ar  
    53   25   27 1   
    54   26   62 1   
    55   27   28 1   
    56   27   63 1   
    57   28   29 2   
    58   28   30 1   
    59   30   31 1   
    60   30   64 1   
    61   30   65 1   
    62   31   32 1   
    63   31   66 1   
    64   31   67 1   
    65   32   33 1   
    66   32   38 1   
    67   33   34 1   
    68   33   68 1   
    69   33   69 1   
    70   34   35 1   
    71   34   70 1   
    72   34   71 1   
    73   35   36 1   
    74   35   37 1   
    75   35   72 1   
    76   36   73 1   
    77   36   74 1   
    78   36   75 1   
    79   37   38 1   
    80   37   76 1   
    81   37   77 1   
    82   38   78 1   
    83   38   79 1   
@<TRIPOS>SUBSTRUCTURE
     1 NCK         1 TEMP              0 ****  ****    0 ROOT
