@<TRIPOS>MOLECULE
NCL
   79    83     1     0     0
SMALL
bcc


@<TRIPOS>ATOM
      1 O39         6.4630   -1.6360    0.9300 o         1 NCL     -0.590100
      2 C9          6.1700   -0.6010    0.3080 c         1 NCL      0.668100
      3 C10         7.2360    0.3510   -0.2140 c3        1 NCL     -0.157400
      4 C13         8.6230   -0.1700    0.1700 c3        1 NCL      0.178800
      5 N16         9.6840    0.7500   -0.2200 n3        1 NCL     -0.739100
      6 C18        10.8400    0.6570    0.6620 c3        1 NCL      0.177300
      7 C27        11.9780    1.6210    0.3000 c3        1 NCL     -0.064700
      8 C20        11.6310    3.0460    0.6710 c3        1 NCL     -0.089600
      9 C30        12.3420    1.4930   -1.1700 c3        1 NCL     -0.074900
     10 C33        11.1240    1.6050   -2.0600 c3        1 NCL     -0.076900
     11 C36        10.0340    0.6280   -1.6280 c3        1 NCL      0.170800
     12 N7          4.8600   -0.2250    0.0310 n         1 NCL     -0.476100
     13 C6          3.6700   -0.8800    0.3870 ca        1 NCL      0.097100
     14 C4          2.4620   -0.2740    0.0790 ca        1 NCL     -0.263300
     15 C3          1.2080   -0.8970    0.4080 ca        1 NCL      0.457600
     16 N1          0.0490   -0.2680    0.0860 nb        1 NCL     -0.682000
     17 C40         3.6720   -2.1610    1.0510 ca        1 NCL     -0.146000
     18 C42         2.4980   -2.7690    1.3730 ca        1 NCL     -0.089000
     19 C44         1.2360   -2.1750    1.0710 ca        1 NCL     -0.180300
     20 C45         0.0200   -2.7840    1.3940 ca        1 NCL     -0.045000
     21 C2         -1.1820   -2.1470    1.0700 ca        1 NCL     -0.180300
     22 C47        -2.4570   -2.7120    1.3700 ca        1 NCL     -0.089000
     23 C49        -3.6170   -2.0780    1.0450 ca        1 NCL     -0.146000
     24 C87        -1.1230   -0.8700    0.4060 ca        1 NCL      0.457600
     25 C85        -2.3630   -0.2190    0.0750 ca        1 NCL     -0.263300
     26 C51        -3.5850   -0.7970    0.3810 ca        1 NCL      0.097100
     27 N52        -4.7590   -0.1160    0.0240 n         1 NCL     -0.476100
     28 C54        -6.0780   -0.4610    0.2980 c         1 NCL      0.668100
     29 O84        -6.3960   -1.4900    0.9210 o         1 NCL     -0.590100
     30 C55        -7.1210    0.5140   -0.2250 c3        1 NCL     -0.157400
     31 C58        -8.5200    0.0260    0.1580 c3        1 NCL      0.178800
     32 N61        -9.5590    0.9710   -0.2320 n3        1 NCL     -0.739100
     33 C63       -10.7190    0.9030    0.6480 c3        1 NCL      0.177300
     34 C66       -11.8190    1.9060    0.2740 c3        1 NCL     -0.064700
     35 C77       -13.0120    1.7100    1.1810 c3        1 NCL     -0.089600
     36 C69       -12.2100    1.7410   -1.1850 c3        1 NCL     -0.074900
     37 C72       -10.9890    1.8500   -2.0720 c3        1 NCL     -0.076900
     38 C75        -9.9080    0.8620   -1.6420 c3        1 NCL      0.170800
     39 H10         7.1440    0.4320   -1.3290 hc        1 NCL      0.073700
     40 H10A        7.0740    1.3710    0.2230 hc        1 NCL      0.073700
     41 H13         8.6410   -0.3070    1.2890 h1        1 NCL      0.051700
     42 H13A        8.7570   -1.1930   -0.2890 h1        1 NCL      0.051700
     43 H18        10.4890    0.8950    1.7060 h1        1 NCL      0.032700
     44 H18A       11.2630   -0.3910    0.6710 h1        1 NCL      0.032700
     45 H27        12.8710    1.3080    0.9120 hc        1 NCL      0.053200
     46 H20        11.4210    3.1200    1.7650 hc        1 NCL      0.036200
     47 H20A       12.4820    3.7270    0.4260 hc        1 NCL      0.036200
     48 H20B       10.7270    3.3930    0.1150 hc        1 NCL      0.036200
     49 H30        13.0850    2.2870   -1.4440 hc        1 NCL      0.041200
     50 H30A       12.8340    0.4980   -1.3370 hc        1 NCL      0.041200
     51 H33        10.7280    2.6530   -2.0300 hc        1 NCL      0.046950
     52 H33A       11.4030    1.3770   -3.1210 hc        1 NCL      0.046950
     53 H36        10.3740   -0.4210   -1.8800 h1        1 NCL      0.027700
     54 H36A        9.1030    0.8340   -2.2280 h1        1 NCL      0.027700
     55 HN7         4.7380    0.6380   -0.4540 hn        1 NCL      0.317500
     56 H4          2.4240    0.7050   -0.4280 ha        1 NCL      0.147000
     57 H40         4.6310   -2.6460    1.2980 ha        1 NCL      0.178000
     58 H42         2.5000   -3.7470    1.8810 ha        1 NCL      0.137000
     59 H45         0.0080   -3.7600    1.9020 ha        1 NCL      0.139000
     60 H47        -2.4830   -3.6900    1.8770 ha        1 NCL      0.137000
     61 H49        -4.5880   -2.5410    1.2910 ha        1 NCL      0.178000
     62 H85        -2.3020    0.7580   -0.4310 ha        1 NCL      0.147000
     63 HN52       -4.6160    0.7450   -0.4600 hn        1 NCL      0.317500
     64 H55        -6.9360    1.5310    0.2110 hc        1 NCL      0.073700
     65 H55A       -7.0260    0.5930   -1.3400 hc        1 NCL      0.073700
     66 H58        -8.6770   -0.9940   -0.3010 h1        1 NCL      0.051700
     67 H58A       -8.5420   -0.1110    1.2770 h1        1 NCL      0.051700
     68 H63       -11.1700   -0.1330    0.6580 h1        1 NCL      0.032700
     69 H63A      -10.3670    1.1340    1.6930 h1        1 NCL      0.032700
     70 H66       -11.4180    2.9480    0.4210 hc        1 NCL      0.053200
     71 H77       -12.7160    1.8440    2.2490 hc        1 NCL      0.036200
     72 H77A      -13.8070    2.4560    0.9360 hc        1 NCL      0.036200
     73 H77B      -13.4410    0.6860    1.0590 hc        1 NCL      0.036200
     74 H69       -12.6980    0.7430   -1.3330 hc        1 NCL      0.041200
     75 H69A      -12.9570    2.5270   -1.4670 hc        1 NCL      0.041200
     76 H72       -11.2650    1.6300   -3.1360 hc        1 NCL      0.046950
     77 H72A      -10.5850    2.8950   -2.0320 hc        1 NCL      0.046950
     78 H75        -8.9730    1.0650   -2.2370 h1        1 NCL      0.027700
     79 H75A      -10.2550   -0.1820   -1.9020 h1        1 NCL      0.027700
@<TRIPOS>BOND
     1    1    2 2   
     2    2    3 1   
     3    2   12 1   
     4    3    4 1   
     5    3   39 1   
     6    3   40 1   
     7    4    5 1   
     8    4   41 1   
     9    4   42 1   
    10    5    6 1   
    11    5   11 1   
    12    6    7 1   
    13    6   43 1   
    14    6   44 1   
    15    7    8 1   
    16    7    9 1   
    17    7   45 1   
    18    8   46 1   
    19    8   47 1   
    20    8   48 1   
    21    9   10 1   
    22    9   49 1   
    23    9   50 1   
    24   10   11 1   
    25   10   51 1   
    26   10   52 1   
    27   11   53 1   
    28   11   54 1   
    29   12   13 1   
    30   12   55 1   
    31   13   14 ar  
    32   13   17 ar  
    33   14   15 ar  
    34   14   56 1   
    35   15   16 ar  
    36   15   19 ar  
    37   16   24 ar  
    38   17   18 ar  
    39   17   57 1   
    40   18   19 ar  
    41   18   58 1   
    42   19   20 ar  
    43   20   21 ar  
    44   20   59 1   
    45   21   22 ar  
    46   21   24 ar  
    47   22   23 ar  
    48   22   60 1   
    49   23   26 ar  
    50   23   61 1   
    51   24   25 ar  
    52   25   26 ar  
    53   25   62 1   
    54   26   27 1   
    55   27   28 1   
    56   27   63 1   
    57   28   29 2   
    58   28   30 1   
    59   30   31 1   
    60   30   64 1   
    61   30   65 1   
    62   31   32 1   
    63   31   66 1   
    64   31   67 1   
    65   32   33 1   
    66   32   38 1   
    67   33   34 1   
    68   33   68 1   
    69   33   69 1   
    70   34   35 1   
    71   34   36 1   
    72   34   70 1   
    73   35   71 1   
    74   35   72 1   
    75   35   73 1   
    76   36   37 1   
    77   36   74 1   
    78   36   75 1   
    79   37   38 1   
    80   37   76 1   
    81   37   77 1   
    82   38   78 1   
    83   38   79 1   
@<TRIPOS>SUBSTRUCTURE
     1 NCL         1 TEMP              0 ****  ****    0 ROOT
