@<TRIPOS>MOLECULE
NCL
   81    85     1     0     0
SMALL
bcc


@<TRIPOS>ATOM
      1 O39        -1.0040    2.8330   -0.5910 o         1 NCL     -0.411100
      2 C9         -0.2410    2.2340    0.1500 c         1 NCL      0.550600
      3 C10        -0.3980    2.0240    1.6290 c3        1 NCL     -0.162400
      4 C13        -0.3120    0.5590    2.0640 c3        1 NCL      0.141800
      5 N16         0.9600   -0.0680    1.7120 n3        1 NCL     -0.780600
      6 C18         2.0180    0.2490    2.6730 c3        1 NCL      0.145800
      7 C27         3.3790   -0.3600    2.3160 c3        1 NCL     -0.067200
      8 C20         4.0200    0.3410    1.1410 c3        1 NCL     -0.095600
      9 C30         3.2430   -1.8560    2.0820 c3        1 NCL     -0.084900
     10 C33         2.1380   -2.1780    1.1010 c3        1 NCL     -0.082400
     11 C36         0.8230   -1.5100    1.4940 c3        1 NCL      0.150300
     12 N7          1.0240    1.6590   -0.4550 n4        1 NCL     -0.583700
     13 C6          0.9080    1.2820   -1.8620 ca        1 NCL     -0.008900
     14 C4          0.7490    2.2400   -2.8350 ca        1 NCL     -0.105300
     15 C3          0.6470    1.8470   -4.2240 ca        1 NCL      0.420600
     16 N1          0.4930    2.8080   -5.1670 nb        1 NCL     -0.621000
     17 C40         0.9700   -0.1170   -2.1910 ca        1 NCL     -0.133000
     18 C42         0.8740   -0.5090   -3.4920 ca        1 NCL     -0.063000
     19 C44         0.7100    0.4450   -4.5440 ca        1 NCL     -0.134300
     20 C45         0.6040    0.0650   -5.8890 ca        1 NCL     -0.035000
     21 C2          0.4380    1.0470   -6.8740 ca        1 NCL     -0.134300
     22 C47         0.3180    0.7240   -8.2610 ca        1 NCL     -0.063000
     23 C49         0.1540    1.6960   -9.2020 ca        1 NCL     -0.133000
     24 C87         0.3860    2.4250   -6.4620 ca        1 NCL      0.420600
     25 C85         0.2090    3.4410   -7.4780 ca        1 NCL     -0.105300
     26 C51         0.1020    3.0760   -8.7990 ca        1 NCL     -0.008900
     27 N52        -0.0670    4.0880   -9.8400 n4        1 NCL     -0.583700
     28 C54        -1.4120    4.7880   -9.8280 c         1 NCL      0.550600
     29 O84        -1.9900    4.8910   -8.7580 o         1 NCL     -0.411100
     30 C55        -1.8700    5.3140  -11.1590 c3        1 NCL     -0.162400
     31 C58        -1.9340    4.2510  -12.2580 c3        1 NCL      0.141800
     32 N61        -0.6460    3.6100  -12.5060 n3        1 NCL     -0.780600
     33 C63         0.2080    4.4050  -13.3910 c3        1 NCL      0.145800
     34 C66         1.5840    3.7680  -13.6300 c3        1 NCL     -0.067200
     35 C77         2.3710    4.6200  -14.6010 c3        1 NCL     -0.095600
     36 C69         1.4170    2.3520  -14.1550 c3        1 NCL     -0.084900
     37 C72         0.5410    1.5380  -13.2290 c3        1 NCL     -0.082400
     38 C75        -0.7960    2.2290  -12.9740 c3        1 NCL      0.150300
     39 H10         0.3730    2.6470    2.1620 hc        1 NCL      0.119450
     40 H10A       -1.4150    2.4170    1.9160 hc        1 NCL      0.119450
     41 H13        -0.4960    0.5380    3.1800 h1        1 NCL      0.083700
     42 H13A       -1.1560   -0.0090    1.5770 h1        1 NCL      0.083700
     43 H18         1.7350   -0.1100    3.7070 h1        1 NCL      0.051450
     44 H18A        2.1170    1.3700    2.7160 h1        1 NCL      0.051450
     45 H27         4.0430   -0.2030    3.2160 hc        1 NCL      0.060700
     46 H20         4.0860    1.4400    1.3280 hc        1 NCL      0.043533
     47 H20A        3.4400    0.1710    0.2010 hc        1 NCL      0.043533
     48 H20B        5.0560   -0.0500    0.9820 hc        1 NCL      0.043533
     49 H30         4.2150   -2.2670    1.7020 hc        1 NCL      0.067950
     50 H30A        3.0270   -2.3590    3.0630 hc        1 NCL      0.067950
     51 H33         2.4390   -1.8550    0.0700 hc        1 NCL      0.054200
     52 H33A        1.9680   -3.2870    1.0700 hc        1 NCL      0.054200
     53 H36         0.4230   -2.0170    2.4190 h1        1 NCL      0.053950
     54 H36A        0.0720   -1.6630    0.6670 h1        1 NCL      0.053950
     55 HN7         1.2910    0.8050    0.1380 hn        1 NCL      0.487800
     56 H4          0.6750    3.3170   -2.5940 ha        1 NCL      0.182000
     57 H40         1.0970   -0.8650   -1.3890 ha        1 NCL      0.165000
     58 H42         0.9200   -1.5790   -3.7600 ha        1 NCL      0.171000
     59 H45         0.6490   -1.0010   -6.1700 ha        1 NCL      0.170000
     60 H47         0.3610   -0.3390   -8.5560 ha        1 NCL      0.171000
     61 H49         0.0610    1.4310  -10.2700 ha        1 NCL      0.165000
     62 H85         0.1450    4.4950   -7.1510 ha        1 NCL      0.182000
     63 HN52        0.0370    3.6430  -10.8100 hn        1 NCL      0.487800
     64 H55        -2.9060    5.7340  -11.0130 hc        1 NCL      0.119450
     65 H55A       -1.1960    6.1630  -11.4600 hc        1 NCL      0.119450
     66 H58        -2.3350    4.7620  -13.1840 h1        1 NCL      0.083700
     67 H58A       -2.6900    3.4700  -11.9560 h1        1 NCL      0.083700
     68 H63         0.3490    5.4160  -12.9150 h1        1 NCL      0.051450
     69 H63A       -0.2880    4.5660  -14.3930 h1        1 NCL      0.051450
     70 H66         2.1410    3.7270  -12.6520 hc        1 NCL      0.060700
     71 H77         3.3840    4.1780  -14.7610 hc        1 NCL      0.043533
     72 H77A        1.8530    4.6780  -15.5900 hc        1 NCL      0.043533
     73 H77B        2.4940    5.6570  -14.2040 hc        1 NCL      0.043533
     74 H69         2.4230    1.8660  -14.2520 hc        1 NCL      0.067950
     75 H69A        0.9610    2.3830  -15.1800 hc        1 NCL      0.067950
     76 H72         1.0750    1.3650  -12.2580 hc        1 NCL      0.054200
     77 H72A        0.3320    0.5340  -13.6840 hc        1 NCL      0.054200
     78 H75        -1.4060    2.1940  -13.9240 h1        1 NCL      0.053950
     79 H75A       -1.3600    1.6580  -12.1830 h1        1 NCL      0.053950
     80 H721        1.7710    2.3560   -0.3610 hn        1 NCL      0.487800
     81 H522        0.6630    4.7990   -9.7310 hn        1 NCL      0.487800
@<TRIPOS>BOND
     1    1    2 2   
     2    2    3 1   
     3    2   12 1   
     4    3    4 1   
     5    3   39 1   
     6    3   40 1   
     7    4    5 1   
     8    4   41 1   
     9    4   42 1   
    10    5    6 1   
    11    5   11 1   
    12    6    7 1   
    13    6   43 1   
    14    6   44 1   
    15    7    8 1   
    16    7    9 1   
    17    7   45 1   
    18    8   46 1   
    19    8   47 1   
    20    8   48 1   
    21    9   10 1   
    22    9   49 1   
    23    9   50 1   
    24   10   11 1   
    25   10   51 1   
    26   10   52 1   
    27   11   53 1   
    28   11   54 1   
    29   12   13 1   
    30   12   55 1   
    31   12   80 1   
    32   13   14 ar  
    33   13   17 ar  
    34   14   15 ar  
    35   14   56 1   
    36   15   16 ar  
    37   15   19 ar  
    38   16   24 ar  
    39   17   18 ar  
    40   17   57 1   
    41   18   19 ar  
    42   18   58 1   
    43   19   20 ar  
    44   20   21 ar  
    45   20   59 1   
    46   21   22 ar  
    47   21   24 ar  
    48   22   23 ar  
    49   22   60 1   
    50   23   26 ar  
    51   23   61 1   
    52   24   25 ar  
    53   25   26 ar  
    54   25   62 1   
    55   26   27 1   
    56   27   28 1   
    57   27   63 1   
    58   27   81 1   
    59   28   29 2   
    60   28   30 1   
    61   30   31 1   
    62   30   64 1   
    63   30   65 1   
    64   31   32 1   
    65   31   66 1   
    66   31   67 1   
    67   32   33 1   
    68   32   38 1   
    69   33   34 1   
    70   33   68 1   
    71   33   69 1   
    72   34   35 1   
    73   34   36 1   
    74   34   70 1   
    75   35   71 1   
    76   35   72 1   
    77   35   73 1   
    78   36   37 1   
    79   36   74 1   
    80   36   75 1   
    81   37   38 1   
    82   37   76 1   
    83   37   77 1   
    84   38   78 1   
    85   38   79 1   
@<TRIPOS>SUBSTRUCTURE
     1 NCL         1 TEMP              0 ****  ****    0 ROOT
