@<TRIPOS>MOLECULE
NCL
   79    83     1     0     0
SMALL
bcc


@<TRIPOS>ATOM
      1 O39        -0.1900   -1.2550    0.4610 o         1 NCL     -0.590100
      2 C9          0.7670   -0.4860    0.2610 c         1 NCL      0.668100
      3 C10         1.7180   -0.0810    1.3760 c3        1 NCL     -0.157400
      4 C13         1.2760   -0.7300    2.6910 c3        1 NCL      0.178800
      5 N16         2.0940   -0.3020    3.8180 n3        1 NCL     -0.739100
      6 C18         1.3520   -0.3250    5.0720 c3        1 NCL      0.177300
      7 C27         2.1680    0.1370    6.2870 c3        1 NCL     -0.064700
      8 C20         2.3780    1.6340    6.2730 c3        1 NCL     -0.089600
      9 C30         3.4860   -0.6170    6.3640 c3        1 NCL     -0.074900
     10 C33         4.2380   -0.5670    5.0530 c3        1 NCL     -0.076900
     11 C36         3.3570   -1.0240    3.8940 c3        1 NCL      0.170800
     12 N7          1.0540    0.0610   -0.9850 n         1 NCL     -0.476100
     13 C6          0.3580   -0.1060   -2.1920 ca        1 NCL      0.096600
     14 C4          0.7520    0.6380   -3.2940 ca        1 NCL     -0.262300
     15 C3          0.0870    0.5040   -4.5630 ca        1 NCL      0.456600
     16 N1          0.5070    1.2520   -5.6140 nb        1 NCL     -0.682000
     17 C40        -0.7410   -1.0320   -2.3180 ca        1 NCL     -0.145000
     18 C42        -1.3860   -1.1740   -3.5090 ca        1 NCL     -0.089000
     19 C44        -1.0080   -0.4260   -4.6630 ca        1 NCL     -0.180300
     20 C45        -1.6580   -0.5580   -5.8930 ca        1 NCL     -0.045000
     21 C2         -1.2370    0.2060   -6.9860 ca        1 NCL     -0.180300
     22 C47        -1.8560    0.1210   -8.2680 ca        1 NCL     -0.089000
     23 C49        -1.4310    0.8730   -9.3210 ca        1 NCL     -0.145000
     24 C87        -0.1340    1.1140   -6.8020 ca        1 NCL      0.456600
     25 C85         0.2950    1.8990   -7.9290 ca        1 NCL     -0.262300
     26 C51        -0.3300    1.7910   -9.1620 ca        1 NCL      0.096600
     27 N52         0.1430    2.5750  -10.2260 n         1 NCL     -0.476100
     28 C54        -0.3970    2.7180  -11.5000 c         1 NCL      0.668100
     29 O84        -1.4140    2.1110  -11.8790 o         1 NCL     -0.590100
     30 C55         0.3550    3.6730  -12.4140 c3        1 NCL     -0.157400
     31 C58        -0.3560    3.7590  -13.7660 c3        1 NCL      0.178800
     32 N61         0.2630    4.7340  -14.6540 n3        1 NCL     -0.739100
     33 C63        -0.6960    5.3140  -15.5850 c3        1 NCL      0.177300
     34 C66        -0.0730    6.3650  -16.5150 c3        1 NCL     -0.064700
     35 C77        -1.1140    6.8510  -17.4980 c3        1 NCL     -0.089600
     36 C69         1.1310    5.7840  -17.2380 c3        1 NCL     -0.074900
     37 C72         2.1200    5.2210  -16.2420 c3        1 NCL     -0.076900
     38 C75         1.4510    4.2090  -15.3140 c3        1 NCL      0.170800
     39 H10         2.7580   -0.4060    1.1100 hc        1 NCL      0.073700
     40 H10A        1.7200    1.0360    1.4820 hc        1 NCL      0.073700
     41 H13         0.2030   -0.4380    2.8750 h1        1 NCL      0.051950
     42 H13A        1.2920   -1.8520    2.5540 h1        1 NCL      0.051950
     43 H18         0.4680    0.3630    4.9540 h1        1 NCL      0.032450
     44 H18A        0.9550   -1.3600    5.2930 h1        1 NCL      0.032450
     45 H27         1.5600   -0.1240    7.2000 hc        1 NCL      0.053200
     46 H20         2.9470    1.9480    5.3660 hc        1 NCL      0.036200
     47 H20A        1.3930    2.1620    6.2710 hc        1 NCL      0.036200
     48 H20B        2.9480    1.9520    7.1790 hc        1 NCL      0.036200
     49 H30         3.2770   -1.6870    6.6310 hc        1 NCL      0.041200
     50 H30A        4.1200   -0.1830    7.1800 hc        1 NCL      0.041200
     51 H33         4.6010    0.4770    4.8640 hc        1 NCL      0.046950
     52 H33A        5.1360   -1.2360    5.1000 hc        1 NCL      0.046950
     53 H36         3.1900   -2.1390    3.9890 h1        1 NCL      0.027700
     54 H36A        3.9070   -0.8460    2.9270 h1        1 NCL      0.027700
     55 HN7         1.8260    0.6910   -1.0270 hn        1 NCL      0.317500
     56 H4          1.5870    1.3550   -3.2320 ha        1 NCL      0.147000
     57 H40        -1.0570   -1.6250   -1.4440 ha        1 NCL      0.177000
     58 H42        -2.2260   -1.8820   -3.6040 ha        1 NCL      0.137000
     59 H45        -2.4990   -1.2600   -6.0020 ha        1 NCL      0.139000
     60 H47        -2.6980   -0.5790   -8.3900 ha        1 NCL      0.137000
     61 H49        -1.9300    0.7840  -10.3000 ha        1 NCL      0.177000
     62 H85         1.1390    2.5900   -7.7730 ha        1 NCL      0.147000
     63 HN52        0.9420    3.1340  -10.0160 hn        1 NCL      0.317500
     64 H55         0.4010    4.6890  -11.9390 hc        1 NCL      0.073700
     65 H55A        1.4060    3.3050  -12.5470 hc        1 NCL      0.073700
     66 H58        -0.3790    2.7240  -14.2200 h1        1 NCL      0.051950
     67 H58A       -1.4260    4.0560  -13.5740 h1        1 NCL      0.051950
     68 H63        -1.1860    4.5200  -16.2220 h1        1 NCL      0.032450
     69 H63A       -1.5030    5.8120  -14.9760 h1        1 NCL      0.032450
     70 H66         0.2720    7.2370  -15.8900 hc        1 NCL      0.053200
     71 H77        -1.4770    6.0130  -18.1400 hc        1 NCL      0.036200
     72 H77A       -1.9890    7.2850  -16.9560 hc        1 NCL      0.036200
     73 H77B       -0.6790    7.6390  -18.1600 hc        1 NCL      0.036200
     74 H69         1.6210    6.5800  -17.8550 hc        1 NCL      0.041200
     75 H69A        0.7940    4.9750  -17.9370 hc        1 NCL      0.041200
     76 H72         2.9570    4.7060  -16.7800 hc        1 NCL      0.046950
     77 H72A        2.5630    6.0540  -15.6370 hc        1 NCL      0.046950
     78 H75         2.1830    3.9160  -14.5090 h1        1 NCL      0.027700
     79 H75A        1.2130    3.2800  -15.9120 h1        1 NCL      0.027700
@<TRIPOS>BOND
     1    1    2 2   
     2    2    3 1   
     3    2   12 1   
     4    3    4 1   
     5    3   39 1   
     6    3   40 1   
     7    4    5 1   
     8    4   41 1   
     9    4   42 1   
    10    5    6 1   
    11    5   11 1   
    12    6    7 1   
    13    6   43 1   
    14    6   44 1   
    15    7    8 1   
    16    7    9 1   
    17    7   45 1   
    18    8   46 1   
    19    8   47 1   
    20    8   48 1   
    21    9   10 1   
    22    9   49 1   
    23    9   50 1   
    24   10   11 1   
    25   10   51 1   
    26   10   52 1   
    27   11   53 1   
    28   11   54 1   
    29   12   13 1   
    30   12   55 1   
    31   13   14 ar  
    32   13   17 ar  
    33   14   15 ar  
    34   14   56 1   
    35   15   16 ar  
    36   15   19 ar  
    37   16   24 ar  
    38   17   18 ar  
    39   17   57 1   
    40   18   19 ar  
    41   18   58 1   
    42   19   20 ar  
    43   20   21 ar  
    44   20   59 1   
    45   21   22 ar  
    46   21   24 ar  
    47   22   23 ar  
    48   22   60 1   
    49   23   26 ar  
    50   23   61 1   
    51   24   25 ar  
    52   25   26 ar  
    53   25   62 1   
    54   26   27 1   
    55   27   28 1   
    56   27   63 1   
    57   28   29 2   
    58   28   30 1   
    59   30   31 1   
    60   30   64 1   
    61   30   65 1   
    62   31   32 1   
    63   31   66 1   
    64   31   67 1   
    65   32   33 1   
    66   32   38 1   
    67   33   34 1   
    68   33   68 1   
    69   33   69 1   
    70   34   35 1   
    71   34   36 1   
    72   34   70 1   
    73   35   71 1   
    74   35   72 1   
    75   35   73 1   
    76   36   37 1   
    77   36   74 1   
    78   36   75 1   
    79   37   38 1   
    80   37   76 1   
    81   37   77 1   
    82   38   78 1   
    83   38   79 1   
@<TRIPOS>SUBSTRUCTURE
     1 NCL         1 TEMP              0 ****  ****    0 ROOT
