@<TRIPOS>MOLECULE
NCL
   79    83     1     0     0
SMALL
bcc


@<TRIPOS>ATOM
      1 O39        -0.1990   -1.2420    0.4690 o         1 NCL     -0.590100
      2 C9          0.7530   -0.4680    0.2690 c         1 NCL      0.668100
      3 C10         1.7110   -0.0680    1.3810 c3        1 NCL     -0.157400
      4 C13         1.2830   -0.7340    2.6910 c3        1 NCL      0.178800
      5 N16         2.1070   -0.3130    3.8170 n3        1 NCL     -0.739100
      6 C18         1.3750   -0.3530    5.0760 c3        1 NCL      0.177300
      7 C27         2.1990    0.0990    6.2900 c3        1 NCL     -0.064700
      8 C20         2.3990    1.5980    6.2910 c3        1 NCL     -0.089600
      9 C30         3.5220   -0.6470    6.3480 c3        1 NCL     -0.074900
     10 C33         4.2630   -0.5780    5.0320 c3        1 NCL     -0.076900
     11 C36         3.3750   -1.0280    3.8750 c3        1 NCL      0.170800
     12 N7          1.0290    0.0910   -0.9750 ns        1 NCL     -0.476100
     13 C6          0.3280   -0.0700   -2.1790 ca        1 NCL      0.096600
     14 C4          0.7250    0.6690   -3.2830 ca        1 NCL     -0.263300
     15 C3          0.0550    0.5410   -4.5500 ca        1 NCL      0.457100
     16 N1          0.4790    1.2840   -5.6030 nb        1 NCL     -0.682000
     17 C40        -0.7800   -0.9860   -2.3010 ca        1 NCL     -0.146000
     18 C42        -1.4310   -1.1230   -3.4890 ca        1 NCL     -0.089000
     19 C44        -1.0490   -0.3790   -4.6450 ca        1 NCL     -0.180300
     20 C45        -1.7040   -0.5050   -5.8740 ca        1 NCL     -0.045000
     21 C2         -1.2790    0.2540   -6.9680 ca        1 NCL     -0.180300
     22 C47        -1.9030    0.1730   -8.2490 ca        1 NCL     -0.089000
     23 C49        -1.4750    0.9200   -9.3030 ca        1 NCL     -0.146000
     24 C87        -0.1670    1.1510   -6.7890 ca        1 NCL      0.457100
     25 C85         0.2660    1.9310   -7.9180 ca        1 NCL     -0.263300
     26 C51        -0.3630    1.8270   -9.1490 ca        1 NCL      0.096600
     27 N52         0.1130    2.6070  -10.2140 ns        1 NCL     -0.476100
     28 C54        -0.4150    2.7370  -11.4940 c         1 NCL      0.668100
     29 O84        -1.4270    2.1240  -11.8780 o         1 NCL     -0.590100
     30 C55         0.3420    3.6880  -12.4090 c3        1 NCL     -0.157400
     31 C58        -0.3540    3.7550  -13.7710 c3        1 NCL      0.178800
     32 N61         0.2690    4.7250  -14.6610 n3        1 NCL     -0.739100
     33 C63        -0.6820    5.2880  -15.6100 c3        1 NCL      0.177300
     34 C66        -0.0560    6.3330  -16.5440 c3        1 NCL     -0.064700
     35 C77        -1.0880    6.8010  -17.5450 c3        1 NCL     -0.089600
     36 C69         1.1610    5.7530  -17.2450 c3        1 NCL     -0.074900
     37 C72         2.1420    5.2080  -16.2310 c3        1 NCL     -0.076900
     38 C75         1.4690    4.2020  -15.3000 c3        1 NCL      0.170800
     39 H10         1.7060    1.0480    1.4980 hc        1 NCL      0.073700
     40 H10A        2.7510   -0.3840    1.1030 hc        1 NCL      0.073700
     41 H13         0.2100   -0.4490    2.8880 h1        1 NCL      0.051700
     42 H13A        1.3050   -1.8530    2.5430 h1        1 NCL      0.051700
     43 H18         0.4860    0.3310    4.9730 h1        1 NCL      0.032450
     44 H18A        0.9870   -1.3930    5.2890 h1        1 NCL      0.032450
     45 H27         1.6000   -0.1740    7.2050 hc        1 NCL      0.053200
     46 H20         1.4120    2.1200    6.3020 hc        1 NCL      0.036200
     47 H20A        2.9750    1.9100    7.1960 hc        1 NCL      0.036200
     48 H20B        2.9600    1.9260    5.3830 hc        1 NCL      0.036200
     49 H30         3.3210   -1.7210    6.6050 hc        1 NCL      0.041200
     50 H30A        4.1600   -0.2190    7.1640 hc        1 NCL      0.041200
     51 H33         5.1650   -1.2420    5.0640 hc        1 NCL      0.046950
     52 H33A        4.6180    0.4710    4.8520 hc        1 NCL      0.046950
     53 H36         3.9170   -0.8360    2.9060 h1        1 NCL      0.027700
     54 H36A        3.2160   -2.1440    3.9590 h1        1 NCL      0.027700
     55 HN7         1.8010    0.7210   -1.0170 hn        1 NCL      0.317500
     56 H4          1.5680    1.3770   -3.2250 ha        1 NCL      0.147000
     57 H40        -1.0990   -1.5760   -1.4260 ha        1 NCL      0.177000
     58 H42        -2.2780   -1.8220   -3.5810 ha        1 NCL      0.137000
     59 H45        -2.5520   -1.2000   -5.9790 ha        1 NCL      0.139000
     60 H47        -2.7520   -0.5190   -8.3680 ha        1 NCL      0.137000
     61 H49        -1.9780    0.8350  -10.2810 ha        1 NCL      0.177000
     62 H85         1.1170    2.6140   -7.7650 ha        1 NCL      0.147000
     63 HN52        0.9110    3.1670  -10.0030 hn        1 NCL      0.317500
     64 H55         1.3960    3.3260  -12.5260 hc        1 NCL      0.073700
     65 H55A        0.3740    4.7090  -11.9440 hc        1 NCL      0.073700
     66 H58        -1.4290    4.0470  -13.5950 h1        1 NCL      0.051700
     67 H58A       -0.3650    2.7160  -14.2140 h1        1 NCL      0.051700
     68 H63        -1.5000    5.7860  -15.0170 h1        1 NCL      0.032450
     69 H63A       -1.1590    4.4840  -16.2440 h1        1 NCL      0.032450
     70 H66         0.2750    7.2140  -15.9250 hc        1 NCL      0.053200
     71 H77        -1.4370    5.9520  -18.1820 hc        1 NCL      0.036200
     72 H77A       -1.9720    7.2340  -17.0190 hc        1 NCL      0.036200
     73 H77B       -0.6500    7.5840  -18.2100 hc        1 NCL      0.036200
     74 H69         0.8390    4.9330  -17.9400 hc        1 NCL      0.041200
     75 H69A        1.6530    6.5460  -17.8650 hc        1 NCL      0.041200
     76 H72         2.5720    6.0510  -15.6300 hc        1 NCL      0.046950
     77 H72A        2.9900    4.6930  -16.7530 hc        1 NCL      0.046950
     78 H75         2.1920    3.9220  -14.4840 h1        1 NCL      0.027700
     79 H75A        1.2450    3.2640  -15.8910 h1        1 NCL      0.027700
@<TRIPOS>BOND
     1    1    2 2   
     2    2    3 1   
     3    2   12 1   
     4    3    4 1   
     5    3   39 1   
     6    3   40 1   
     7    4    5 1   
     8    4   41 1   
     9    4   42 1   
    10    5    6 1   
    11    5   11 1   
    12    6    7 1   
    13    6   43 1   
    14    6   44 1   
    15    7    8 1   
    16    7    9 1   
    17    7   45 1   
    18    8   46 1   
    19    8   47 1   
    20    8   48 1   
    21    9   10 1   
    22    9   49 1   
    23    9   50 1   
    24   10   11 1   
    25   10   51 1   
    26   10   52 1   
    27   11   53 1   
    28   11   54 1   
    29   12   13 1   
    30   12   55 1   
    31   13   14 ar  
    32   13   17 ar  
    33   14   15 ar  
    34   14   56 1   
    35   15   16 ar  
    36   15   19 ar  
    37   16   24 ar  
    38   17   18 ar  
    39   17   57 1   
    40   18   19 ar  
    41   18   58 1   
    42   19   20 ar  
    43   20   21 ar  
    44   20   59 1   
    45   21   22 ar  
    46   21   24 ar  
    47   22   23 ar  
    48   22   60 1   
    49   23   26 ar  
    50   23   61 1   
    51   24   25 ar  
    52   25   26 ar  
    53   25   62 1   
    54   26   27 1   
    55   27   28 1   
    56   27   63 1   
    57   28   29 2   
    58   28   30 1   
    59   30   31 1   
    60   30   64 1   
    61   30   65 1   
    62   31   32 1   
    63   31   66 1   
    64   31   67 1   
    65   32   33 1   
    66   32   38 1   
    67   33   34 1   
    68   33   68 1   
    69   33   69 1   
    70   34   35 1   
    71   34   36 1   
    72   34   70 1   
    73   35   71 1   
    74   35   72 1   
    75   35   73 1   
    76   36   37 1   
    77   36   74 1   
    78   36   75 1   
    79   37   38 1   
    80   37   76 1   
    81   37   77 1   
    82   38   78 1   
    83   38   79 1   
@<TRIPOS>SUBSTRUCTURE
     1 NCL         1 TEMP              0 ****  ****    0 ROOT
