@<TRIPOS>MOLECULE
NCM
   18    19     1     0     0
SMALL
bcc


@<TRIPOS>ATOM
      1 C1          0.0040    0.0180    0.0200 c3        1 NCM     -0.178700
      2 C2          1.5330    0.0130    0.0180 c         1 NCM      0.571100
      3 C3          1.9540   -0.0230    1.4810 c3        1 NCM     -0.187400
      4 C4          0.6020    0.0040    2.2230 c3        1 NCM     -0.076700
      5 C5         -0.0030    1.4060    2.0140 c3        1 NCM     -0.085400
      6 C6         -0.4000    1.4200    0.5240 c3        1 NCM     -0.075400
      7 C7         -0.2820   -0.8500    1.2740 c3        1 NCM     -0.084400
      8 O2          2.2720    0.0350   -0.9600 o         1 NCM     -0.518100
      9 H1         -0.4700   -0.2970   -0.9270 hc        1 NCM      0.091700
     10 H31         2.5980    0.8510    1.7370 hc        1 NCM      0.075700
     11 H32         2.5190   -0.9610    1.6990 hc        1 NCM      0.075700
     12 H4          0.6500   -0.3290    3.2760 hc        1 NCM      0.074700
     13 H51         0.7330    2.2090    2.2500 hc        1 NCM      0.048700
     14 H52        -0.8980    1.5470    2.6670 hc        1 NCM      0.048700
     15 H61         0.1300    2.2240   -0.0380 hc        1 NCM      0.053200
     16 H62        -1.4990    1.5690    0.4020 hc        1 NCM      0.053200
     17 H71         0.0740   -1.8980    1.1700 hc        1 NCM      0.057200
     18 H72        -1.3560   -0.8440    1.5610 hc        1 NCM      0.057200
@<TRIPOS>BOND
     1    1    2 1   
     2    1    6 1   
     3    1    7 1   
     4    1    9 1   
     5    2    3 1   
     6    2    8 2   
     7    3    4 1   
     8    3   10 1   
     9    3   11 1   
    10    4    5 1   
    11    4    7 1   
    12    4   12 1   
    13    5    6 1   
    14    5   13 1   
    15    5   14 1   
    16    6   15 1   
    17    6   16 1   
    18    7   17 1   
    19    7   18 1   
@<TRIPOS>SUBSTRUCTURE
     1 NCM         1 TEMP              0 ****  ****    0 ROOT
