@<TRIPOS>MOLECULE
NCM
   18    19     1     0     0
SMALL
bcc


@<TRIPOS>ATOM
      1 C1         -0.8700   -0.6480   -0.1380 c3        1 NCM     -0.178700
      2 C2          0.0380    0.0420   -1.1570 c         1 NCM      0.571100
      3 C3          1.3070    0.4170   -0.4020 c3        1 NCM     -0.187400
      4 C4          1.0020   -0.0640    1.0310 c3        1 NCM     -0.076700
      5 C5         -0.0910    0.8630    1.5990 c3        1 NCM     -0.085400
      6 C6         -1.3540    0.4750    0.8050 c3        1 NCM     -0.075400
      7 C7          0.1870   -1.3560    0.7520 c3        1 NCM     -0.084400
      8 O2         -0.2040    0.2520   -2.3400 o         1 NCM     -0.518100
      9 H1         -1.6680   -1.2800   -0.5670 hc        1 NCM      0.091700
     10 H31         2.1870   -0.1190   -0.8330 hc        1 NCM      0.075700
     11 H32         1.4960    1.5150   -0.4530 hc        1 NCM      0.075700
     12 H4          1.8940   -0.1790    1.6750 hc        1 NCM      0.074700
     13 H51        -0.2330    0.6770    2.6900 hc        1 NCM      0.048700
     14 H52         0.1700    1.9380    1.4570 hc        1 NCM      0.048700
     15 H61        -2.1530    0.0890    1.4820 hc        1 NCM      0.053200
     16 H62        -1.7650    1.3390    0.2320 hc        1 NCM      0.053200
     17 H71         0.7680   -2.1300    0.2070 hc        1 NCM      0.057200
     18 H72        -0.2560   -1.7950    1.6720 hc        1 NCM      0.057200
@<TRIPOS>BOND
     1    1    2 1   
     2    1    6 1   
     3    1    7 1   
     4    1    9 1   
     5    2    3 1   
     6    2    8 2   
     7    3    4 1   
     8    3   10 1   
     9    3   11 1   
    10    4    5 1   
    11    4    7 1   
    12    4   12 1   
    13    5    6 1   
    14    5   13 1   
    15    5   14 1   
    16    6   15 1   
    17    6   16 1   
    18    7   17 1   
    19    7   18 1   
@<TRIPOS>SUBSTRUCTURE
     1 NCM         1 TEMP              0 ****  ****    0 ROOT
