@<TRIPOS>MOLECULE
NCN
   34    35     1     0     0
SMALL
bcc


@<TRIPOS>ATOM
      1 P          18.3650   80.7720   19.9490 p5        1 NCN      1.313900
      2 O1P        18.5480   81.2530   18.5290 o         1 NCN     -0.915500
      3 O2P        16.9830   80.4450   20.4130 o         1 NCN     -0.915500
      4 O3P        19.5190   79.9920   20.5020 o         1 NCN     -0.915500
      5 O5'        18.6450   82.3510   20.7280 os        1 NCN     -0.554200
      6 C5'        19.8170   82.9120   20.3170 c3        1 NCN      0.225400
      7 C4'        19.6110   83.8420   19.0960 c3        1 NCN      0.003100
      8 O4'        18.5250   84.7830   19.2840 os        1 NCN     -0.373600
      9 C3'        20.8460   84.7130   18.8370 c3        1 NCN      0.090100
     10 O3'        21.0570   85.0120   17.4660 oh        1 NCN     -0.628800
     11 C2'        20.5490   86.0320   19.6020 c3        1 NCN      0.092100
     12 O2'        20.8460   87.2070   18.8910 oh        1 NCN     -0.597800
     13 C1'        19.0040   85.9680   19.8740 c3        1 NCN      0.172800
     14 N1         18.6420   86.0390   21.3160 na        1 NCN     -0.007100
     15 C6         18.0380   84.9960   21.9540 ca        1 NCN     -0.011300
     16 C5         17.6590   85.1170   23.3040 ca        1 NCN     -0.193000
     17 C4         17.8870   86.3050   23.9900 ca        1 NCN     -0.024000
     18 C3         18.5020   87.3770   23.3210 ca        1 NCN     -0.175600
     19 C2         18.8770   87.2140   21.9880 ca        1 NCN     -0.053300
     20 C7         18.7480   88.7130   24.0210 c         1 NCN      0.921200
     21 O7         18.4000   88.7990   25.2280 o         1 NCN     -0.811300
     22 O8         19.2730   89.6330   23.3380 o         1 NCN     -0.811300
     23 H5'1       20.2570   83.5410   21.1510 h1        1 NCN     -0.002800
     24 H5'2       20.5600   82.1200   20.0110 h1        1 NCN     -0.002800
     25 H4'        19.2490   83.1740   18.2450 h1        1 NCN      0.203700
     26 H3'        21.7900   84.2360   19.2080 h1        1 NCN      0.088700
     27 HO'3       20.3230   84.6260   16.9700 ho        1 NCN      0.424000
     28 H2'        21.1460   86.0910   20.5490 h1        1 NCN      0.091700
     29 HO'2       20.7450   87.0190   17.9470 ho        1 NCN      0.420000
     30 H1'        18.4660   86.8290   19.3780 h2        1 NCN      0.089700
     31 H6         17.8710   84.0320   21.3760 h4        1 NCN      0.304000
     32 H5         17.1910   84.2430   23.7830 ha        1 NCN      0.174000
     33 H4         17.6020   86.4420   25.0470 ha        1 NCN      0.173000
     34 H2         19.3770   88.0410   21.4420 h4        1 NCN      0.207000
@<TRIPOS>BOND
     1    1    2 1   
     2    1    3 1   
     3    1    4 1   
     4    1    5 1   
     5    5    6 1   
     6    6    7 1   
     7    6   23 1   
     8    6   24 1   
     9    7    8 1   
    10    7    9 1   
    11    7   25 1   
    12    8   13 1   
    13    9   10 1   
    14    9   11 1   
    15    9   26 1   
    16   10   27 1   
    17   11   12 1   
    18   11   13 1   
    19   11   28 1   
    20   12   29 1   
    21   13   14 1   
    22   13   30 1   
    23   14   15 1   
    24   14   19 2   
    25   15   16 ar  
    26   15   31 1   
    27   16   17 ar  
    28   16   32 1   
    29   17   18 ar  
    30   17   33 1   
    31   18   19 ar  
    32   18   20 1   
    33   19   34 1   
    34   20   21 1   
    35   20   22 1   
@<TRIPOS>SUBSTRUCTURE
     1 NCN         1 TEMP              0 ****  ****    0 ROOT
