@<TRIPOS>MOLECULE
NCN
   34    35     1     0     0
SMALL
bcc


@<TRIPOS>ATOM
      1 P          -1.5570   -1.4440   -2.1730 p5        1 NCN      1.350900
      2 O1P        -1.1050   -0.4100   -3.1760 o         1 NCN     -0.917500
      3 O2P        -2.7280   -1.1980   -1.2890 o         1 NCN     -0.917500
      4 O3P        -1.3820   -2.8400   -2.7520 o         1 NCN     -0.917500
      5 O5'        -0.1640   -1.3480   -1.1440 os        1 NCN     -0.564200
      6 C5'         0.7720   -2.3370   -1.2140 c3        1 NCN      0.229400
      7 C4'         1.9210   -2.0180   -2.2060 c3        1 NCN      0.060100
      8 O4'         2.7400   -3.2090   -2.3510 os        1 NCN     -0.423600
      9 C3'         1.4540   -1.6090   -3.6170 c3        1 NCN      0.073100
     10 O3'         1.7010   -0.2460   -3.8630 oh        1 NCN     -0.655800
     11 C2'         2.2460   -2.4930   -4.5950 c3        1 NCN      0.109100
     12 O2'         3.3870   -1.8910   -5.1690 oh        1 NCN     -0.614800
     13 C1'         2.7300   -3.6720   -3.6890 c3        1 NCN      0.190800
     14 N1          1.8820   -4.8870   -3.8240 na        1 NCN     -0.009100
     15 C6          0.5300   -4.8430   -3.6510 ca        1 NCN     -0.032300
     16 C5         -0.2400   -6.0150   -3.7910 ca        1 NCN     -0.189000
     17 C4          0.3700   -7.2210   -4.1120 ca        1 NCN     -0.028000
     18 C3          1.7640   -7.2570   -4.2930 ca        1 NCN     -0.179600
     19 C2          2.4930   -6.0800   -4.1330 ca        1 NCN     -0.053300
     20 C7          2.4890   -8.5480   -4.6620 c         1 NCN      0.920200
     21 O7          1.7880   -9.5860   -4.7980 o         1 NCN     -0.818300
     22 O8          3.7400   -8.4860   -4.8090 o         1 NCN     -0.818300
     23 H5'1        0.3130   -3.3250   -1.4960 h1        1 NCN      0.001200
     24 H5'2        1.2620   -2.4510   -0.2020 h1        1 NCN      0.001200
     25 H4'         2.6060   -1.2410   -1.7770 h1        1 NCN      0.056700
     26 H3'         0.3340   -1.8160   -3.7180 h1        1 NCN      0.170700
     27 HO'3        0.8350    0.1950   -3.7050 ho        1 NCN      0.495000
     28 H2'         1.6110   -2.8410   -5.4510 h1        1 NCN      0.079700
     29 HO'2        3.5220   -1.0420   -4.7270 ho        1 NCN      0.430000
     30 H1'         3.7920   -3.9700   -3.9290 h2        1 NCN      0.091700
     31 H6         -0.0100   -3.8580   -3.3750 h4        1 NCN      0.331000
     32 H5         -1.3250   -5.9180   -3.6270 ha        1 NCN      0.183000
     33 H4         -0.1980   -8.1590   -4.2320 ha        1 NCN      0.168000
     34 H2          3.5940   -6.1010   -4.2610 h4        1 NCN      0.196000
@<TRIPOS>BOND
     1    1    2 1   
     2    1    3 1   
     3    1    4 1   
     4    1    5 1   
     5    5    6 1   
     6    6    7 1   
     7    6   23 1   
     8    6   24 1   
     9    7    8 1   
    10    7    9 1   
    11    7   25 1   
    12    8   13 1   
    13    9   10 1   
    14    9   11 1   
    15    9   26 1   
    16   10   27 1   
    17   11   12 1   
    18   11   13 1   
    19   11   28 1   
    20   12   29 1   
    21   13   14 1   
    22   13   30 1   
    23   14   15 1   
    24   14   19 2   
    25   15   16 ar  
    26   15   31 1   
    27   16   17 ar  
    28   16   32 1   
    29   17   18 ar  
    30   17   33 1   
    31   18   19 ar  
    32   18   20 1   
    33   19   34 1   
    34   20   21 1   
    35   20   22 1   
@<TRIPOS>SUBSTRUCTURE
     1 NCN         1 TEMP              0 ****  ****    0 ROOT
