@<TRIPOS>MOLECULE
NCQ
   81    85     1     0     0
SMALL
bcc


@<TRIPOS>ATOM
      1 O39        -0.0550   -3.5870    0.4760 o         1 NCQ     -0.395600
      2 C9          0.7730   -2.7190    0.2760 c         1 NCQ      0.566100
      3 C10         1.1590   -1.5260    1.0830 c3        1 NCQ     -0.168400
      4 C13         0.2160   -1.3930    2.3030 c3        1 NCQ      0.195300
      5 N16         0.5490   -0.2040    3.0570 n3        1 NCQ     -0.764600
      6 C36        -0.6190    0.5990    3.3870 c3        1 NCQ      0.183550
      7 C33        -0.3230    1.9170    4.0980 c3        1 NCQ     -0.076900
      8 C30         0.1170    1.7260    5.5320 c3        1 NCQ     -0.081650
      9 C27         1.6120    1.5540    5.6920 c3        1 NCQ     -0.081650
     10 C73         2.2760    0.7560    4.5930 c3        1 NCQ     -0.076900
     11 C11         1.4700   -0.4660    4.1560 c3        1 NCQ      0.183550
     12 N7          1.5740   -2.9020   -1.0310 n4        1 NCQ     -0.572700
     13 C6          0.9320   -2.2210   -2.1600 ca        1 NCQ     -0.013400
     14 C40         1.3020   -0.8590   -2.4310 ca        1 NCQ     -0.139500
     15 C42         0.7330   -0.2040   -3.4830 ca        1 NCQ     -0.049000
     16 C4          0.0130   -2.8880   -2.9360 ca        1 NCQ     -0.117800
     17 C3         -0.6010   -2.2130   -4.0590 ca        1 NCQ      0.423600
     18 N1         -1.4970   -2.8890   -4.8180 nb        1 NCQ     -0.623000
     19 C44        -0.2260   -0.8490   -4.3260 ca        1 NCQ     -0.135300
     20 C45        -0.8170   -0.1990   -5.4180 ca        1 NCQ     -0.026000
     21 C2         -1.7420   -0.8870   -6.2140 ca        1 NCQ     -0.135300
     22 C87        -2.0560   -2.2500   -5.8730 ca        1 NCQ      0.423600
     23 C47        -2.3730   -0.2810   -7.3450 ca        1 NCQ     -0.049000
     24 C49        -3.2610   -0.9730   -8.1130 ca        1 NCQ     -0.139500
     25 C51        -3.5730   -2.3370   -7.7820 ca        1 NCQ     -0.013400
     26 C85        -3.0030   -2.9660   -6.7010 ca        1 NCQ     -0.117800
     27 N52        -4.5080   -3.0550   -8.6540 n4        1 NCQ     -0.572700
     28 C54        -5.9210   -2.4370   -8.6160 c         1 NCQ      0.566100
     29 O84        -6.0840   -1.5150   -9.3930 o         1 NCQ     -0.395600
     30 C55        -6.8610   -3.0790   -7.6510 c3        1 NCQ     -0.168400
     31 C58        -8.2360   -2.3720   -7.7190 c3        1 NCQ      0.195300
     32 N61        -9.1390   -2.9560   -6.7500 n3        1 NCQ     -0.764600
     33 C75        -9.9810   -4.0030   -7.3160 c3        1 NCQ      0.183550
     34 C72       -10.5030   -5.0020   -6.2840 c3        1 NCQ     -0.076900
     35 C69       -11.8420   -4.6160   -5.6970 c3        1 NCQ     -0.081650
     36 C66       -11.9890   -3.1440   -5.3780 c3        1 NCQ     -0.081650
     37 C29       -10.7250   -2.5060   -4.8450 c3        1 NCQ     -0.076900
     38 C31        -9.8280   -1.9540   -5.9490 c3        1 NCQ      0.183550
     39 H10         1.0990   -0.5990    0.4490 hc        1 NCQ      0.111200
     40 H10A        2.2210   -1.6410    1.4380 hc        1 NCQ      0.111200
     41 H13        -0.8410   -1.3470    1.9170 h1        1 NCQ      0.059450
     42 H13A        0.3100   -2.3390    2.9130 h1        1 NCQ      0.059450
     43 H36        -1.1340    0.8420    2.4120 h1        1 NCQ      0.032825
     44 H36A       -1.3470    0.0100    4.0200 h1        1 NCQ      0.032825
     45 H33         0.4430    2.5070    3.5320 hc        1 NCQ      0.053825
     46 H33A       -1.2800    2.5070    4.0840 hc        1 NCQ      0.053825
     47 H30        -0.4130    0.8390    5.9710 hc        1 NCQ      0.051075
     48 H30A       -0.2010    2.6200    6.1330 hc        1 NCQ      0.051075
     49 H27         1.8070    1.0580    6.6810 hc        1 NCQ      0.051075
     50 H27A        2.1000    2.5650    5.7340 hc        1 NCQ      0.051075
     51 H73         3.2700    0.3890    4.9680 hc        1 NCQ      0.053825
     52 H73A        2.4840    1.4220    3.7140 hc        1 NCQ      0.053825
     53 H11         2.2010   -1.2520    3.8050 h1        1 NCQ      0.032825
     54 H11A        0.9260   -0.8870    5.0510 h1        1 NCQ      0.032825
     55 HN7         2.5180   -2.5200   -0.9050 hn        1 NCQ      0.465050
     56 H40         2.0430   -0.3470   -1.7950 ha        1 NCQ      0.174000
     57 H42         1.0070    0.8430   -3.7060 ha        1 NCQ      0.179500
     58 H4         -0.2840   -3.9350   -2.7360 ha        1 NCQ      0.182500
     59 H45        -0.5520    0.8470   -5.6520 ha        1 NCQ      0.176000
     60 H47        -2.1220    0.7680   -7.5880 ha        1 NCQ      0.179500
     61 H49        -3.7460   -0.4940   -8.9830 ha        1 NCQ      0.174000
     62 H85        -3.2310   -4.0140   -6.4320 ha        1 NCQ      0.182500
     63 HN52       -4.1460   -2.9970   -9.6170 hn        1 NCQ      0.465050
     64 H55        -6.4440   -3.0060   -6.6090 hc        1 NCQ      0.111200
     65 H55A       -6.9820   -4.1680   -7.9050 hc        1 NCQ      0.111200
     66 H58        -8.0710   -1.2770   -7.5120 h1        1 NCQ      0.059450
     67 H58A       -8.6150   -2.4610   -8.7780 h1        1 NCQ      0.059450
     68 H75       -10.8550   -3.5630   -7.8780 h1        1 NCQ      0.032825
     69 H75A       -9.3540   -4.5740   -8.0610 h1        1 NCQ      0.032825
     70 H72        -9.7540   -5.1420   -5.4610 hc        1 NCQ      0.053825
     71 H72A      -10.6120   -5.9940   -6.8000 hc        1 NCQ      0.053825
     72 H69       -11.9990   -5.2160   -4.7600 hc        1 NCQ      0.051075
     73 H69A      -12.6590   -4.9060   -6.4100 hc        1 NCQ      0.051075
     74 H66       -12.8050   -3.0280   -4.6140 hc        1 NCQ      0.051075
     75 H66A      -12.3280   -2.5920   -6.2950 hc        1 NCQ      0.051075
     76 H29       -11.0020   -1.6330   -4.1940 hc        1 NCQ      0.053825
     77 H29A      -10.1620   -3.2350   -4.2070 hc        1 NCQ      0.053825
     78 H31       -10.4500   -1.2730   -6.6040 h1        1 NCQ      0.032825
     79 H31A       -9.0300   -1.3220   -5.4610 h1        1 NCQ      0.032825
     80 H721        1.6440   -3.9070   -1.2420 hn        1 NCQ      0.465050
     81 H522       -4.5600   -4.0400   -8.3740 hn        1 NCQ      0.465050
@<TRIPOS>BOND
     1    1    2 2   
     2    2    3 1   
     3    2   12 1   
     4    3    4 1   
     5    3   39 1   
     6    3   40 1   
     7    4    5 1   
     8    4   41 1   
     9    4   42 1   
    10    5    6 1   
    11    5   11 1   
    12    6    7 1   
    13    6   43 1   
    14    6   44 1   
    15    7    8 1   
    16    7   45 1   
    17    7   46 1   
    18    8    9 1   
    19    8   47 1   
    20    8   48 1   
    21    9   10 1   
    22    9   49 1   
    23    9   50 1   
    24   10   11 1   
    25   10   51 1   
    26   10   52 1   
    27   11   53 1   
    28   11   54 1   
    29   12   13 1   
    30   12   55 1   
    31   12   80 1   
    32   13   14 ar  
    33   13   16 ar  
    34   14   15 ar  
    35   14   56 1   
    36   15   19 ar  
    37   15   57 1   
    38   16   17 ar  
    39   16   58 1   
    40   17   18 ar  
    41   17   19 ar  
    42   18   22 ar  
    43   19   20 ar  
    44   20   21 ar  
    45   20   59 1   
    46   21   22 ar  
    47   21   23 ar  
    48   22   26 ar  
    49   23   24 ar  
    50   23   60 1   
    51   24   25 ar  
    52   24   61 1   
    53   25   26 ar  
    54   25   27 1   
    55   26   62 1   
    56   27   28 1   
    57   27   63 1   
    58   27   81 1   
    59   28   29 2   
    60   28   30 1   
    61   30   31 1   
    62   30   64 1   
    63   30   65 1   
    64   31   32 1   
    65   31   66 1   
    66   31   67 1   
    67   32   33 1   
    68   32   38 1   
    69   33   34 1   
    70   33   68 1   
    71   33   69 1   
    72   34   35 1   
    73   34   70 1   
    74   34   71 1   
    75   35   36 1   
    76   35   72 1   
    77   35   73 1   
    78   36   37 1   
    79   36   74 1   
    80   36   75 1   
    81   37   38 1   
    82   37   76 1   
    83   37   77 1   
    84   38   78 1   
    85   38   79 1   
@<TRIPOS>SUBSTRUCTURE
     1 NCQ         1 TEMP              0 ****  ****    0 ROOT
