@<TRIPOS>MOLECULE
NCQ
   79    83     1     0     0
SMALL
bcc


@<TRIPOS>ATOM
      1 O39         4.7960    0.6880    0.0860 o         1 NCQ     -0.587100
      2 C9          5.5830   -0.2720    0.0130 c         1 NCQ      0.665100
      3 C10         7.0910   -0.0800    0.0390 c3        1 NCQ     -0.157900
      4 C13         7.4180    1.4090    0.1900 c3        1 NCQ      0.183300
      5 N16         8.8520    1.6460    0.2970 n3        1 NCQ     -0.752600
      6 C36         9.4860    1.7120   -1.0100 c3        1 NCQ      0.182300
      7 C33        11.0050    1.8540   -0.9940 c3        1 NCQ     -0.076900
      8 C30        11.4580    3.2380   -0.5880 c3        1 NCQ     -0.076400
      9 C27        11.6250    3.4130    0.9060 c3        1 NCQ     -0.076400
     10 C73        10.6050    2.6770    1.7460 c3        1 NCQ     -0.076900
     11 C11         9.1830    2.7460    1.1900 c3        1 NCQ      0.182300
     12 N7          5.1570   -1.5910   -0.1000 n         1 NCQ     -0.475600
     13 C6          3.8380   -2.0680   -0.1450 ca        1 NCQ      0.085600
     14 C40         3.6700   -3.5050   -0.2390 ca        1 NCQ     -0.155000
     15 C42         2.4290   -4.0560   -0.2910 ca        1 NCQ     -0.087000
     16 C4          2.7240   -1.2540   -0.1080 ca        1 NCQ     -0.239800
     17 C3          1.3950   -1.8150   -0.1620 ca        1 NCQ      0.454100
     18 N1          0.3270   -0.9820   -0.1230 nb        1 NCQ     -0.670000
     19 C44         1.2540   -3.2460   -0.2560 ca        1 NCQ     -0.181800
     20 C45        -0.0330   -3.7880   -0.3080 ca        1 NCQ     -0.047000
     21 C2         -1.1440   -2.9400   -0.2690 ca        1 NCQ     -0.181800
     22 C87        -0.9180   -1.5210   -0.1740 ca        1 NCQ      0.454100
     23 C47        -2.4850   -3.4250   -0.3180 ca        1 NCQ     -0.087000
     24 C49        -3.5540   -2.5820   -0.2790 ca        1 NCQ     -0.155000
     25 C51        -3.3540   -1.1570   -0.1840 ca        1 NCQ      0.085600
     26 C85        -2.0640   -0.6520   -0.1330 ca        1 NCQ     -0.239800
     27 N52        -4.4290   -0.2560   -0.1460 n         1 NCQ     -0.475600
     28 C54        -5.7920   -0.5330   -0.1320 c         1 NCQ      0.665100
     29 O84        -6.2500   -1.6890   -0.1640 o         1 NCQ     -0.587100
     30 C55        -6.6970    0.6870   -0.0770 c3        1 NCQ     -0.157900
     31 C58        -8.1630    0.2420   -0.0760 c3        1 NCQ      0.183300
     32 N61        -9.0760    1.3690    0.0590 n3        1 NCQ     -0.752600
     33 C75       -10.2650    1.0510    0.8350 c3        1 NCQ      0.182300
     34 C72       -10.9410    2.2770    1.4490 c3        1 NCQ     -0.076900
     35 C69       -12.0120    2.8860    0.5720 c3        1 NCQ     -0.076400
     36 C66       -11.6600    2.9560   -0.8980 c3        1 NCQ     -0.076400
     37 C29       -10.2030    3.2630   -1.1640 c3        1 NCQ     -0.076900
     38 C31        -9.3380    2.0070   -1.2220 c3        1 NCQ      0.182300
     39 H10         7.5290   -0.6570    0.8960 hc        1 NCQ      0.072450
     40 H10A        7.5320   -0.4830   -0.9100 hc        1 NCQ      0.072450
     41 H13         6.9620    1.9590   -0.6860 h1        1 NCQ      0.051950
     42 H13A        6.8920    1.7800    1.1150 h1        1 NCQ      0.051950
     43 H36         9.2340    0.7480   -1.5400 h1        1 NCQ      0.028825
     44 H36A        9.0590    2.5560   -1.6310 h1        1 NCQ      0.028825
     45 H33        11.4650    1.0830   -0.3230 hc        1 NCQ      0.047575
     46 H33A       11.3610    1.6450   -2.0390 hc        1 NCQ      0.047575
     47 H30        12.4410    3.4620   -1.0820 hc        1 NCQ      0.037200
     48 H30A       10.7240    3.9970   -0.9720 hc        1 NCQ      0.037200
     49 H27        12.6480    3.0610    1.2070 hc        1 NCQ      0.037200
     50 H27A       11.5760    4.5110    1.1410 hc        1 NCQ      0.037200
     51 H73        10.9200    1.6080    1.8720 hc        1 NCQ      0.047575
     52 H73A       10.5920    3.1360    2.7720 hc        1 NCQ      0.047575
     53 H11         9.0350    3.7470    0.6890 h1        1 NCQ      0.028825
     54 H11A        8.4770    2.7040    2.0700 h1        1 NCQ      0.028825
     55 HN7         5.8650   -2.2900   -0.1410 hn        1 NCQ      0.317000
     56 H40         4.5610   -4.1520   -0.2680 ha        1 NCQ      0.153500
     57 H42         2.3020   -5.1480   -0.3630 ha        1 NCQ      0.135000
     58 H4          2.8120   -0.1550   -0.0360 ha        1 NCQ      0.170500
     59 H45        -0.1720   -4.8780   -0.3800 ha        1 NCQ      0.137000
     60 H47        -2.6390   -4.5130   -0.3910 ha        1 NCQ      0.135000
     61 H49        -4.5780   -2.9880   -0.3190 ha        1 NCQ      0.153500
     62 H85        -1.8740    0.4320   -0.0600 ha        1 NCQ      0.170500
     63 HN52       -4.1710    0.7070   -0.1000 hn        1 NCQ      0.317000
     64 H55        -6.4740    1.2760    0.8520 hc        1 NCQ      0.072450
     65 H55A       -6.4880    1.3440   -0.9620 hc        1 NCQ      0.072450
     66 H58        -8.3520   -0.3460   -1.0220 h1        1 NCQ      0.051950
     67 H58A       -8.2990   -0.4730    0.7840 h1        1 NCQ      0.051950
     68 H75       -11.0240    0.4850    0.2190 h1        1 NCQ      0.028825
     69 H75A       -9.9550    0.3780    1.6860 h1        1 NCQ      0.028825
     70 H72       -11.4150    1.9540    2.4160 hc        1 NCQ      0.047575
     71 H72A      -10.1740    3.0540    1.7060 hc        1 NCQ      0.047575
     72 H69       -12.9610    2.2960    0.6800 hc        1 NCQ      0.037200
     73 H69A      -12.2270    3.9220    0.9500 hc        1 NCQ      0.037200
     74 H66       -11.9310    1.9850   -1.3930 hc        1 NCQ      0.037200
     75 H66A      -12.2940    3.7500   -1.3760 hc        1 NCQ      0.037200
     76 H29       -10.1110    3.7660   -2.1640 hc        1 NCQ      0.047575
     77 H29A       -9.8090    3.9750   -0.3930 hc        1 NCQ      0.047575
     78 H31        -8.3350    2.2970   -1.6490 h1        1 NCQ      0.028825
     79 H31A       -9.8150    1.2830   -1.9500 h1        1 NCQ      0.028825
@<TRIPOS>BOND
     1    1    2 2   
     2    2    3 1   
     3    2   12 1   
     4    3    4 1   
     5    3   39 1   
     6    3   40 1   
     7    4    5 1   
     8    4   41 1   
     9    4   42 1   
    10    5    6 1   
    11    5   11 1   
    12    6    7 1   
    13    6   43 1   
    14    6   44 1   
    15    7    8 1   
    16    7   45 1   
    17    7   46 1   
    18    8    9 1   
    19    8   47 1   
    20    8   48 1   
    21    9   10 1   
    22    9   49 1   
    23    9   50 1   
    24   10   11 1   
    25   10   51 1   
    26   10   52 1   
    27   11   53 1   
    28   11   54 1   
    29   12   13 1   
    30   12   55 1   
    31   13   14 ar  
    32   13   16 ar  
    33   14   15 ar  
    34   14   56 1   
    35   15   19 ar  
    36   15   57 1   
    37   16   17 ar  
    38   16   58 1   
    39   17   18 ar  
    40   17   19 ar  
    41   18   22 ar  
    42   19   20 ar  
    43   20   21 ar  
    44   20   59 1   
    45   21   22 ar  
    46   21   23 ar  
    47   22   26 ar  
    48   23   24 ar  
    49   23   60 1   
    50   24   25 ar  
    51   24   61 1   
    52   25   26 ar  
    53   25   27 1   
    54   26   62 1   
    55   27   28 1   
    56   27   63 1   
    57   28   29 2   
    58   28   30 1   
    59   30   31 1   
    60   30   64 1   
    61   30   65 1   
    62   31   32 1   
    63   31   66 1   
    64   31   67 1   
    65   32   33 1   
    66   32   38 1   
    67   33   34 1   
    68   33   68 1   
    69   33   69 1   
    70   34   35 1   
    71   34   70 1   
    72   34   71 1   
    73   35   36 1   
    74   35   72 1   
    75   35   73 1   
    76   36   37 1   
    77   36   74 1   
    78   36   75 1   
    79   37   38 1   
    80   37   76 1   
    81   37   77 1   
    82   38   78 1   
    83   38   79 1   
@<TRIPOS>SUBSTRUCTURE
     1 NCQ         1 TEMP              0 ****  ****    0 ROOT
