@<TRIPOS>MOLECULE
NCQ
   79    83     1     0     0
SMALL
bcc


@<TRIPOS>ATOM
      1 O39        -0.0750   -0.5600    0.6380 o         1 NCQ     -0.587100
      2 C9          1.0560   -0.0870    0.4360 c         1 NCQ      0.665100
      3 C10         2.0090    0.2390    1.5760 c3        1 NCQ     -0.157900
      4 C13         1.3560   -0.1290    2.9120 c3        1 NCQ      0.183300
      5 N16         2.2550    0.0910    4.0380 n3        1 NCQ     -0.752600
      6 C36         2.2250    1.4740    4.4870 c3        1 NCQ      0.182300
      7 C33         3.2130    1.8240    5.5960 c3        1 NCQ     -0.076900
      8 C30         2.8000    1.2690    6.9410 c3        1 NCQ     -0.076400
      9 C27         3.3060   -0.1330    7.2050 c3        1 NCQ     -0.076400
     10 C73         3.3290   -1.0350    5.9920 c3        1 NCQ     -0.076900
     11 C11         2.0970   -0.8950    5.0960 c3        1 NCQ      0.182300
     12 N7          1.5440    0.1860   -0.8380 ns        1 NCQ     -0.475600
     13 C6          0.8970   -0.0130   -2.0670 ca        1 NCQ      0.085600
     14 C40         1.6470    0.3330   -3.2590 ca        1 NCQ     -0.155000
     15 C42         1.0990    0.1770   -4.4930 ca        1 NCQ     -0.087000
     16 C4         -0.3860   -0.5050   -2.1910 ca        1 NCQ     -0.240300
     17 C3         -0.9900   -0.6800   -3.4900 ca        1 NCQ      0.454100
     18 N1         -2.2520   -1.1670   -3.5690 nb        1 NCQ     -0.670000
     19 C44        -0.2250   -0.3290   -4.6590 ca        1 NCQ     -0.181800
     20 C45        -0.8110   -0.4990   -5.9160 ca        1 NCQ     -0.047000
     21 C2         -2.1130   -1.0000   -6.0120 ca        1 NCQ     -0.181800
     22 C87        -2.8100   -1.3270   -4.7960 ca        1 NCQ      0.454100
     23 C47        -2.7710   -1.1980   -7.2620 ca        1 NCQ     -0.087000
     24 C49        -4.0400   -1.6870   -7.3340 ca        1 NCQ     -0.155000
     25 C51        -4.7600   -2.0230   -6.1300 ca        1 NCQ      0.085600
     26 C85        -4.1490   -1.8430   -4.8980 ca        1 NCQ     -0.240300
     27 N52        -6.0680   -2.5300   -6.1620 ns        1 NCQ     -0.475600
     28 C54        -6.8760   -2.7750   -7.2670 c         1 NCQ      0.665100
     29 O84        -6.5100   -2.5620   -8.4370 o         1 NCQ     -0.587100
     30 C55        -8.2560   -3.3280   -6.9470 c3        1 NCQ     -0.157900
     31 C58        -9.0400   -3.5410   -8.2460 c3        1 NCQ      0.183300
     32 N61       -10.3420   -4.1490   -8.0040 n3        1 NCQ     -0.752600
     33 C75       -10.7500   -5.0620   -9.0620 c3        1 NCQ      0.182300
     34 C72       -11.7840   -6.0950   -8.6130 c3        1 NCQ     -0.076900
     35 C69       -13.2150   -5.6530   -8.8180 c3        1 NCQ     -0.076400
     36 C66       -13.4870   -4.2070   -8.4660 c3        1 NCQ     -0.076400
     37 C29       -12.7110   -3.7140   -7.2650 c3        1 NCQ     -0.076900
     38 C31       -11.3400   -3.1570   -7.6380 c3        1 NCQ      0.182300
     39 H10         2.2560    1.3330    1.5500 hc        1 NCQ      0.072450
     40 H10A        2.9630   -0.3360    1.4440 hc        1 NCQ      0.072450
     41 H13         1.0620   -1.2160    2.8570 h1        1 NCQ      0.051700
     42 H13A        0.3990    0.4630    3.0110 h1        1 NCQ      0.051700
     43 H36         2.4750    2.1110    3.5890 h1        1 NCQ      0.028825
     44 H36A        1.1890    1.7720    4.8300 h1        1 NCQ      0.028825
     45 H33         4.2430    1.4720    5.3310 hc        1 NCQ      0.047575
     46 H33A        3.2470    2.9450    5.6590 hc        1 NCQ      0.047575
     47 H30         3.1890    1.9430    7.7510 hc        1 NCQ      0.037325
     48 H30A        1.6800    1.2820    7.0210 hc        1 NCQ      0.037325
     49 H27         4.3490   -0.0770    7.6200 hc        1 NCQ      0.037325
     50 H27A        2.6630   -0.5970    8.0010 hc        1 NCQ      0.037325
     51 H73         4.2620   -0.8480    5.3980 hc        1 NCQ      0.047575
     52 H73A        3.3740   -2.1010    6.3420 hc        1 NCQ      0.047575
     53 H11         1.9190   -1.8990    4.6120 h1        1 NCQ      0.028825
     54 H11A        1.1990   -0.6700    5.7430 h1        1 NCQ      0.028825
     55 HN7         2.4680    0.5540   -0.8950 hn        1 NCQ      0.317000
     56 H40         2.6710    0.7260   -3.1570 ha        1 NCQ      0.154000
     57 H42         1.6700    0.4410   -5.3970 ha        1 NCQ      0.135000
     58 H4         -0.9870   -0.7810   -1.3060 ha        1 NCQ      0.170500
     59 H45        -0.2510   -0.2390   -6.8280 ha        1 NCQ      0.137000
     60 H47        -2.2220   -0.9430   -8.1820 ha        1 NCQ      0.135000
     61 H49        -4.5220   -1.8290   -8.3150 ha        1 NCQ      0.154000
     62 H85        -4.6700   -2.0890   -3.9580 ha        1 NCQ      0.170500
     63 HN52       -6.4620   -2.7390   -5.2690 hn        1 NCQ      0.317000
     64 H55        -8.1490   -4.3010   -6.3990 hc        1 NCQ      0.072450
     65 H55A       -8.7970   -2.6110   -6.2760 hc        1 NCQ      0.072450
     66 H58        -9.1280   -2.5440   -8.7700 h1        1 NCQ      0.051700
     67 H58A       -8.4190   -4.2050   -8.9120 h1        1 NCQ      0.051700
     68 H75       -11.1540   -4.5050   -9.9580 h1        1 NCQ      0.028825
     69 H75A       -9.8360   -5.6290   -9.4030 h1        1 NCQ      0.028825
     70 H72       -11.6210   -6.3630   -7.5360 hc        1 NCQ      0.047575
     71 H72A      -11.6110   -7.0300   -9.2120 hc        1 NCQ      0.047575
     72 H69       -13.5040   -5.8160   -9.8910 hc        1 NCQ      0.037325
     73 H69A      -13.8790   -6.3150   -8.1990 hc        1 NCQ      0.037325
     74 H66       -14.5860   -4.0920   -8.2640 hc        1 NCQ      0.037325
     75 H66A      -13.2530   -3.5570   -9.3510 hc        1 NCQ      0.037325
     76 H29       -13.2800   -2.8760   -6.7800 hc        1 NCQ      0.047575
     77 H29A      -12.6090   -4.5330   -6.5060 hc        1 NCQ      0.047575
     78 H31       -11.4810   -2.3940   -8.4620 h1        1 NCQ      0.028825
     79 H31A      -10.9350   -2.6070   -6.7400 h1        1 NCQ      0.028825
@<TRIPOS>BOND
     1    1    2 2   
     2    2    3 1   
     3    2   12 1   
     4    3    4 1   
     5    3   39 1   
     6    3   40 1   
     7    4    5 1   
     8    4   41 1   
     9    4   42 1   
    10    5    6 1   
    11    5   11 1   
    12    6    7 1   
    13    6   43 1   
    14    6   44 1   
    15    7    8 1   
    16    7   45 1   
    17    7   46 1   
    18    8    9 1   
    19    8   47 1   
    20    8   48 1   
    21    9   10 1   
    22    9   49 1   
    23    9   50 1   
    24   10   11 1   
    25   10   51 1   
    26   10   52 1   
    27   11   53 1   
    28   11   54 1   
    29   12   13 1   
    30   12   55 1   
    31   13   14 ar  
    32   13   16 ar  
    33   14   15 ar  
    34   14   56 1   
    35   15   19 ar  
    36   15   57 1   
    37   16   17 ar  
    38   16   58 1   
    39   17   18 ar  
    40   17   19 ar  
    41   18   22 ar  
    42   19   20 ar  
    43   20   21 ar  
    44   20   59 1   
    45   21   22 ar  
    46   21   23 ar  
    47   22   26 ar  
    48   23   24 ar  
    49   23   60 1   
    50   24   25 ar  
    51   24   61 1   
    52   25   26 ar  
    53   25   27 1   
    54   26   62 1   
    55   27   28 1   
    56   27   63 1   
    57   28   29 2   
    58   28   30 1   
    59   30   31 1   
    60   30   64 1   
    61   30   65 1   
    62   31   32 1   
    63   31   66 1   
    64   31   67 1   
    65   32   33 1   
    66   32   38 1   
    67   33   34 1   
    68   33   68 1   
    69   33   69 1   
    70   34   35 1   
    71   34   70 1   
    72   34   71 1   
    73   35   36 1   
    74   35   72 1   
    75   35   73 1   
    76   36   37 1   
    77   36   74 1   
    78   36   75 1   
    79   37   38 1   
    80   37   76 1   
    81   37   77 1   
    82   38   78 1   
    83   38   79 1   
@<TRIPOS>SUBSTRUCTURE
     1 NCQ         1 TEMP              0 ****  ****    0 ROOT
