@<TRIPOS>MOLECULE
NCQ
   79    83     1     0     0
SMALL
bcc


@<TRIPOS>ATOM
      1 O39        -0.0710   -0.5660    0.6350 o         1 NCQ     -0.587100
      2 C9          1.0620   -0.0980    0.4320 c         1 NCQ      0.665100
      3 C10         2.0110    0.2390    1.5720 c3        1 NCQ     -0.157900
      4 C13         1.3520   -0.1110    2.9100 c3        1 NCQ      0.183300
      5 N16         2.2460    0.1220    4.0370 n3        1 NCQ     -0.752600
      6 C36         2.2180    1.5110    4.4680 c3        1 NCQ      0.182300
      7 C33         3.2020    1.8720    5.5770 c3        1 NCQ     -0.076900
      8 C30         2.7810    1.3350    6.9270 c3        1 NCQ     -0.076400
      9 C27         3.2820   -0.0650    7.2110 c3        1 NCQ     -0.076400
     10 C73         3.3080   -0.9820    6.0090 c3        1 NCQ     -0.076900
     11 C11         2.0810   -0.8500    5.1070 c3        1 NCQ      0.182300
     12 N7          1.5560    0.1570   -0.8430 n         1 NCQ     -0.475600
     13 C6          0.9130   -0.0540   -2.0720 ca        1 NCQ      0.085600
     14 C40         1.6690    0.2730   -3.2650 ca        1 NCQ     -0.155000
     15 C42         1.1260    0.1040   -4.4990 ca        1 NCQ     -0.087000
     16 C4         -0.3710   -0.5440   -2.1950 ca        1 NCQ     -0.239800
     17 C3         -0.9710   -0.7330   -3.4940 ca        1 NCQ      0.454100
     18 N1         -2.2350   -1.2160   -3.5720 nb        1 NCQ     -0.670000
     19 C44        -0.2000   -0.4000   -4.6640 ca        1 NCQ     -0.181800
     20 C45        -0.7810   -0.5820   -5.9220 ca        1 NCQ     -0.047000
     21 C2         -2.0850   -1.0800   -6.0170 ca        1 NCQ     -0.181800
     22 C87        -2.7890   -1.3890   -4.7990 ca        1 NCQ      0.454100
     23 C47        -2.7400   -1.2910   -7.2660 ca        1 NCQ     -0.087000
     24 C49        -4.0100   -1.7760   -7.3370 ca        1 NCQ     -0.155000
     25 C51        -4.7370   -2.0920   -6.1320 ca        1 NCQ      0.085600
     26 C85        -4.1300   -1.8990   -4.9000 ca        1 NCQ     -0.239800
     27 N52        -6.0450   -2.5980   -6.1630 n         1 NCQ     -0.475600
     28 C54        -6.8670   -2.8060   -7.2660 c         1 NCQ      0.665100
     29 O84        -6.5110   -2.5640   -8.4330 o         1 NCQ     -0.587100
     30 C55        -8.2460   -3.3590   -6.9460 c3        1 NCQ     -0.157900
     31 C58        -9.0470   -3.5270   -8.2410 c3        1 NCQ      0.183300
     32 N61       -10.3500   -4.1350   -8.0030 n3        1 NCQ     -0.752600
     33 C75       -10.7770   -5.0110   -9.0840 c3        1 NCQ      0.182300
     34 C72       -11.8130   -6.0510   -8.6570 c3        1 NCQ     -0.076900
     35 C69       -13.2440   -5.5930   -8.8290 c3        1 NCQ     -0.076400
     36 C66       -13.5010   -4.1570   -8.4270 c3        1 NCQ     -0.076400
     37 C29       -12.7070   -3.7090   -7.2200 c3        1 NCQ     -0.076900
     38 C31       -11.3370   -3.1490   -7.5920 c3        1 NCQ      0.182300
     39 H10         2.9640   -0.3400    1.4510 hc        1 NCQ      0.072700
     40 H10A        2.2610    1.3320    1.5330 hc        1 NCQ      0.072700
     41 H13         1.0540   -1.1970    2.8680 h1        1 NCQ      0.051700
     42 H13A        0.3960    0.4850    2.9970 h1        1 NCQ      0.051700
     43 H36         2.4740    2.1350    3.5620 h1        1 NCQ      0.028825
     44 H36A        1.1810    1.8160    4.8020 h1        1 NCQ      0.028825
     45 H33         3.2380    2.9940    5.6260 hc        1 NCQ      0.047575
     46 H33A        4.2320    1.5140    5.3210 hc        1 NCQ      0.047575
     47 H30         1.6610    1.3530    7.0010 hc        1 NCQ      0.037325
     48 H30A        3.1680    2.0190    7.7300 hc        1 NCQ      0.037325
     49 H27         2.6340   -0.5160    8.0090 hc        1 NCQ      0.037325
     50 H27A        4.3220   -0.0060    7.6300 hc        1 NCQ      0.037325
     51 H73         3.3480   -2.0440    6.3740 hc        1 NCQ      0.047575
     52 H73A        4.2440   -0.8050    5.4180 hc        1 NCQ      0.047575
     53 H11         1.9020   -1.8600    4.6350 h1        1 NCQ      0.028825
     54 H11A        1.1800   -0.6150    5.7460 h1        1 NCQ      0.028825
     55 HN7         2.4810    0.5220   -0.9020 hn        1 NCQ      0.317000
     56 H40         2.6940    0.6630   -3.1640 ha        1 NCQ      0.153500
     57 H42         1.7010    0.3530   -5.4050 ha        1 NCQ      0.135000
     58 H4         -0.9770   -0.8050   -1.3090 ha        1 NCQ      0.170500
     59 H45        -0.2160   -0.3370   -6.8340 ha        1 NCQ      0.137000
     60 H47        -2.1860   -1.0500   -8.1880 ha        1 NCQ      0.135000
     61 H49        -4.4890   -1.9280   -8.3190 ha        1 NCQ      0.153500
     62 H85        -4.6550   -2.1310   -3.9590 ha        1 NCQ      0.170500
     63 HN52       -6.4340   -2.8170   -5.2710 hn        1 NCQ      0.317000
     64 H55        -8.7750   -2.6590   -6.2470 hc        1 NCQ      0.072700
     65 H55A       -8.1400   -4.3490   -6.4290 hc        1 NCQ      0.072700
     66 H58        -9.1350   -2.5150   -8.7340 h1        1 NCQ      0.051700
     67 H58A       -8.4380   -4.1750   -8.9350 h1        1 NCQ      0.051700
     68 H75        -9.8720   -5.5720   -9.4550 h1        1 NCQ      0.028825
     69 H75A      -11.1880   -4.4220   -9.9560 h1        1 NCQ      0.028825
     70 H72       -11.6540   -6.9670   -9.2870 hc        1 NCQ      0.047575
     71 H72A      -11.6390   -6.3550   -7.5910 hc        1 NCQ      0.047575
     72 H69       -13.9040   -6.2710   -8.2230 hc        1 NCQ      0.037325
     73 H69A      -13.5470   -5.7190   -9.9030 hc        1 NCQ      0.037325
     74 H66       -14.5970   -4.0430   -8.2070 hc        1 NCQ      0.037325
     75 H66A      -13.2740   -3.4800   -9.2940 hc        1 NCQ      0.037325
     76 H29       -13.2650   -2.8840   -6.7020 hc        1 NCQ      0.047575
     77 H29A      -12.6010   -4.5530   -6.4900 hc        1 NCQ      0.047575
     78 H31       -11.4830   -2.3580   -8.3890 h1        1 NCQ      0.028825
     79 H31A      -10.9170   -2.6310   -6.6820 h1        1 NCQ      0.028825
@<TRIPOS>BOND
     1    1    2 2   
     2    2    3 1   
     3    2   12 1   
     4    3    4 1   
     5    3   39 1   
     6    3   40 1   
     7    4    5 1   
     8    4   41 1   
     9    4   42 1   
    10    5    6 1   
    11    5   11 1   
    12    6    7 1   
    13    6   43 1   
    14    6   44 1   
    15    7    8 1   
    16    7   45 1   
    17    7   46 1   
    18    8    9 1   
    19    8   47 1   
    20    8   48 1   
    21    9   10 1   
    22    9   49 1   
    23    9   50 1   
    24   10   11 1   
    25   10   51 1   
    26   10   52 1   
    27   11   53 1   
    28   11   54 1   
    29   12   13 1   
    30   12   55 1   
    31   13   14 ar  
    32   13   16 ar  
    33   14   15 ar  
    34   14   56 1   
    35   15   19 ar  
    36   15   57 1   
    37   16   17 ar  
    38   16   58 1   
    39   17   18 ar  
    40   17   19 ar  
    41   18   22 ar  
    42   19   20 ar  
    43   20   21 ar  
    44   20   59 1   
    45   21   22 ar  
    46   21   23 ar  
    47   22   26 ar  
    48   23   24 ar  
    49   23   60 1   
    50   24   25 ar  
    51   24   61 1   
    52   25   26 ar  
    53   25   27 1   
    54   26   62 1   
    55   27   28 1   
    56   27   63 1   
    57   28   29 2   
    58   28   30 1   
    59   30   31 1   
    60   30   64 1   
    61   30   65 1   
    62   31   32 1   
    63   31   66 1   
    64   31   67 1   
    65   32   33 1   
    66   32   38 1   
    67   33   34 1   
    68   33   68 1   
    69   33   69 1   
    70   34   35 1   
    71   34   70 1   
    72   34   71 1   
    73   35   36 1   
    74   35   72 1   
    75   35   73 1   
    76   36   37 1   
    77   36   74 1   
    78   36   75 1   
    79   37   38 1   
    80   37   76 1   
    81   37   77 1   
    82   38   78 1   
    83   38   79 1   
@<TRIPOS>SUBSTRUCTURE
     1 NCQ         1 TEMP              0 ****  ****    0 ROOT
