@<TRIPOS>MOLECULE
NCR
   18    18     1     0     0
SMALL
bcc


@<TRIPOS>ATOM
      1 C1         -0.0200    0.0060   -0.0170 ca        1 NCR     -0.120300
      2 C2          1.3720    0.0580   -0.0080 ca        1 NCR     -0.038000
      3 C3          2.0780    0.0920    1.2090 ca        1 NCR     -0.212200
      4 C4          1.3650    0.0720    2.4300 ca        1 NCR      0.188100
      5 C5         -0.0410    0.0200    2.4090 ca        1 NCR     -0.227000
      6 C6         -0.7190   -0.0120    1.2000 ca        1 NCR     -0.050000
      7 C7         -0.7630   -0.0410   -1.2970 c3        1 NCR     -0.051800
      8 N3          3.5580    0.1470    1.1830 no        1 NCR      0.324200
      9 O1N         4.1700    0.1750    2.2130 o         1 NCR     -0.203500
     10 O2N         4.1110    0.1630    0.1120 o         1 NCR     -0.203500
     11 O4          2.0770    0.1060    3.5960 oh        1 NCR     -0.450100
     12 H2          1.9340    0.0740   -0.9590 ha        1 NCR      0.174000
     13 H5         -0.5940    0.0060    3.3600 ha        1 NCR      0.147000
     14 H6         -1.8200   -0.0520    1.1920 ha        1 NCR      0.145000
     15 H71        -1.6370    0.6560   -1.2700 hc        1 NCR      0.050700
     16 H72        -1.1470   -1.0760   -1.4800 hc        1 NCR      0.050700
     17 H73        -0.1090    0.2480   -2.1560 hc        1 NCR      0.050700
     18 HO4         1.4490    0.0870    4.3360 ho        1 NCR      0.427000
@<TRIPOS>BOND
     1    1    2 ar  
     2    1    6 ar  
     3    1    7 1   
     4    2    3 ar  
     5    2   12 1   
     6    3    4 ar  
     7    3    8 1   
     8    4    5 ar  
     9    4   11 1   
    10    5    6 ar  
    11    5   13 1   
    12    6   14 1   
    13    7   15 1   
    14    7   16 1   
    15    7   17 1   
    16    8    9 1   
    17    8   10 1   
    18   11   18 1   
@<TRIPOS>SUBSTRUCTURE
     1 NCR         1 TEMP              0 ****  ****    0 ROOT
