@<TRIPOS>MOLECULE
NCR
   18    18     1     0     0
SMALL
bcc


@<TRIPOS>ATOM
      1 C1         -0.0200    0.0040   -0.0170 ca        1 NCR     -0.120300
      2 C2          1.3720    0.0560   -0.0080 ca        1 NCR     -0.038000
      3 C3          2.0780    0.0910    1.2080 ca        1 NCR     -0.212200
      4 C4          1.3660    0.0740    2.4300 ca        1 NCR      0.188100
      5 C5         -0.0410    0.0220    2.4100 ca        1 NCR     -0.227000
      6 C6         -0.7190   -0.0110    1.2010 ca        1 NCR     -0.050000
      7 C7         -0.7640   -0.0420   -1.2960 c3        1 NCR     -0.051800
      8 N3          3.5580    0.1460    1.1810 no        1 NCR      0.324200
      9 O1N         4.1710    0.1760    2.2120 o         1 NCR     -0.203500
     10 O2N         4.1110    0.1600    0.1100 o         1 NCR     -0.203500
     11 O4          2.0780    0.1090    3.5950 oh        1 NCR     -0.450100
     12 H2          1.9340    0.0710   -0.9600 ha        1 NCR      0.174000
     13 H5         -0.5930    0.0090    3.3600 ha        1 NCR      0.147000
     14 H6         -1.8200   -0.0510    1.1920 ha        1 NCR      0.145000
     15 H71        -1.6180    0.6800   -1.2800 hc        1 NCR      0.050700
     16 H72        -1.1780   -1.0690   -1.4620 hc        1 NCR      0.050700
     17 H73        -0.1020    0.2120   -2.1600 hc        1 NCR      0.050700
     18 HO4         1.4500    0.0910    4.3350 ho        1 NCR      0.427000
@<TRIPOS>BOND
     1    1    2 ar  
     2    1    6 ar  
     3    1    7 1   
     4    2    3 ar  
     5    2   12 1   
     6    3    4 ar  
     7    3    8 1   
     8    4    5 ar  
     9    4   11 1   
    10    5    6 ar  
    11    5   13 1   
    12    6   14 1   
    13    7   15 1   
    14    7   16 1   
    15    7   17 1   
    16    8    9 1   
    17    8   10 1   
    18   11   18 1   
@<TRIPOS>SUBSTRUCTURE
     1 NCR         1 TEMP              0 ****  ****    0 ROOT
