@<TRIPOS>MOLECULE
NCR
   18    18     1     0     0
SMALL
bcc


@<TRIPOS>ATOM
      1 C1         -0.0350    0.0140   -0.0090 ca        1 NCR     -0.120300
      2 C2          1.3600   -0.0030    0.0020 ca        1 NCR     -0.040000
      3 C3          2.0650    0.0310    1.2180 ca        1 NCR     -0.210200
      4 C4          1.3500    0.0830    2.4380 ca        1 NCR      0.188100
      5 C5         -0.0560    0.1000    2.4150 ca        1 NCR     -0.228000
      6 C6         -0.7340    0.0660    1.2050 ca        1 NCR     -0.049000
      7 C7         -0.7590   -0.0230   -1.3010 c3        1 NCR     -0.051800
      8 N3          3.5460    0.0110    1.1940 no        1 NCR      0.324200
      9 O1N         4.1580    0.0420    2.2240 o         1 NCR     -0.203500
     10 O2N         4.1000   -0.0350    0.1240 o         1 NCR     -0.203500
     11 O4          2.0620    0.1150    3.6030 oh        1 NCR     -0.451100
     12 H2          1.9190   -0.0440   -0.9500 ha        1 NCR      0.174000
     13 H5         -0.6110    0.1400    3.3640 ha        1 NCR      0.147000
     14 H6         -1.8360    0.0790    1.1990 ha        1 NCR      0.145000
     15 H71        -0.4660    0.8510   -1.9350 hc        1 NCR      0.050367
     16 H72        -0.5070   -0.9590   -1.8600 hc        1 NCR      0.050367
     17 H73        -1.8650    0.0090   -1.1460 hc        1 NCR      0.050367
     18 HO4         1.4340    0.1480    4.3430 ho        1 NCR      0.427000
@<TRIPOS>BOND
     1    1    2 ar  
     2    1    6 ar  
     3    1    7 1   
     4    2    3 ar  
     5    2   12 1   
     6    3    4 ar  
     7    3    8 1   
     8    4    5 ar  
     9    4   11 1   
    10    5    6 ar  
    11    5   13 1   
    12    6   14 1   
    13    7   15 1   
    14    7   16 1   
    15    7   17 1   
    16    8    9 1   
    17    8   10 1   
    18   11   18 1   
@<TRIPOS>SUBSTRUCTURE
     1 NCR         1 TEMP              0 ****  ****    0 ROOT
