@<TRIPOS>MOLECULE
NCR
   18    15     1     0     0
SMALL
bcc


@<TRIPOS>ATOM
      1 C1         -0.9210   -0.0400   -0.8760 c1        1 NCR     -0.086100
      2 C2          0.4640    0.0080   -0.9030 c1        1 NCR      0.016500
      3 C3          1.1780    0.1170    0.2800 c1        1 NCR     -0.278300
      4 C4          0.5060    0.1790    1.4910 c1        1 NCR      0.201600
      5 C5         -0.8790    0.1310    1.5180 c1        1 NCR     -0.118500
      6 C6         -1.5930    0.0220    0.3350 c1        1 NCR      0.004500
      7 C7         -1.6980   -0.2010   -2.1650 c3        1 NCR     -0.086000
      8 N3          2.5950    0.1630    0.2520 no        1 NCR      0.334300
      9 O1N         3.3090   -0.0970    1.3870 o         1 NCR     -0.220500
     10 O2N         3.1780    0.4390   -0.7860 o         1 NCR     -0.220500
     11 O4          1.2290    0.3140    2.6910 oh        1 NCR     -0.474600
     12 H2          0.9380   -0.0360   -1.7560 ha        1 NCR      0.113500
     13 H5         -1.3520    0.1750    2.3710 ha        1 NCR      0.107500
     14 H6         -2.5680   -0.0120    0.3540 ha        1 NCR      0.089500
     15 H71        -2.6260   -0.4380   -1.9590 hc        1 NCR      0.050367
     16 H72        -1.2910   -0.9100   -2.7050 hc        1 NCR      0.050367
     17 H73        -1.6790    0.6420   -2.6640 hc        1 NCR      0.050367
     18 HO4         1.2100   -0.4550    3.1360 ho        1 NCR      0.468000
@<TRIPOS>BOND
     1    1    6 3   
     2    1    7 1   
     3    2    3 3   
     4    2   12 1   
     5    3    8 1   
     6    4    5 3   
     7    4   11 1   
     8    5   13 1   
     9    6   14 1   
    10    7   15 1   
    11    7   16 1   
    12    7   17 1   
    13    8    9 1   
    14    8   10 1   
    15   11   18 1   
@<TRIPOS>SUBSTRUCTURE
     1 NCR         1 TEMP              0 ****  ****    0 ROOT
