@<TRIPOS>MOLECULE
NCR
   18    18     1     0     0
SMALL
bcc


@<TRIPOS>ATOM
      1 C1         -0.3820    0.0030    2.0600 ca        1 NCR     -0.120300
      2 C2         -0.9540   -0.0720    0.7990 ca        1 NCR     -0.041000
      3 C3         -0.1430   -0.1110   -0.3590 ca        1 NCR     -0.269200
      4 C4          1.2620   -0.0730   -0.2320 ca        1 NCR      0.218100
      5 C5          1.8300    0.0040    1.0640 ca        1 NCR     -0.176000
      6 C6          1.0210    0.0410    2.1820 ca        1 NCR     -0.053000
      7 C7         -1.2250    0.0440    3.2770 c3        1 NCR     -0.051800
      8 N3         -0.8150   -0.1900   -1.6710 no        1 NCR      0.325200
      9 O1N        -0.1460   -0.2250   -2.6760 o         1 NCR     -0.220500
     10 O2N        -2.0150   -0.2200   -1.7180 o         1 NCR     -0.220500
     11 O4          2.1780   -0.1020   -1.2380 oh        1 NCR     -0.491100
     12 H2         -2.0530   -0.1020    0.6880 ha        1 NCR      0.171000
     13 H5          2.9280    0.0320    1.1470 ha        1 NCR      0.165000
     14 H6          1.4720    0.1000    3.1850 ha        1 NCR      0.147000
     15 H71        -1.0300    0.9850    3.8520 hc        1 NCR      0.050367
     16 H72        -2.3120    0.0070    3.0220 hc        1 NCR      0.050367
     17 H73        -0.9890   -0.8260    3.9410 hc        1 NCR      0.050367
     18 HO4         1.7560   -0.1540   -2.1110 ho        1 NCR      0.468000
@<TRIPOS>BOND
     1    1    2 ar  
     2    1    6 ar  
     3    1    7 1   
     4    2    3 ar  
     5    2   12 1   
     6    3    4 ar  
     7    3    8 1   
     8    4    5 ar  
     9    4   11 1   
    10    5    6 ar  
    11    5   13 1   
    12    6   14 1   
    13    7   15 1   
    14    7   16 1   
    15    7   17 1   
    16    8    9 1   
    17    8   10 1   
    18   11   18 1   
@<TRIPOS>SUBSTRUCTURE
     1 NCR         1 TEMP              0 ****  ****    0 ROOT
