@<TRIPOS>MOLECULE
NCT
   26    27     1     0     0
SMALL
bcc


@<TRIPOS>ATOM
      1 N1          0.0460   -0.1680   -0.1930 nb        1 NCT     -0.670000
      2 C1          1.3830   -0.2110   -0.0410 ca        1 NCT      0.421200
      3 C2          2.0330   -0.0520    1.2020 ca        1 NCT     -0.189600
      4 C3          1.2390    0.1540    2.3370 ca        1 NCT     -0.095000
      5 C4         -0.1490    0.2040    2.1950 ca        1 NCT     -0.250300
      6 C5         -0.6980    0.0380    0.9110 ca        1 NCT      0.391200
      7 N2          4.1310   -1.2010    0.5660 n3        1 NCT     -0.729600
      8 C6          3.5290   -0.0830    1.3170 c3        1 NCT      0.223800
      9 C7          4.1440    1.2350    0.7850 c3        1 NCT     -0.084400
     10 C8          5.3570    0.8300   -0.0400 c3        1 NCT     -0.093400
     11 C9          5.2860   -0.6970   -0.1790 c3        1 NCT      0.161800
     12 C10         4.4070   -2.3630    1.3710 c3        1 NCT      0.159100
     13 HC1         1.9680   -0.3890   -0.9620 h4        1 NCT      0.035100
     14 HC3         1.7000    0.2760    3.3280 ha        1 NCT      0.134000
     15 HC4        -0.8000    0.3670    3.0620 ha        1 NCT      0.141000
     16 HC5        -1.7910    0.0700    0.7550 h4        1 NCT      0.020100
     17 HC6         3.7880   -0.1710    2.4180 h1        1 NCT      0.036700
     18 HC71        4.4300    1.8960    1.6380 hc        1 NCT      0.053700
     19 HC72        3.4020    1.7840    0.1540 hc        1 NCT      0.053700
     20 HC81        5.3410    1.3170   -1.0460 hc        1 NCT      0.048700
     21 HC82        6.3060    1.1310    0.4680 hc        1 NCT      0.048700
     22 HC91        5.1340   -0.9880   -1.2540 h1        1 NCT      0.042700
     23 HC92        6.2500   -1.1620    0.1680 h1        1 NCT      0.042700
     24 H101        3.4500   -2.7070    1.8440 h1        1 NCT      0.033367
     25 H102        4.7930   -3.1750    0.7010 h1        1 NCT      0.033367
     26 H103        5.1620   -2.1830    2.1850 h1        1 NCT      0.033367
@<TRIPOS>BOND
     1    1    2 ar  
     2    1    6 ar  
     3    2    3 ar  
     4    2   13 1   
     5    3    4 ar  
     6    3    8 1   
     7    4    5 ar  
     8    4   14 1   
     9    5    6 ar  
    10    5   15 1   
    11    6   16 1   
    12    7    8 1   
    13    7   11 1   
    14    7   12 1   
    15    8    9 1   
    16    8   17 1   
    17    9   10 1   
    18    9   18 1   
    19    9   19 1   
    20   10   11 1   
    21   10   20 1   
    22   10   21 1   
    23   11   22 1   
    24   11   23 1   
    25   12   24 1   
    26   12   25 1   
    27   12   26 1   
@<TRIPOS>SUBSTRUCTURE
     1 NCT         1 TEMP              0 ****  ****    0 ROOT
