@<TRIPOS>MOLECULE
NCT
   26    27     1     0     0
SMALL
bcc


@<TRIPOS>ATOM
      1 N1          0.0380   -0.1780   -0.1710 nb        1 NCT     -0.670000
      2 C1          1.3760   -0.2210   -0.0290 ca        1 NCT      0.421200
      3 C2          2.0350   -0.0500    1.2080 ca        1 NCT     -0.189600
      4 C3          1.2500    0.1690    2.3460 ca        1 NCT     -0.095000
      5 C4         -0.1390    0.2180    2.2140 ca        1 NCT     -0.250300
      6 C5         -0.6980    0.0390    0.9370 ca        1 NCT      0.391200
      7 N2          4.1290   -1.2040    0.5660 n3        1 NCT     -0.729600
      8 C6          3.5320   -0.0800    1.3120 c3        1 NCT      0.223800
      9 C7          4.1440    1.2330    0.7640 c3        1 NCT     -0.084400
     10 C8          5.3500    0.8210   -0.0660 c3        1 NCT     -0.093400
     11 C9          5.2770   -0.7070   -0.1920 c3        1 NCT      0.161800
     12 C10         4.4100   -2.3590    1.3800 c3        1 NCT      0.159100
     13 HC1         1.9540   -0.4080   -0.9520 h4        1 NCT      0.035100
     14 HC3         1.7180    0.3000    3.3330 ha        1 NCT      0.134000
     15 HC4        -0.7840    0.3900    3.0850 ha        1 NCT      0.141000
     16 HC5        -1.7920    0.0700    0.7880 h4        1 NCT      0.020100
     17 HC6         3.7990   -0.1590    2.4120 h1        1 NCT      0.036700
     18 HC71        3.3970    1.7780    0.1350 hc        1 NCT      0.053700
     19 HC72        4.4350    1.9020    1.6090 hc        1 NCT      0.053700
     20 HC81        5.3270    1.2990   -1.0760 hc        1 NCT      0.048700
     21 HC82        6.3030    1.1260    0.4330 hc        1 NCT      0.048700
     22 HC91        5.1170   -1.0070   -1.2630 h1        1 NCT      0.042700
     23 HC92        6.2440   -1.1690    0.1520 h1        1 NCT      0.042700
     24 H101        5.1720   -2.1720    2.1860 h1        1 NCT      0.033367
     25 H102        4.7920   -3.1770    0.7140 h1        1 NCT      0.033367
     26 H103        3.4570   -2.6990    1.8630 h1        1 NCT      0.033367
@<TRIPOS>BOND
     1    1    2 ar  
     2    1    6 ar  
     3    2    3 ar  
     4    2   13 1   
     5    3    4 ar  
     6    3    8 1   
     7    4    5 ar  
     8    4   14 1   
     9    5    6 ar  
    10    5   15 1   
    11    6   16 1   
    12    7    8 1   
    13    7   11 1   
    14    7   12 1   
    15    8    9 1   
    16    8   17 1   
    17    9   10 1   
    18    9   18 1   
    19    9   19 1   
    20   10   11 1   
    21   10   20 1   
    22   10   21 1   
    23   11   22 1   
    24   11   23 1   
    25   12   24 1   
    26   12   25 1   
    27   12   26 1   
@<TRIPOS>SUBSTRUCTURE
     1 NCT         1 TEMP              0 ****  ****    0 ROOT
