@<TRIPOS>MOLECULE
NCT
   26    27     1     0     0
SMALL
bcc


@<TRIPOS>ATOM
      1 N1         -0.6040    1.3740   -2.3410 nb        1 NCT     -0.670000
      2 C1         -0.4550    1.0050   -1.0550 ca        1 NCT      0.421200
      3 C2          0.0350   -0.2590   -0.6580 ca        1 NCT     -0.189600
      4 C3          0.3900   -1.1700   -1.6600 ca        1 NCT     -0.095000
      5 C4          0.2380   -0.8020   -2.9970 ca        1 NCT     -0.250300
      6 C5         -0.2630    0.4790   -3.2880 ca        1 NCT      0.391200
      7 N2          0.7790    0.4320    1.6000 n3        1 NCT     -0.729600
      8 C6          0.1600   -0.6340    0.7900 c3        1 NCT      0.223800
      9 C7         -1.2320   -0.9440    1.3950 c3        1 NCT     -0.084400
     10 C8         -1.2520   -0.2820    2.7650 c3        1 NCT     -0.093400
     11 C9          0.0060    0.5950    2.8310 c3        1 NCT      0.161800
     12 C10         2.1940    0.2590    1.8070 c3        1 NCT      0.159100
     13 HC1        -0.7350    1.7610   -0.2990 h4        1 NCT      0.035100
     14 HC3         0.7830   -2.1630   -1.3990 ha        1 NCT      0.134000
     15 HC4         0.5040   -1.4930   -3.8070 ha        1 NCT      0.141000
     16 HC5        -0.3970    0.8110   -4.3330 h4        1 NCT      0.020100
     17 HC6         0.7850   -1.5780    0.8480 h1        1 NCT      0.036700
     18 HC71       -1.3800   -2.0480    1.4700 hc        1 NCT      0.053700
     19 HC72       -2.0410   -0.5300    0.7430 hc        1 NCT      0.053700
     20 HC81       -1.2380   -1.0470    3.5790 hc        1 NCT      0.048700
     21 HC82       -2.1710    0.3400    2.8980 hc        1 NCT      0.048700
     22 HC91        0.6080    0.3370    3.7470 h1        1 NCT      0.042700
     23 HC92       -0.2740    1.6810    2.9010 h1        1 NCT      0.042700
     24 H101        2.4590   -0.6690    2.3850 h1        1 NCT      0.033367
     25 H102        2.7000    0.2120    0.8070 h1        1 NCT      0.033367
     26 H103        2.5820    1.1490    2.3680 h1        1 NCT      0.033367
@<TRIPOS>BOND
     1    1    2 ar  
     2    1    6 ar  
     3    2    3 ar  
     4    2   13 1   
     5    3    4 ar  
     6    3    8 1   
     7    4    5 ar  
     8    4   14 1   
     9    5    6 ar  
    10    5   15 1   
    11    6   16 1   
    12    7    8 1   
    13    7   11 1   
    14    7   12 1   
    15    8    9 1   
    16    8   17 1   
    17    9   10 1   
    18    9   18 1   
    19    9   19 1   
    20   10   11 1   
    21   10   20 1   
    22   10   21 1   
    23   11   22 1   
    24   11   23 1   
    25   12   24 1   
    26   12   25 1   
    27   12   26 1   
@<TRIPOS>SUBSTRUCTURE
     1 NCT         1 TEMP              0 ****  ****    0 ROOT
