@<TRIPOS>MOLECULE
NCT
   26    27     1     0     0
SMALL
bcc


@<TRIPOS>ATOM
      1 N1          0.0520   -0.1610   -0.2090 nb        1 NCT     -0.670000
      2 C1          1.3880   -0.2050   -0.0510 ca        1 NCT      0.421200
      3 C2          2.0310   -0.0560    1.1980 ca        1 NCT     -0.189600
      4 C3          1.2300    0.1390    2.3300 ca        1 NCT     -0.095000
      5 C4         -0.1560    0.1890    2.1800 ca        1 NCT     -0.250300
      6 C5         -0.6990    0.0340    0.8920 ca        1 NCT      0.391200
      7 N2          4.1340   -1.1970    0.5620 n3        1 NCT     -0.729600
      8 C6          3.5270   -0.0870    1.3210 c3        1 NCT      0.223800
      9 C7          4.1430    1.2370    0.8060 c3        1 NCT     -0.084400
     10 C8          5.3610    0.8420   -0.0170 c3        1 NCT     -0.093400
     11 C9          5.2920   -0.6840   -0.1710 c3        1 NCT      0.161800
     12 C10         4.4070   -2.3660    1.3580 c3        1 NCT      0.159100
     13 HC1         1.9790   -0.3740   -0.9690 h4        1 NCT      0.035100
     14 HC3         1.6860    0.2520    3.3250 ha        1 NCT      0.134000
     15 HC4        -0.8130    0.3430    3.0460 ha        1 NCT      0.141000
     16 HC5        -1.7900    0.0660    0.7300 h4        1 NCT      0.020100
     17 HC6         3.7790   -0.1860    2.4220 h1        1 NCT      0.036700
     18 HC71        4.4230    1.8900    1.6670 hc        1 NCT      0.053700
     19 HC72        3.4040    1.7920    0.1770 hc        1 NCT      0.053700
     20 HC81        5.3500    1.3380   -1.0170 hc        1 NCT      0.048700
     21 HC82        6.3070    1.1390    0.5000 hc        1 NCT      0.048700
     22 HC91        5.1460   -0.9640   -1.2500 h1        1 NCT      0.042700
     23 HC92        6.2550   -1.1520    0.1770 h1        1 NCT      0.042700
     24 H101        3.4480   -2.7160    1.8220 h1        1 NCT      0.033367
     25 H102        4.7980   -3.1710    0.6820 h1        1 NCT      0.033367
     26 H103        5.1580   -2.1930    2.1780 h1        1 NCT      0.033367
@<TRIPOS>BOND
     1    1    2 ar  
     2    1    6 ar  
     3    2    3 ar  
     4    2   13 1   
     5    3    4 ar  
     6    3    8 1   
     7    4    5 ar  
     8    4   14 1   
     9    5    6 ar  
    10    5   15 1   
    11    6   16 1   
    12    7    8 1   
    13    7   11 1   
    14    7   12 1   
    15    8    9 1   
    16    8   17 1   
    17    9   10 1   
    18    9   18 1   
    19    9   19 1   
    20   10   11 1   
    21   10   20 1   
    22   10   21 1   
    23   11   22 1   
    24   11   23 1   
    25   12   24 1   
    26   12   25 1   
    27   12   26 1   
@<TRIPOS>SUBSTRUCTURE
     1 NCT         1 TEMP              0 ****  ****    0 ROOT
