@<TRIPOS>MOLECULE
NCV
   32    32     1     0     0
SMALL
bcc


@<TRIPOS>ATOM
      1 N1         -0.0190    0.0770   -0.0550 n         1 NCV     -0.369000
      2 C6         -0.7420   -0.0610   -1.2950 c3        1 NCV      0.070300
      3 C5          1.3770    0.0380   -0.0180 cc        1 NCV      0.101400
      4 C11         2.1300    0.0720   -1.3230 c3        1 NCV     -0.050200
      5 C12         2.2100    1.4640   -1.9330 c3        1 NCV     -0.112700
      6 C14         3.1050    2.3720   -1.0930 c3        1 NCV      0.134900
      7 O4          3.0080    3.6780   -1.6410 oh        1 NCV     -0.607800
      8 C13         2.7350    1.3670   -3.3690 c3        1 NCV      0.134900
      9 O3          2.3040    2.4530   -4.1590 oh        1 NCV     -0.607800
     10 C3          2.0530   -0.0350    1.1750 cd        1 NCV     -0.264400
     11 C4          3.5250   -0.1360    1.2800 c3        1 NCV     -0.038900
     12 C2          1.3170   -0.0370    2.4520 c         1 NCV      0.716700
     13 O2          1.8410   -0.0880    3.5790 o         1 NCV     -0.614500
     14 N2         -0.0810    0.0320    2.3710 n         1 NCV     -0.580500
     15 C1         -0.7690    0.0640    1.1520 c         1 NCV      0.805500
     16 O1         -2.0190    0.0910    1.1360 o         1 NCV     -0.640500
     17 H6         -0.4020    0.7180   -2.0280 h1        1 NCV      0.064367
     18 H6A        -0.5680   -1.0810   -1.7320 h1        1 NCV      0.064367
     19 H6B        -1.8430    0.0730   -1.1110 h1        1 NCV      0.064367
     20 H11         3.1700   -0.3190   -1.1550 hc        1 NCV      0.071200
     21 H11A        1.6400   -0.6240   -2.0590 hc        1 NCV      0.071200
     22 H12         1.1880    1.9350   -1.9720 hc        1 NCV      0.086700
     23 H14         2.7560    2.3750   -0.0250 h1        1 NCV      0.038450
     24 H14A        4.1730    2.0250   -1.1320 h1        1 NCV      0.038450
     25 HO4         3.5070    4.2630   -1.0600 ho        1 NCV      0.418000
     26 H13         2.3160    0.4620   -3.8880 h1        1 NCV      0.038450
     27 H13A        3.8560    1.3070   -3.3660 h1        1 NCV      0.038450
     28 HO3         2.5980    3.2660   -3.7260 ho        1 NCV      0.418000
     29 H4          3.8830   -1.1010    0.8400 hc        1 NCV      0.052033
     30 H4A         4.0270    0.7060    0.7400 hc        1 NCV      0.052033
     31 H4B         3.8450   -0.1020    2.3530 hc        1 NCV      0.052033
     32 HN2        -0.6300    0.0370    3.2040 hn        1 NCV      0.355500
@<TRIPOS>BOND
     1    1    2 1   
     2    1    3 1   
     3    1   15 1   
     4    2   17 1   
     5    2   18 1   
     6    2   19 1   
     7    3    4 1   
     8    3   10 2   
     9    4    5 1   
    10    4   20 1   
    11    4   21 1   
    12    5    6 1   
    13    5    8 1   
    14    5   22 1   
    15    6    7 1   
    16    6   23 1   
    17    6   24 1   
    18    7   25 1   
    19    8    9 1   
    20    8   26 1   
    21    8   27 1   
    22    9   28 1   
    23   10   11 1   
    24   10   12 1   
    25   11   29 1   
    26   11   30 1   
    27   11   31 1   
    28   12   13 2   
    29   12   14 1   
    30   14   15 1   
    31   14   32 1   
    32   15   16 2   
@<TRIPOS>SUBSTRUCTURE
     1 NCV         1 TEMP              0 ****  ****    0 ROOT
