@<TRIPOS>MOLECULE
NCV
   32    31     1     0     0
SMALL
bcc


@<TRIPOS>ATOM
      1 N1         -1.8410    0.8330    0.5070 n         1 NCV     -0.267000
      2 C6         -2.5240    1.1430   -0.7270 c3        1 NCV     -0.082000
      3 C5         -0.4260    0.7110    0.5240 c2        1 NCV      0.094000
      4 C11         0.3600    0.6150   -0.8050 c3        1 NCV     -0.131000
      5 C12         0.8130   -0.8440   -1.0330 c3        1 NCV     -0.152000
      6 C14         2.2440   -0.8560   -1.5500 c3        1 NCV     -0.013500
      7 O4          2.7560   -2.1790   -1.4940 oh        1 NCV     -0.333500
      8 C13        -0.0930   -1.5020   -2.0480 c3        1 NCV     -0.013500
      9 O3          0.2730   -2.8600   -2.1980 oh        1 NCV     -0.333500
     10 C3          0.2970    0.7290    1.8110 c1        1 NCV     -0.227000
     11 C4          1.7930    1.0590    1.8430 c2        1 NCV     -0.165000
     12 C2         -0.4620    0.6430    3.0720 c2        1 NCV      0.354000
     13 O2          0.1260    0.6570    4.1370 o         1 NCV     -0.334000
     14 N2         -1.8890    0.6410    3.0440 n         1 NCV     -0.360000
     15 C1         -2.5990    0.7460    1.7610 c2        1 NCV      0.396000
     16 O1         -3.8150    0.8110    1.7410 o         1 NCV     -0.370000
     17 H6         -3.3810    1.5660   -0.5260 h1        1 NCV      0.100000
     18 H6A        -2.6790    0.3120   -1.2350 h1        1 NCV      0.100000
     19 H6B        -1.9740    1.7570   -1.2620 h1        1 NCV      0.100000
     20 H11        -0.2190    0.8990   -1.5500 hc        1 NCV      0.109000
     21 H11A        1.1400    1.1930   -0.7620 hc        1 NCV      0.109000
     22 H12         0.7680   -1.3360   -0.1890 hc        1 NCV      0.131000
     23 H14         2.7990   -0.2650   -0.9920 h1        1 NCV      0.075250
     24 H14A        2.2590   -0.5390   -2.4750 h1        1 NCV      0.075250
     25 HO4         3.6430   -2.1600   -1.6070 ho        1 NCV      0.216500
     26 H13        -1.0210   -1.4470   -1.7420 h1        1 NCV      0.075250
     27 H13A       -0.0060   -1.0440   -2.9080 h1        1 NCV      0.075250
     28 HO3        -0.3140   -3.2680   -2.7200 ho        1 NCV      0.216500
     29 H4          2.3070    0.2440    1.7180 ha        1 NCV      0.095333
     30 H4A         2.0210    1.4620    2.7140 ha        1 NCV      0.095333
     31 H4B         2.0040    1.6930    1.1250 ha        1 NCV      0.095333
     32 HN2        -2.3600    0.5870    3.8220 hn        1 NCV      0.268000
@<TRIPOS>BOND
     1    1    2 1   
     2    1    3 1   
     3    1   15 1   
     4    2   17 1   
     5    2   18 1   
     6    2   19 1   
     7    3    4 1   
     8    3   10 1   
     9    4    5 1   
    10    4   20 1   
    11    4   21 1   
    12    5    6 1   
    13    5    8 1   
    14    5   22 1   
    15    6    7 1   
    16    6   23 1   
    17    6   24 1   
    18    7   25 1   
    19    8    9 1   
    20    8   26 1   
    21    8   27 1   
    22    9   28 1   
    23   10   12 1   
    24   11   29 1   
    25   11   30 1   
    26   11   31 1   
    27   12   13 1   
    28   12   14 1   
    29   14   15 1   
    30   14   32 1   
    31   15   16 1   
@<TRIPOS>SUBSTRUCTURE
     1 NCV         1 TEMP              0 ****  ****    0 ROOT
