@<TRIPOS>MOLECULE
NCV
   32    32     1     0     0
SMALL
bcc


@<TRIPOS>ATOM
      1 N1         -0.0140    0.0570   -0.0640 n         1 NCV     -0.369000
      2 C6         -0.7280   -0.0880   -1.3080 c3        1 NCV      0.070300
      3 C5          1.3830    0.0340   -0.0200 cc        1 NCV      0.101400
      4 C11         2.1410    0.0760   -1.3210 c3        1 NCV     -0.050200
      5 C12         2.2100    1.4690   -1.9310 c3        1 NCV     -0.112700
      6 C14         3.0900    2.3880   -1.0850 c3        1 NCV      0.134900
      7 O4          2.9810    3.6920   -1.6340 oh        1 NCV     -0.607800
      8 C13         2.7430    1.3790   -3.3630 c3        1 NCV      0.134900
      9 O3          2.3050    2.4600   -4.1550 oh        1 NCV     -0.607800
     10 C3          2.0540   -0.0320    1.1760 cd        1 NCV     -0.264400
     11 C4          3.5260   -0.1160    1.2880 c3        1 NCV     -0.038900
     12 C2          1.3100   -0.0430    2.4500 c         1 NCV      0.716700
     13 O2          1.8290   -0.0880    3.5790 o         1 NCV     -0.614500
     14 N2         -0.0880    0.0110    2.3610 ns        1 NCV     -0.580500
     15 C1         -0.7690    0.0350    1.1390 c         1 NCV      0.805500
     16 O1         -2.0200    0.0500    1.1170 o         1 NCV     -0.640500
     17 H6         -0.3940    0.6950   -2.0390 h1        1 NCV      0.064367
     18 H6A        -0.5400   -1.1060   -1.7440 h1        1 NCV      0.064367
     19 H6B        -1.8320    0.0330   -1.1290 h1        1 NCV      0.064367
     20 H11         3.1850   -0.3030   -1.1480 hc        1 NCV      0.071200
     21 H11A        1.6630   -0.6250   -2.0600 hc        1 NCV      0.071200
     22 H12         1.1830    1.9290   -1.9750 hc        1 NCV      0.086700
     23 H14         2.7350    2.3860   -0.0190 h1        1 NCV      0.038450
     24 H14A        4.1620    2.0530   -1.1190 h1        1 NCV      0.038450
     25 HO4         3.4700    4.2830   -1.0490 ho        1 NCV      0.418000
     26 H13         2.3380    0.4700   -3.8850 h1        1 NCV      0.038450
     27 H13A        3.8650    1.3320   -3.3550 h1        1 NCV      0.038450
     28 HO3         2.5870    3.2770   -3.7210 ho        1 NCV      0.418000
     29 H4          3.8970   -1.0780    0.8510 hc        1 NCV      0.052033
     30 H4A         4.0220    0.7310    0.7510 hc        1 NCV      0.052033
     31 H4B         3.8400   -0.0800    2.3630 hc        1 NCV      0.052033
     32 HN2        -0.6410    0.0100    3.1920 hn        1 NCV      0.355500
@<TRIPOS>BOND
     1    1    2 1   
     2    1    3 1   
     3    1   15 1   
     4    2   17 1   
     5    2   18 1   
     6    2   19 1   
     7    3    4 1   
     8    3   10 2   
     9    4    5 1   
    10    4   20 1   
    11    4   21 1   
    12    5    6 1   
    13    5    8 1   
    14    5   22 1   
    15    6    7 1   
    16    6   23 1   
    17    6   24 1   
    18    7   25 1   
    19    8    9 1   
    20    8   26 1   
    21    8   27 1   
    22    9   28 1   
    23   10   11 1   
    24   10   12 1   
    25   11   29 1   
    26   11   30 1   
    27   11   31 1   
    28   12   13 2   
    29   12   14 1   
    30   14   15 1   
    31   14   32 1   
    32   15   16 2   
@<TRIPOS>SUBSTRUCTURE
     1 NCV         1 TEMP              0 ****  ****    0 ROOT
