@<TRIPOS>MOLECULE
NCV
   32    32     1     0     0
SMALL
bcc


@<TRIPOS>ATOM
      1 N1         -0.9600    1.2610   -0.2050 n         1 NCV     -0.369000
      2 C6         -0.3310    2.5230   -0.5050 c3        1 NCV      0.070300
      3 C5         -0.4030    0.0510   -0.6290 cc        1 NCV      0.101400
      4 C11         0.9850    0.0680   -1.2150 c3        1 NCV     -0.050200
      5 C12         2.0790    0.1730   -0.1630 c3        1 NCV     -0.112700
      6 C14         2.1610   -1.1080    0.6640 c3        1 NCV      0.134900
      7 O4          3.0940   -0.8730    1.7080 oh        1 NCV     -0.607800
      8 C13         3.4210    0.4640   -0.8420 c3        1 NCV      0.134900
      9 O3          4.3140    1.1290    0.0230 oh        1 NCV     -0.607800
     10 C3         -1.1010   -1.1270   -0.5220 cd        1 NCV     -0.264400
     11 C4         -0.5910   -2.4300   -1.0020 c3        1 NCV     -0.038900
     12 C2         -2.4470   -1.1460    0.0800 c         1 NCV      0.716700
     13 O2         -3.1470   -2.1620    0.2300 o         1 NCV     -0.614500
     14 N2         -2.9560    0.0850    0.5180 n         1 NCV     -0.580500
     15 C1         -2.2600    1.2900    0.3690 c         1 NCV      0.805500
     16 O1         -2.7750    2.3650    0.7470 o         1 NCV     -0.640500
     17 H6         -0.8990    3.3580   -0.0120 h1        1 NCV      0.064367
     18 H6A         0.7240    2.5290   -0.1210 h1        1 NCV      0.064367
     19 H6B        -0.3210    2.6960   -1.6150 h1        1 NCV      0.064367
     20 H11         1.1380   -0.8700   -1.8150 hc        1 NCV      0.071200
     21 H11A        1.0810    0.9290   -1.9330 hc        1 NCV      0.071200
     22 H12         1.8620    1.0220    0.5460 hc        1 NCV      0.086700
     23 H14         1.1520   -1.3520    1.0950 h1        1 NCV      0.038450
     24 H14A        2.5110   -1.9680    0.0320 h1        1 NCV      0.038450
     25 HO4         3.0800   -1.6530    2.2750 ho        1 NCV      0.418000
     26 H13         3.8780   -0.4910   -1.2160 h1        1 NCV      0.038450
     27 H13A        3.2880    1.1740   -1.7030 h1        1 NCV      0.038450
     28 HO3         4.4260    0.5780    0.8110 ho        1 NCV      0.418000
     29 H4          0.4040   -2.6670   -0.5480 hc        1 NCV      0.052033
     30 H4A        -1.3020   -3.2520   -0.7330 hc        1 NCV      0.052033
     31 H4B        -0.4780   -2.4180   -2.1160 hc        1 NCV      0.052033
     32 HN2        -3.8610    0.1300    0.9360 hn        1 NCV      0.355500
@<TRIPOS>BOND
     1    1    2 1   
     2    1    3 1   
     3    1   15 1   
     4    2   17 1   
     5    2   18 1   
     6    2   19 1   
     7    3    4 1   
     8    3   10 2   
     9    4    5 1   
    10    4   20 1   
    11    4   21 1   
    12    5    6 1   
    13    5    8 1   
    14    5   22 1   
    15    6    7 1   
    16    6   23 1   
    17    6   24 1   
    18    7   25 1   
    19    8    9 1   
    20    8   26 1   
    21    8   27 1   
    22    9   28 1   
    23   10   11 1   
    24   10   12 1   
    25   11   29 1   
    26   11   30 1   
    27   11   31 1   
    28   12   13 2   
    29   12   14 1   
    30   14   15 1   
    31   14   32 1   
    32   15   16 2   
@<TRIPOS>SUBSTRUCTURE
     1 NCV         1 TEMP              0 ****  ****    0 ROOT
