@<TRIPOS>MOLECULE
NCV
   32    32     1     0     0
SMALL
bcc


@<TRIPOS>ATOM
      1 N1         -0.0160    0.0600   -0.0630 n         1 NCV     -0.369000
      2 C6         -0.7300   -0.0870   -1.3080 c3        1 NCV      0.070300
      3 C5          1.3810    0.0360   -0.0180 cc        1 NCV      0.101400
      4 C11         2.1400    0.0740   -1.3180 c3        1 NCV     -0.050200
      5 C12         2.2110    1.4650   -1.9320 c3        1 NCV     -0.112700
      6 C14         3.0910    2.3850   -1.0880 c3        1 NCV      0.134900
      7 O4          2.9840    3.6880   -1.6400 oh        1 NCV     -0.607800
      8 C13         2.7450    1.3700   -3.3640 c3        1 NCV      0.134900
      9 O3          2.3080    2.4500   -4.1590 oh        1 NCV     -0.607800
     10 C3          2.0500   -0.0280    1.1790 cd        1 NCV     -0.264400
     11 C4          3.5220   -0.1130    1.2930 c3        1 NCV     -0.038900
     12 C2          1.3060   -0.0350    2.4520 c         1 NCV      0.716700
     13 O2          1.8230   -0.0780    3.5820 o         1 NCV     -0.614500
     14 N2         -0.0920    0.0210    2.3620 n         1 NCV     -0.580500
     15 C1         -0.7730    0.0420    1.1390 c         1 NCV      0.805500
     16 O1         -2.0230    0.0580    1.1150 o         1 NCV     -0.640500
     17 H6         -0.5430   -1.1070   -1.7410 h1        1 NCV      0.064367
     18 H6A        -0.3930    0.6940   -2.0400 h1        1 NCV      0.064367
     19 H6B        -1.8330    0.0360   -1.1300 h1        1 NCV      0.064367
     20 H11         3.1830   -0.3060   -1.1430 hc        1 NCV      0.071200
     21 H11A        1.6620   -0.6280   -2.0560 hc        1 NCV      0.071200
     22 H12         1.1840    1.9270   -1.9780 hc        1 NCV      0.086700
     23 H14         2.7350    2.3860   -0.0220 h1        1 NCV      0.038450
     24 H14A        4.1630    2.0490   -1.1190 h1        1 NCV      0.038450
     25 HO4         3.4740    4.2790   -1.0570 ho        1 NCV      0.418000
     26 H13         3.8670    1.3220   -3.3540 h1        1 NCV      0.038450
     27 H13A        2.3390    0.4600   -3.8840 h1        1 NCV      0.038450
     28 HO3         2.5920    3.2670   -3.7270 ho        1 NCV      0.418000
     29 H4          3.8920   -1.0760    0.8580 hc        1 NCV      0.052033
     30 H4A         3.8350   -0.0740    2.3680 hc        1 NCV      0.052033
     31 H4B         4.0190    0.7320    0.7540 hc        1 NCV      0.052033
     32 HN2        -0.6460    0.0210    3.1920 hn        1 NCV      0.355500
@<TRIPOS>BOND
     1    1    2 1   
     2    1    3 1   
     3    1   15 1   
     4    2   17 1   
     5    2   18 1   
     6    2   19 1   
     7    3    4 1   
     8    3   10 2   
     9    4    5 1   
    10    4   20 1   
    11    4   21 1   
    12    5    6 1   
    13    5    8 1   
    14    5   22 1   
    15    6    7 1   
    16    6   23 1   
    17    6   24 1   
    18    7   25 1   
    19    8    9 1   
    20    8   26 1   
    21    8   27 1   
    22    9   28 1   
    23   10   11 1   
    24   10   12 1   
    25   11   29 1   
    26   11   30 1   
    27   11   31 1   
    28   12   13 2   
    29   12   14 1   
    30   14   15 1   
    31   14   32 1   
    32   15   16 2   
@<TRIPOS>SUBSTRUCTURE
     1 NCV         1 TEMP              0 ****  ****    0 ROOT
