@<TRIPOS>MOLECULE
NCW
   51    52     1     0     0
SMALL
bcc


@<TRIPOS>ATOM
      1 S1          1.2430   -2.6640    0.9000 s         1 NCW     -0.188400
      2 C7          2.2630   -1.5750    0.4330 c         1 NCW      0.317400
      3 N1          2.6100   -0.3980    1.0350 n         1 NCW     -0.397800
      4 C5          2.3660   -0.1720    2.4820 c3        1 NCW      0.015700
      5 C4          1.7320    1.2410    2.6350 c3        1 NCW      0.112100
      6 O4          1.5870    1.5340    4.0090 oh        1 NCW     -0.581800
      7 C3          2.6810    2.3280    2.0730 c3        1 NCW      0.106100
      8 O3          1.9460    3.5010    1.7810 oh        1 NCW     -0.594800
      9 C2          3.3360    1.9120    0.7410 c3        1 NCW      0.141100
     10 O2          4.4910    2.6710    0.4610 oh        1 NCW     -0.580800
     11 C6          3.8070   -0.1400    3.0690 c3        1 NCW      0.099400
     12 O1          4.6530    0.1960    1.9440 os        1 NCW     -0.388600
     13 C1          3.8180    0.4290    0.8000 c3        1 NCW      0.260500
     14 N2          2.8740   -1.8260   -0.9420 n4        1 NCW     -0.635800
     15 C8          2.4010   -0.8630   -1.9830 c3        1 NCW      0.095800
     16 C9          2.9300   -1.2060   -3.3710 c3        1 NCW     -0.109400
     17 C10         2.4070   -0.1900   -4.3690 c3        1 NCW     -0.078400
     18 C11         2.9130   -0.5030   -5.7620 c3        1 NCW     -0.079400
     19 C12         2.3940    0.5060   -6.7640 c3        1 NCW     -0.079400
     20 C13         2.8970    0.1960   -8.1580 c3        1 NCW     -0.079400
     21 C14         2.3810    1.2050   -9.1630 c3        1 NCW     -0.079400
     22 C15         2.8790    0.9000  -10.5520 c3        1 NCW     -0.095100
     23 H2          2.5780   -2.7830   -1.2100 hn        1 NCW      0.461300
     24 H5          1.7210   -0.9680    2.9370 h1        1 NCW      0.123700
     25 H1          4.4410    0.1750   -0.0980 h2        1 NCW      0.104700
     26 H4          0.7400    1.2840    2.1060 h1        1 NCW      0.077700
     27 H6C1        4.1450   -1.1360    3.4450 h1        1 NCW      0.097200
     28 H6C2        3.9270    0.6480    3.8530 h1        1 NCW      0.097200
     29 HA          0.7880    1.0900    4.3230 ho        1 NCW      0.427000
     30 H3          3.4840    2.5480    2.8340 h1        1 NCW      0.088700
     31 HB          1.6410    3.8600    2.6260 ho        1 NCW      0.436000
     32 HC          2.5950    2.0380   -0.0990 h1        1 NCW      0.064700
     33 HD          4.2630    3.6000    0.6210 ho        1 NCW      0.444000
     34 H8C1        1.2730   -0.8850   -1.9850 hx        1 NCW      0.108700
     35 H8C2        2.7370    0.1730   -1.6890 hx        1 NCW      0.108700
     36 H9C1        2.5970   -2.2330   -3.6760 hc        1 NCW      0.067700
     37 H9C2        4.0530   -1.1910   -3.3780 hc        1 NCW      0.067700
     38 H101        1.2850   -0.1980   -4.3650 hc        1 NCW      0.055700
     39 H102        2.7380    0.8400   -4.0720 hc        1 NCW      0.055700
     40 H111        4.0350   -0.4970   -5.7670 hc        1 NCW      0.048700
     41 H112        2.5830   -1.5330   -6.0610 hc        1 NCW      0.048700
     42 H121        1.2720    0.5020   -6.7590 hc        1 NCW      0.045200
     43 H122        2.7240    1.5370   -6.4660 hc        1 NCW      0.045200
     44 H131        2.5690   -0.8340   -8.4570 hc        1 NCW      0.043700
     45 H132        4.0190    0.2010   -8.1640 hc        1 NCW      0.043700
     46 H141        1.2590    1.2000   -9.1550 hc        1 NCW      0.040700
     47 H142        2.7100    2.2350   -8.8620 hc        1 NCW      0.040700
     48 H151        2.5410   -0.1120  -10.8810 hc        1 NCW      0.038033
     49 H152        3.9950    0.9250  -10.5870 hc        1 NCW      0.038033
     50 H153        2.4870    1.6550  -11.2770 hc        1 NCW      0.038033
     51 H22         3.9000   -1.8010   -0.9000 hn        1 NCW      0.461300
@<TRIPOS>BOND
     1    1    2 2   
     2    2    3 1   
     3    2   14 1   
     4    3    4 1   
     5    3   13 1   
     6    4    5 1   
     7    4   11 1   
     8    4   24 1   
     9    5    6 1   
    10    5    7 1   
    11    5   26 1   
    12    6   29 1   
    13    7    8 1   
    14    7    9 1   
    15    7   30 1   
    16    8   31 1   
    17    9   10 1   
    18    9   13 1   
    19    9   32 1   
    20   10   33 1   
    21   11   12 1   
    22   11   27 1   
    23   11   28 1   
    24   12   13 1   
    25   13   25 1   
    26   14   15 1   
    27   14   23 1   
    28   14   51 1   
    29   15   16 1   
    30   15   34 1   
    31   15   35 1   
    32   16   17 1   
    33   16   36 1   
    34   16   37 1   
    35   17   18 1   
    36   17   38 1   
    37   17   39 1   
    38   18   19 1   
    39   18   40 1   
    40   18   41 1   
    41   19   20 1   
    42   19   42 1   
    43   19   43 1   
    44   20   21 1   
    45   20   44 1   
    46   20   45 1   
    47   21   22 1   
    48   21   46 1   
    49   21   47 1   
    50   22   48 1   
    51   22   49 1   
    52   22   50 1   
@<TRIPOS>SUBSTRUCTURE
     1 NCW         1 TEMP              0 ****  ****    0 ROOT
