@<TRIPOS>MOLECULE
NCW
   51    52     1     0     0
SMALL
bcc


@<TRIPOS>ATOM
      1 S1          0.7430   -2.3570    0.8980 s         1 NCW     -0.188400
      2 C7          1.9300   -1.4490    0.4390 c         1 NCW      0.317400
      3 N1          2.4530   -0.3380    1.0380 n         1 NCW     -0.397800
      4 C5          2.2300   -0.0630    2.4810 c3        1 NCW      0.015700
      5 C4          1.8270    1.4340    2.6160 c3        1 NCW      0.112100
      6 O4          1.7140    1.7580    3.9860 oh        1 NCW     -0.581800
      7 C3          2.9450    2.3510    2.0600 c3        1 NCW      0.106100
      8 O3          2.4120    3.6240    1.7510 oh        1 NCW     -0.594800
      9 C2          3.5420    1.8250    0.7400 c3        1 NCW      0.141100
     10 O2          4.8070    2.3870    0.4710 oh        1 NCW     -0.580800
     11 C6          3.6500   -0.2570    3.0870 c3        1 NCW      0.099400
     12 O1          4.5530   -0.0700    1.9720 os        1 NCW     -0.388600
     13 C1          3.7810    0.2850    0.8140 c3        1 NCW      0.260500
     14 N2          2.5100   -1.8060   -0.9260 n4        1 NCW     -0.635800
     15 C8          2.2100   -0.7880   -1.9800 c3        1 NCW      0.095800
     16 C9          2.6950   -1.2230   -3.3580 c3        1 NCW     -0.109400
     17 C10         2.3530   -0.1460   -4.3700 c3        1 NCW     -0.078400
     18 C11         2.8170   -0.5500   -5.7540 c3        1 NCW     -0.079400
     19 C12         2.4790    0.5200   -6.7700 c3        1 NCW     -0.079400
     20 C13         2.9410    0.1200   -8.1550 c3        1 NCW     -0.079400
     21 C14         2.6050    1.1880   -9.1750 c3        1 NCW     -0.079400
     22 C15         3.0620    0.7950  -10.5550 c3        1 NCW     -0.095100
     23 H2          2.0690   -2.7050   -1.1920 hn        1 NCW      0.461300
     24 H5          1.4600   -0.7420    2.9320 h1        1 NCW      0.123700
     25 H1          4.3660   -0.0730   -0.0730 h2        1 NCW      0.104700
     26 H4          0.8630    1.6310    2.0730 h1        1 NCW      0.077700
     27 H6C1        3.8840    0.5090    3.8680 h1        1 NCW      0.097200
     28 H6C2        3.8200   -1.2910    3.4740 h1        1 NCW      0.097200
     29 HA          0.8510    1.4500    4.2920 ho        1 NCW      0.427000
     30 H3          3.7640    2.4460    2.8310 h1        1 NCW      0.088700
     31 HB          2.1570    4.0340    2.5900 ho        1 NCW      0.436000
     32 HC          2.8410    2.0610   -0.1110 h1        1 NCW      0.064700
     33 HD          4.7290    3.3410    0.6220 ho        1 NCW      0.444000
     34 H8C1        2.7040    0.1830   -1.6880 hx        1 NCW      0.108700
     35 H8C2        1.0930   -0.6300   -1.9970 hx        1 NCW      0.108700
     36 H9C1        3.8050   -1.3890   -3.3510 hc        1 NCW      0.067700
     37 H9C2        2.2050   -2.1870   -3.6600 hc        1 NCW      0.067700
     38 H101        2.8410    0.8200   -4.0760 hc        1 NCW      0.055700
     39 H102        1.2440    0.0260   -4.3810 hc        1 NCW      0.055700
     40 H111        3.9260   -0.7230   -5.7450 hc        1 NCW      0.048700
     41 H112        2.3300   -1.5160   -6.0500 hc        1 NCW      0.048700
     42 H121        2.9660    1.4880   -6.4760 hc        1 NCW      0.045200
     43 H122        1.3710    0.6950   -6.7800 hc        1 NCW      0.045200
     44 H131        2.4550   -0.8470   -8.4510 hc        1 NCW      0.043700
     45 H132        4.0500   -0.0550   -8.1480 hc        1 NCW      0.043700
     46 H141        1.4960    1.3640   -9.1810 hc        1 NCW      0.040700
     47 H142        3.0910    2.1550   -8.8780 hc        1 NCW      0.040700
     48 H151        4.1680    0.6400  -10.5760 hc        1 NCW      0.038033
     49 H152        2.5700   -0.1540  -10.8800 hc        1 NCW      0.038033
     50 H153        2.8050    1.5950  -11.2900 hc        1 NCW      0.038033
     51 H22         3.5260   -1.9450   -0.8700 hn        1 NCW      0.461300
@<TRIPOS>BOND
     1    1    2 2   
     2    2    3 1   
     3    2   14 1   
     4    3    4 1   
     5    3   13 1   
     6    4    5 1   
     7    4   11 1   
     8    4   24 1   
     9    5    6 1   
    10    5    7 1   
    11    5   26 1   
    12    6   29 1   
    13    7    8 1   
    14    7    9 1   
    15    7   30 1   
    16    8   31 1   
    17    9   10 1   
    18    9   13 1   
    19    9   32 1   
    20   10   33 1   
    21   11   12 1   
    22   11   27 1   
    23   11   28 1   
    24   12   13 1   
    25   13   25 1   
    26   14   15 1   
    27   14   23 1   
    28   14   51 1   
    29   15   16 1   
    30   15   34 1   
    31   15   35 1   
    32   16   17 1   
    33   16   36 1   
    34   16   37 1   
    35   17   18 1   
    36   17   38 1   
    37   17   39 1   
    38   18   19 1   
    39   18   40 1   
    40   18   41 1   
    41   19   20 1   
    42   19   42 1   
    43   19   43 1   
    44   20   21 1   
    45   20   44 1   
    46   20   45 1   
    47   21   22 1   
    48   21   46 1   
    49   21   47 1   
    50   22   48 1   
    51   22   49 1   
    52   22   50 1   
@<TRIPOS>SUBSTRUCTURE
     1 NCW         1 TEMP              0 ****  ****    0 ROOT
