@<TRIPOS>MOLECULE
NCW
   51    52     1     0     0
SMALL
bcc


@<TRIPOS>ATOM
      1 S1          0.7700   -2.4090    0.8750 s         1 NCW     -0.188400
      2 C7          1.9440   -1.4800    0.4240 c         1 NCW      0.317400
      3 N1          2.4480   -0.3650    1.0320 n         1 NCW     -0.397800
      4 C5          2.2160   -0.1020    2.4750 c3        1 NCW      0.015700
      5 C4          1.7910    1.3880    2.6170 c3        1 NCW      0.112100
      6 O4          1.6680    1.7020    3.9890 oh        1 NCW     -0.581800
      7 C3          2.8960    2.3250    2.0710 c3        1 NCW      0.106100
      8 O3          2.3450    3.5910    1.7670 oh        1 NCW     -0.594800
      9 C2          3.5060    1.8150    0.7500 c3        1 NCW      0.141100
     10 O2          4.7630    2.3980    0.4890 oh        1 NCW     -0.580800
     11 C6          3.6370   -0.2780    3.0860 c3        1 NCW      0.099400
     12 O1          4.5410   -0.0710    1.9750 os        1 NCW     -0.388600
     13 C1          3.7680    0.2780    0.8170 c3        1 NCW      0.260500
     14 N2          2.5340   -1.8200   -0.9410 ny        1 NCW     -0.635800
     15 C8          2.2230   -0.8010   -1.9890 c3        1 NCW      0.095800
     16 C9          2.7200   -1.2200   -3.3680 c3        1 NCW     -0.109400
     17 C10         2.3660   -0.1410   -4.3740 c3        1 NCW     -0.078400
     18 C11         2.8440   -0.5270   -5.7580 c3        1 NCW     -0.079400
     19 C12         2.4950    0.5460   -6.7690 c3        1 NCW     -0.079400
     20 C13         2.9710    0.1640   -8.1540 c3        1 NCW     -0.079400
     21 C14         2.6230    1.2340   -9.1670 c3        1 NCW     -0.079400
     22 C15         3.0950    0.8590  -10.5480 c3        1 NCW     -0.095100
     23 H2          3.5520   -1.9440   -0.8820 hn        1 NCW      0.461300
     24 H5          1.4550   -0.7950    2.9200 h1        1 NCW      0.123700
     25 H1          4.3610   -0.0650   -0.0700 h2        1 NCW      0.104700
     26 H4          0.8250    1.5730    2.0720 h1        1 NCW      0.077700
     27 H6C1        3.8570    0.4870    3.8720 h1        1 NCW      0.097200
     28 H6C2        3.8210   -1.3120    3.4670 h1        1 NCW      0.097200
     29 HA          0.8080    1.3800    4.2900 ho        1 NCW      0.427000
     30 H3          3.7100    2.4280    2.8450 h1        1 NCW      0.088700
     31 HB          2.0800    3.9930    2.6070 ho        1 NCW      0.436000
     32 HC          2.8040    2.0460   -0.1020 h1        1 NCW      0.064700
     33 HD          4.6700    3.3500    0.6450 ho        1 NCW      0.444000
     34 H8C1        1.1030   -0.6600   -2.0100 hx        1 NCW      0.108700
     35 H8C2        2.7000    0.1760   -1.6890 hx        1 NCW      0.108700
     36 H9C1        3.8320   -1.3680   -3.3570 hc        1 NCW      0.067700
     37 H9C2        2.2460   -2.1890   -3.6790 hc        1 NCW      0.067700
     38 H101        2.8370    0.8310   -4.0710 hc        1 NCW      0.055700
     39 H102        1.2540    0.0140   -4.3900 hc        1 NCW      0.055700
     40 H111        2.3740   -1.4990   -6.0640 hc        1 NCW      0.048700
     41 H112        3.9550   -0.6830   -5.7450 hc        1 NCW      0.048700
     42 H121        1.3840    0.7030   -6.7830 hc        1 NCW      0.045200
     43 H122        2.9640    1.5180   -6.4650 hc        1 NCW      0.045200
     44 H131        2.5020   -0.8090   -8.4600 hc        1 NCW      0.043700
     45 H132        4.0820    0.0060   -8.1410 hc        1 NCW      0.043700
     46 H141        3.0920    2.2060   -8.8600 hc        1 NCW      0.040700
     47 H142        1.5120    1.3910   -9.1780 hc        1 NCW      0.040700
     48 H151        4.2040    0.7220  -10.5630 hc        1 NCW      0.038033
     49 H152        2.6200   -0.0950  -10.8830 hc        1 NCW      0.038033
     50 H153        2.8290    1.6600  -11.2780 hc        1 NCW      0.038033
     51 H22         2.1070   -2.7250   -1.2140 hn        1 NCW      0.461300
@<TRIPOS>BOND
     1    1    2 2   
     2    2    3 1   
     3    2   14 1   
     4    3    4 1   
     5    3   13 1   
     6    4    5 1   
     7    4   11 1   
     8    4   24 1   
     9    5    6 1   
    10    5    7 1   
    11    5   26 1   
    12    6   29 1   
    13    7    8 1   
    14    7    9 1   
    15    7   30 1   
    16    8   31 1   
    17    9   10 1   
    18    9   13 1   
    19    9   32 1   
    20   10   33 1   
    21   11   12 1   
    22   11   27 1   
    23   11   28 1   
    24   12   13 1   
    25   13   25 1   
    26   14   15 1   
    27   14   23 1   
    28   14   51 1   
    29   15   16 1   
    30   15   34 1   
    31   15   35 1   
    32   16   17 1   
    33   16   36 1   
    34   16   37 1   
    35   17   18 1   
    36   17   38 1   
    37   17   39 1   
    38   18   19 1   
    39   18   40 1   
    40   18   41 1   
    41   19   20 1   
    42   19   42 1   
    43   19   43 1   
    44   20   21 1   
    45   20   44 1   
    46   20   45 1   
    47   21   22 1   
    48   21   46 1   
    49   21   47 1   
    50   22   48 1   
    51   22   49 1   
    52   22   50 1   
@<TRIPOS>SUBSTRUCTURE
     1 NCW         1 TEMP              0 ****  ****    0 ROOT
