@<TRIPOS>MOLECULE
NCW
   50    51     1     0     0
SMALL
bcc


@<TRIPOS>ATOM
      1 S1          0.6290   -2.3910    0.5440 s         1 NCW     -0.564400
      2 C7          0.8470   -0.9790   -0.2310 c         1 NCW      0.566400
      3 N1          2.0410   -0.2540   -0.0480 n         1 NCW     -0.420800
      4 C5          3.2610   -0.9660    0.3920 c3        1 NCW      0.045700
      5 C4          3.9950   -0.0320    1.3900 c3        1 NCW      0.155100
      6 O4          5.1680   -0.7170    1.7910 oh        1 NCW     -0.594800
      7 C3          4.3780    1.2990    0.7000 c3        1 NCW      0.065100
      8 O3          4.6790    2.2050    1.7520 oh        1 NCW     -0.601800
      9 C2          3.2390    1.8550   -0.1760 c3        1 NCW      0.096100
     10 O2          3.7280    2.8010   -1.1090 oh        1 NCW     -0.580800
     11 C6          4.1020   -1.0770   -0.9110 c3        1 NCW      0.095400
     12 O1          3.6290    0.0020   -1.7450 os        1 NCW     -0.416600
     13 C1          2.5970    0.7080   -1.0180 c3        1 NCW      0.264500
     14 N2         -0.1280   -0.4250   -1.0370 n         1 NCW     -0.500900
     15 C8         -1.4800   -0.9300   -1.0550 c3        1 NCW      0.064000
     16 C9         -2.5110    0.0290   -0.4590 c3        1 NCW     -0.103400
     17 C10        -3.8960   -0.5680   -0.5870 c3        1 NCW     -0.077400
     18 C11        -4.9440    0.3580   -0.0070 c3        1 NCW     -0.078400
     19 C12        -6.3300   -0.2360   -0.1330 c3        1 NCW     -0.079400
     20 C13        -7.3780    0.6890    0.4470 c3        1 NCW     -0.079400
     21 C14        -8.7660    0.0960    0.3210 c3        1 NCW     -0.080400
     22 C15        -9.8130    1.0140    0.8970 c3        1 NCW     -0.093100
     23 H2         -0.0170    0.4960   -1.3970 hn        1 NCW      0.304500
     24 H5          3.0330   -1.9610    0.8620 h1        1 NCW      0.150700
     25 H1          1.9020    1.1210   -1.7930 h2        1 NCW      0.104700
     26 H4          3.3460    0.1780    2.2850 h1        1 NCW      0.075700
     27 H6C1        5.1940   -0.9310   -0.7300 h1        1 NCW      0.074700
     28 H6C2        3.9100   -2.0310   -1.4600 h1        1 NCW      0.074700
     29 HA          5.5870   -0.1610    2.4610 ho        1 NCW      0.420000
     30 H3          5.2880    1.1380    0.0550 h1        1 NCW      0.072700
     31 HB          5.1540    2.9450    1.3560 ho        1 NCW      0.404000
     32 HC          2.4560    2.3310    0.4770 h1        1 NCW      0.063700
     33 HD          4.0190    3.5650   -0.5950 ho        1 NCW      0.401000
     34 H8C1       -1.7410   -1.1270   -2.1350 h1        1 NCW      0.083700
     35 H8C2       -1.5180   -1.9150   -0.4970 h1        1 NCW      0.083700
     36 H9C1       -2.2810    0.2180    0.6220 hc        1 NCW      0.045700
     37 H9C2       -2.4780    1.0180   -0.9890 hc        1 NCW      0.045700
     38 H101       -4.1250   -0.7650   -1.6680 hc        1 NCW      0.046200
     39 H102       -3.9310   -1.5550   -0.0550 hc        1 NCW      0.046200
     40 H111       -4.7150    0.5550    1.0740 hc        1 NCW      0.040700
     41 H112       -4.9090    1.3470   -0.5380 hc        1 NCW      0.040700
     42 H121       -6.5580   -0.4340   -1.2140 hc        1 NCW      0.041200
     43 H122       -6.3650   -1.2240    0.3980 hc        1 NCW      0.041200
     44 H131       -7.1510    0.8860    1.5270 hc        1 NCW      0.039700
     45 H132       -7.3430    1.6770   -0.0840 hc        1 NCW      0.039700
     46 H141       -8.9910   -0.1020   -0.7600 hc        1 NCW      0.039200
     47 H142       -8.7980   -0.8930    0.8520 hc        1 NCW      0.039200
     48 H151       -9.6190    1.2030    1.9800 hc        1 NCW      0.033033
     49 H152       -9.8130    1.9960    0.3650 hc        1 NCW      0.033033
     50 H153      -10.8270    0.5570    0.7950 hc        1 NCW      0.033033
@<TRIPOS>BOND
     1    1    2 2   
     2    2    3 1   
     3    2   14 1   
     4    3    4 1   
     5    3   13 1   
     6    4    5 1   
     7    4   11 1   
     8    4   24 1   
     9    5    6 1   
    10    5    7 1   
    11    5   26 1   
    12    6   29 1   
    13    7    8 1   
    14    7    9 1   
    15    7   30 1   
    16    8   31 1   
    17    9   10 1   
    18    9   13 1   
    19    9   32 1   
    20   10   33 1   
    21   11   12 1   
    22   11   27 1   
    23   11   28 1   
    24   12   13 1   
    25   13   25 1   
    26   14   15 1   
    27   14   23 1   
    28   15   16 1   
    29   15   34 1   
    30   15   35 1   
    31   16   17 1   
    32   16   36 1   
    33   16   37 1   
    34   17   18 1   
    35   17   38 1   
    36   17   39 1   
    37   18   19 1   
    38   18   40 1   
    39   18   41 1   
    40   19   20 1   
    41   19   42 1   
    42   19   43 1   
    43   20   21 1   
    44   20   44 1   
    45   20   45 1   
    46   21   22 1   
    47   21   46 1   
    48   21   47 1   
    49   22   48 1   
    50   22   49 1   
    51   22   50 1   
@<TRIPOS>SUBSTRUCTURE
     1 NCW         1 TEMP              0 ****  ****    0 ROOT
