@<TRIPOS>MOLECULE
NCX
   41    43     1     0     0
SMALL
bcc


@<TRIPOS>ATOM
      1 P           3.1400   -2.2440   -4.2360 p5        1 NCX      1.427800
      2 OP1         4.1310   -3.2890   -4.5700 o         1 NCX     -0.840500
      3 OP2         1.6840   -2.4120   -4.0570 o         1 NCX     -0.840500
      4 OP3         3.4320   -1.0850   -5.3510 oh        1 NCX     -0.781400
      5 O5'         3.7010   -1.4300   -2.9130 os        1 NCX     -0.581200
      6 C5'         2.8590   -0.4700   -2.3530 c3        1 NCX      0.184400
      7 C4'         2.4210   -0.9110   -0.9470 c3        1 NCX      0.084100
      8 O4'         2.4430    0.2120   -0.0510 os        1 NCX     -0.448600
      9 C1'         1.1000    0.5760    0.3530 c3        1 NCX      0.263800
     10 N9          0.8540    1.9860    0.1980 nh        1 NCX     -0.108500
     11 C8         -0.2490    2.5420   -0.4450 c1        1 NCX     -0.059900
     12 C7         -0.2120    3.9540   -0.2010 ce        1 NCX     -0.468500
     13 CO7        -1.1750    4.9000   -0.7060 c         1 NCX      0.715300
     14 O7         -1.1020    6.1510   -0.5790 o         1 NCX     -0.711100
     15 NH7        -2.2950    4.3780   -1.3630 n         1 NCX     -0.662000
     16 C5          0.9420    4.2540    0.6060 ca        1 NCX     -0.023800
     17 C4          1.6090    2.9770    0.8460 ca        1 NCX     -0.046200
     18 C3          2.7830    2.9140    1.6010 ca        1 NCX     -0.152000
     19 C2          3.2950    4.0850    2.1410 ca        1 NCX     -0.118000
     20 C1          2.6420    5.3190    1.9230 ca        1 NCX     -0.222200
     21 N1          3.2110    6.5350    2.5260 no        1 NCX      0.318200
     22 O11         2.6850    7.6080    2.3490 o         1 NCX     -0.268000
     23 O12         4.2080    6.4600    3.2090 o         1 NCX     -0.268000
     24 C6          1.4690    5.4150    1.1480 ca        1 NCX     -0.064000
     25 C3'         0.9980   -1.5010   -0.9100 c3        1 NCX      0.098100
     26 C2'         0.1260   -0.3470   -0.4090 c3        1 NCX     -0.133400
     27 O3'         0.9190   -2.6130   -0.0320 oh        1 NCX     -0.603800
     28 H5'         3.4380    0.4910   -2.2520 h1        1 NCX      0.044200
     29 H5''        1.9620   -0.3030   -3.0110 h1        1 NCX      0.044200
     30 H4'         3.1730   -1.6380   -0.5330 h1        1 NCX      0.071700
     31 H1'         1.0770    0.3450    1.4650 h2        1 NCX      0.024700
     32 H8          4.3000   -1.1710   -5.7260 ho        1 NCX      0.421000
     33 HH71       -2.2380    3.4260   -1.6380 hn        1 NCX      0.279500
     34 HH72       -2.7790    4.9890   -1.9730 hn        1 NCX      0.279500
     35 H3          3.2980    1.9540    1.7440 ha        1 NCX      0.140000
     36 H2          4.2180    4.0540    2.7390 ha        1 NCX      0.134000
     37 H6          0.9690    6.3810    0.9660 ha        1 NCX      0.173000
     38 H3'         0.6780   -1.9060   -1.9130 h1        1 NCX      0.153700
     39 H2'        -0.3480    0.1920   -1.2690 hc        1 NCX      0.081200
     40 H2''       -0.6790   -0.7070    0.2730 hc        1 NCX      0.081200
     41 HO3'        1.2820   -2.3270    0.8140 ho        1 NCX      0.379000
@<TRIPOS>BOND
     1    1    2 1   
     2    1    3 1   
     3    1    4 1   
     4    1    5 1   
     5    4   32 1   
     6    5    6 1   
     7    6    7 1   
     8    6   28 1   
     9    6   29 1   
    10    7    8 1   
    11    7   25 1   
    12    7   30 1   
    13    8    9 1   
    14    9   10 1   
    15    9   26 1   
    16    9   31 1   
    17   10   11 2   
    18   10   17 1   
    19   11   12 2   
    20   12   13 1   
    21   12   16 1   
    22   13   14 2   
    23   13   15 1   
    24   15   33 1   
    25   15   34 1   
    26   16   17 ar  
    27   16   24 ar  
    28   17   18 ar  
    29   18   19 ar  
    30   18   35 1   
    31   19   20 ar  
    32   19   36 1   
    33   20   21 1   
    34   20   24 ar  
    35   21   22 1   
    36   21   23 1   
    37   24   37 1   
    38   25   26 1   
    39   25   27 1   
    40   25   38 1   
    41   26   39 1   
    42   26   40 1   
    43   27   41 1   
@<TRIPOS>SUBSTRUCTURE
     1 NCX         1 TEMP              0 ****  ****    0 ROOT
