@<TRIPOS>MOLECULE
NCY
   16    15     1     0     0
SMALL
bcc


@<TRIPOS>ATOM
      1 N           2.7070   -2.2640   -0.3230 n3        1 NCY     -0.795200
      2 CA          1.4100   -1.6340   -0.5880 c3        1 NCY      0.019500
      3 CB          1.4060   -0.1370   -0.2990 c3        1 NCY      0.075700
      4 SG         -0.2080    0.4990    0.1020 sh        1 NCY     -0.549900
      5 CN          3.8260   -1.5810   -0.9290 c3        1 NCY      0.141100
      6 C           0.8530   -1.8970   -2.0290 c         1 NCY      0.887600
      7 O           1.6300   -2.3740   -2.9010 o         1 NCY     -0.838800
      8 OXT        -0.3690   -1.6390   -2.2350 o         1 NCY     -0.838800
      9 H           2.6560   -3.1890   -0.7240 hn        1 NCY      0.354800
     10 HA          0.6900   -2.1310    0.1290 h1        1 NCY      0.058700
     11 HB2         1.8040    0.4160   -1.1830 h1        1 NCY      0.053700
     12 HB3         2.0280    0.1120    0.5940 h1        1 NCY      0.053700
     13 HG         -0.9230   -0.1660   -0.8390 hs        1 NCY      0.318800
     14 HCN1        3.9720   -0.5900   -0.4240 h1        1 NCY      0.020367
     15 HCN2        3.6980   -1.4030   -2.0320 h1        1 NCY      0.020367
     16 HCN3        4.7510   -2.1960   -0.7700 h1        1 NCY      0.020367
@<TRIPOS>BOND
     1    1    2 1   
     2    1    5 1   
     3    1    9 1   
     4    2    3 1   
     5    2    6 1   
     6    2   10 1   
     7    3    4 1   
     8    3   11 1   
     9    3   12 1   
    10    4   13 1   
    11    5   14 1   
    12    5   15 1   
    13    5   16 1   
    14    6    7 1   
    15    6    8 1   
@<TRIPOS>SUBSTRUCTURE
     1 NCY         1 TEMP              0 ****  ****    0 ROOT
