@<TRIPOS>MOLECULE
NCZ
   42    38     1     0     0
SMALL
bcc


@<TRIPOS>ATOM
      1 C1         -1.0940    0.1520    1.4100 c1        1 NCZ     -0.186000
      2 C6          0.3220    0.2160    1.4270 c1        1 NCZ      0.064000
      3 C5          0.9980    0.2440    2.6240 c1        1 NCZ     -0.102000
      4 C7          2.4130    0.4290    2.6370 c1        1 NCZ     -0.044000
      5 C8          3.1130    0.5830    1.4260 c1        1 NCZ     -0.221000
      6 C9          2.4190    0.5540    0.2090 c1        1 NCZ      0.139000
      7 C10         1.0340    0.3730    0.1970 c1        1 NCZ     -0.144000
      8 C11         1.1390   -0.3790   -1.1440 c2        1 NCZ      0.385000
      9 O3          1.8530   -1.3360   -1.2390 o         1 NCZ     -0.320000
     10 O4          0.4030    0.0900   -2.3010 os        1 NCZ     -0.283000
     11 C12         0.5750   -0.6230   -3.3390 c3        1 NCZ     -0.046000
     12 C13        -0.7130   -1.7250   -3.5240 c3        1 NCZ      0.041000
     13 C14        -0.8760   -1.6850   -4.8540 c2        1 NCZ     -0.198000
     14 C15        -0.4010   -0.4910   -5.4690 c1        1 NCZ     -0.194000
     15 C16         0.5450    0.2750   -4.6460 c2        1 NCZ      0.047000
     16 O6          0.1750    1.6360   -4.4280 oh        1 NCZ     -0.306000
     17 O5         -1.8890   -1.3950   -2.7630 oh        1 NCZ     -0.307000
     18 O2          3.4720    0.7760   -0.8300 oh        1 NCZ     -0.235000
     19 C4          0.2810    0.2080    3.8270 c1        1 NCZ     -0.008000
     20 C3         -1.1100    0.1450    3.8060 c1        1 NCZ     -0.200000
     21 C2         -1.7890    0.1170    2.5830 c1        1 NCZ      0.107000
     22 O1         -3.0950   -0.2520    2.4120 os        1 NCZ     -0.199000
     23 C17        -4.0470    0.7130    2.9170 c3        1 NCZ     -0.078000
     24 C18         0.7420    0.3730    5.2510 c3        1 NCZ     -0.188000
     25 H1         -1.5710    0.1310    0.5590 ha        1 NCZ      0.173000
     26 H7          2.9070    0.4500    3.5040 ha        1 NCZ      0.139000
     27 H8          4.0870    0.7090    1.4320 ha        1 NCZ      0.141000
     28 H12         1.4150   -1.0990   -3.2810 h1        1 NCZ      0.141000
     29 H13        -0.5000   -2.6220   -3.1960 h1        1 NCZ      0.131000
     30 H14        -1.5700   -2.2720   -5.3270 ha        1 NCZ      0.151000
     31 H15        -0.3760   -0.4210   -6.3970 ha        1 NCZ      0.151000
     32 H16         1.4120    0.3630   -5.0570 h4        1 NCZ      0.129000
     33 H6          0.2520    2.0960   -5.2000 ho        1 NCZ      0.215000
     34 H5         -2.4860   -2.0770   -2.8150 ho        1 NCZ      0.213000
     35 H2          3.7780    1.6230   -0.7730 ho        1 NCZ      0.228000
     36 H3         -1.5880    0.1220    4.6040 ha        1 NCZ      0.141000
     37 H171       -3.8220    1.6240    2.5620 h1        1 NCZ      0.085333
     38 H172       -4.9730    0.4580    2.6230 h1        1 NCZ      0.085333
     39 H173       -4.0070    0.7260    3.8990 h1        1 NCZ      0.085333
     40 H181        0.4360    1.2060    5.5850 hc        1 NCZ      0.089000
     41 H182        0.3740   -0.3610    5.8060 hc        1 NCZ      0.089000
     42 H183        1.7630    0.3470    5.2840 hc        1 NCZ      0.089000
@<TRIPOS>BOND
     1    1   21 1   
     2    1   25 1   
     3    2    3 1   
     4    2    7 1   
     5    3    4 1   
     6    4   26 1   
     7    5    6 1   
     8    5   27 1   
     9    6   18 1   
    10    7    8 1   
    11    8    9 1   
    12    8   10 1   
    13   10   11 1   
    14   11   12 1   
    15   11   15 1   
    16   11   28 1   
    17   12   13 1   
    18   12   17 1   
    19   12   29 1   
    20   13   14 1   
    21   13   30 1   
    22   14   31 1   
    23   15   16 1   
    24   15   32 1   
    25   16   33 1   
    26   17   34 1   
    27   18   35 1   
    28   19   20 1   
    29   19   24 1   
    30   20   36 1   
    31   21   22 1   
    32   22   23 1   
    33   23   37 1   
    34   23   38 1   
    35   23   39 1   
    36   24   40 1   
    37   24   41 1   
    38   24   42 1   
@<TRIPOS>SUBSTRUCTURE
     1 NCZ         1 TEMP              0 ****  ****    0 ROOT
