@<TRIPOS>MOLECULE
NCZ
   42    44     1     0     0
SMALL
bcc


@<TRIPOS>ATOM
      1 C1         -0.1480   -0.0950    0.2230 ca        1 NCZ     -0.174000
      2 C6          1.2560    0.0060    0.0720 ca        1 NCZ      0.065000
      3 C5          2.0840    0.0690    1.2270 ca        1 NCZ     -0.103000
      4 C7          3.4940    0.1610    1.0640 ca        1 NCZ     -0.043000
      5 C8          4.0660    0.1940   -0.1800 ca        1 NCZ     -0.225000
      6 C9          3.2390    0.1430   -1.3370 ca        1 NCZ      0.187100
      7 C10         1.8590    0.0500   -1.2230 ca        1 NCZ     -0.161600
      8 C11         1.0110   -0.0120   -2.4280 c         1 NCZ      0.673700
      9 O3          0.1800   -0.8620   -2.7430 o         1 NCZ     -0.518000
     10 O4          1.2220    1.0600   -3.2610 os        1 NCZ     -0.427900
     11 C12         0.5520    1.0910   -4.5220 c3        1 NCZ      0.145100
     12 C13        -0.0880    2.5030   -4.6660 c3        1 NCZ      0.151800
     13 C14         0.4850    3.0540   -5.9490 c2        1 NCZ     -0.192200
     14 C15         1.4170    2.2460   -6.4760 c2        1 NCZ     -0.192200
     15 C16         1.6310    1.0060   -5.6410 c3        1 NCZ      0.151800
     16 O6          1.4040   -0.1930   -6.3600 oh        1 NCZ     -0.581300
     17 O5         -1.4920    2.3290   -4.7060 oh        1 NCZ     -0.581300
     18 O2          3.7840    0.1650   -2.5970 oh        1 NCZ     -0.482100
     19 C4          1.4840    0.0370    2.5210 ca        1 NCZ     -0.018300
     20 C3          0.1150   -0.0550    2.6510 ca        1 NCZ     -0.198000
     21 C2         -0.7020   -0.1220    1.4940 ca        1 NCZ      0.147100
     22 O1         -2.0790   -0.2100    1.5350 os        1 NCZ     -0.318900
     23 C17        -2.6730   -0.3070    2.8240 c3        1 NCZ      0.112700
     24 C18         2.3350    0.1020    3.7350 c3        1 NCZ     -0.061800
     25 H1         -0.7980   -0.1680   -0.6630 ha        1 NCZ      0.175000
     26 H7          4.1330    0.2060    1.9600 ha        1 NCZ      0.138000
     27 H8          5.1560    0.2620   -0.3030 ha        1 NCZ      0.138000
     28 H12        -0.2130    0.2760   -4.6210 h1        1 NCZ      0.131700
     29 H13         0.1880    3.1550   -3.7920 h1        1 NCZ      0.067700
     30 H14         0.1360    4.0100   -6.3440 ha        1 NCZ      0.139000
     31 H15         1.9890    2.4010   -7.3920 ha        1 NCZ      0.139000
     32 H16         2.6620    0.9930   -5.1910 h1        1 NCZ      0.067700
     33 H6          1.9900   -0.1720   -7.1260 ho        1 NCZ      0.401000
     34 H5         -1.8700    3.1720   -4.9860 ho        1 NCZ      0.401000
     35 H2          4.7470    0.2240   -2.5060 ho        1 NCZ      0.423000
     36 H3         -0.3430   -0.0770    3.6500 ha        1 NCZ      0.140000
     37 H171       -2.4740    0.6170    3.4200 h1        1 NCZ      0.045033
     38 H172       -3.7650   -0.4020    2.5980 h1        1 NCZ      0.045033
     39 H173       -2.3030   -1.2110    3.3650 h1        1 NCZ      0.045033
     40 H181        2.9290    1.0510    3.7430 hc        1 NCZ      0.048700
     41 H182        1.7160    0.0700    4.6650 hc        1 NCZ      0.048700
     42 H183        3.0460   -0.7610    3.7580 hc        1 NCZ      0.048700
@<TRIPOS>BOND
     1    1    2 ar  
     2    1   21 ar  
     3    1   25 1   
     4    2    3 ar  
     5    2    7 ar  
     6    3    4 ar  
     7    3   19 ar  
     8    4    5 ar  
     9    4   26 1   
    10    5    6 ar  
    11    5   27 1   
    12    6    7 ar  
    13    6   18 1   
    14    7    8 1   
    15    8    9 2   
    16    8   10 1   
    17   10   11 1   
    18   11   12 1   
    19   11   15 1   
    20   11   28 1   
    21   12   13 1   
    22   12   17 1   
    23   12   29 1   
    24   13   14 2   
    25   13   30 1   
    26   14   15 1   
    27   14   31 1   
    28   15   16 1   
    29   15   32 1   
    30   16   33 1   
    31   17   34 1   
    32   18   35 1   
    33   19   20 ar  
    34   19   24 1   
    35   20   21 ar  
    36   20   36 1   
    37   21   22 1   
    38   22   23 1   
    39   23   37 1   
    40   23   38 1   
    41   23   39 1   
    42   24   40 1   
    43   24   41 1   
    44   24   42 1   
@<TRIPOS>SUBSTRUCTURE
     1 NCZ         1 TEMP              0 ****  ****    0 ROOT
