@<TRIPOS>MOLECULE
NCZ
   42    44     1     0     0
SMALL
bcc


@<TRIPOS>ATOM
      1 C1          1.8360    1.1320    0.4600 ca        1 NCZ     -0.180000
      2 C6          1.6950   -0.2220    0.0740 ca        1 NCZ      0.072000
      3 C5          2.8350   -0.9350   -0.3870 ca        1 NCZ     -0.105000
      4 C7          2.6910   -2.2970   -0.7780 ca        1 NCZ     -0.049000
      5 C8          1.4810   -2.9290   -0.7290 ca        1 NCZ     -0.177000
      6 C9          0.3290   -2.2130   -0.2790 ca        1 NCZ      0.217100
      7 C10         0.4260   -0.8880    0.1270 ca        1 NCZ     -0.229600
      8 C11        -0.7470   -0.1520    0.6170 c         1 NCZ      0.661700
      9 O3         -0.8620    0.5990    1.5830 o         1 NCZ     -0.510000
     10 O4         -1.8700   -0.3930   -0.1520 os        1 NCZ     -0.461900
     11 C12        -3.0980    0.2450    0.1960 c3        1 NCZ      0.106100
     12 C13        -3.5170    1.1750   -0.9780 c3        1 NCZ      0.152300
     13 C14        -4.9040    0.7110   -1.3530 c2        1 NCZ     -0.193200
     14 C15        -5.2720   -0.3840   -0.6720 c2        1 NCZ     -0.193200
     15 C16        -4.1970   -0.8580    0.2750 c3        1 NCZ      0.152300
     16 O6         -4.6570   -1.0620    1.5910 oh        1 NCZ     -0.582800
     17 O5         -3.4960    2.5040   -0.4890 oh        1 NCZ     -0.582800
     18 O2         -0.8130   -2.9630   -0.2740 oh        1 NCZ     -0.493100
     19 C4          4.0990   -0.2790   -0.4510 ca        1 NCZ     -0.016300
     20 C3          4.2170    1.0430   -0.0720 ca        1 NCZ     -0.202000
     21 C2          3.0770    1.7470    0.3840 ca        1 NCZ      0.148100
     22 O1          3.1010    3.0720    0.7730 os        1 NCZ     -0.320900
     23 C17         4.3720    3.7120    0.7690 c3        1 NCZ      0.112700
     24 C18         5.2960   -1.0150   -0.9260 c3        1 NCZ     -0.061800
     25 H1          0.9710    1.7030    0.8350 ha        1 NCZ      0.175000
     26 H7          3.5800   -2.8480   -1.1280 ha        1 NCZ      0.139000
     27 H8          1.3550   -3.9800   -1.0280 ha        1 NCZ      0.157000
     28 H12        -3.0120    0.8200    1.1560 h1        1 NCZ      0.118700
     29 H13        -2.8080    1.0690   -1.8440 h1        1 NCZ      0.082700
     30 H14        -5.4840    1.2540   -2.1010 ha        1 NCZ      0.148500
     31 H15        -6.2140   -0.9320   -0.7420 ha        1 NCZ      0.148500
     32 H16        -3.7860   -1.8580   -0.0410 h1        1 NCZ      0.082700
     33 H6         -5.0460   -0.2340    1.8990 ho        1 NCZ      0.407500
     34 H5         -3.8140    3.0680   -1.2030 ho        1 NCZ      0.407500
     35 H2         -1.5640   -2.4260    0.0260 ho        1 NCZ      0.445000
     36 H3          5.1940    1.5460   -0.1240 ha        1 NCZ      0.140000
     37 H171        5.0820    3.1900    1.4550 h1        1 NCZ      0.045367
     38 H172        4.7870    3.7580   -0.2670 h1        1 NCZ      0.045367
     39 H173        4.1430    4.7410    1.1470 h1        1 NCZ      0.045367
     40 H181        5.4960   -1.8990   -0.2700 hc        1 NCZ      0.048700
     41 H182        5.1400   -1.3790   -1.9730 hc        1 NCZ      0.048700
     42 H183        6.2040   -0.3620   -0.9160 hc        1 NCZ      0.048700
@<TRIPOS>BOND
     1    1    2 ar  
     2    1   21 ar  
     3    1   25 1   
     4    2    3 ar  
     5    2    7 ar  
     6    3    4 ar  
     7    3   19 ar  
     8    4    5 ar  
     9    4   26 1   
    10    5    6 ar  
    11    5   27 1   
    12    6    7 ar  
    13    6   18 1   
    14    7    8 1   
    15    8    9 2   
    16    8   10 1   
    17   10   11 1   
    18   11   12 1   
    19   11   15 1   
    20   11   28 1   
    21   12   13 1   
    22   12   17 1   
    23   12   29 1   
    24   13   14 2   
    25   13   30 1   
    26   14   15 1   
    27   14   31 1   
    28   15   16 1   
    29   15   32 1   
    30   16   33 1   
    31   17   34 1   
    32   18   35 1   
    33   19   20 ar  
    34   19   24 1   
    35   20   21 ar  
    36   20   36 1   
    37   21   22 1   
    38   22   23 1   
    39   23   37 1   
    40   23   38 1   
    41   23   39 1   
    42   24   40 1   
    43   24   41 1   
    44   24   42 1   
@<TRIPOS>SUBSTRUCTURE
     1 NCZ         1 TEMP              0 ****  ****    0 ROOT
