@<TRIPOS>MOLECULE
NCZ
   42    44     1     0     0
SMALL
bcc


@<TRIPOS>ATOM
      1 C1         -0.1420   -0.1000    0.2200 ca        1 NCZ     -0.174000
      2 C6          1.2610    0.0120    0.0730 ca        1 NCZ      0.065000
      3 C5          2.0850    0.0850    1.2300 ca        1 NCZ     -0.103000
      4 C7          3.4940    0.1890    1.0720 ca        1 NCZ     -0.043000
      5 C8          4.0700    0.2250   -0.1700 ca        1 NCZ     -0.225000
      6 C9          3.2470    0.1650   -1.3300 ca        1 NCZ      0.187100
      7 C10         1.8670    0.0600   -1.2200 ca        1 NCZ     -0.161600
      8 C11         1.0250   -0.0110   -2.4280 c         1 NCZ      0.673700
      9 O3          0.2030   -0.8700   -2.7450 o         1 NCZ     -0.518000
     10 O4          1.2280    1.0620   -3.2610 os        1 NCZ     -0.427900
     11 C12         0.5600    1.0860   -4.5240 c3        1 NCZ      0.145100
     12 C13        -0.0950    2.4910   -4.6700 c3        1 NCZ      0.151800
     13 C14         0.4760    3.0480   -5.9510 c2        1 NCZ     -0.192200
     14 C15         1.4170    2.2500   -6.4750 c2        1 NCZ     -0.192200
     15 C16         1.6430    1.0120   -5.6400 c3        1 NCZ      0.151800
     16 O6          1.4310   -0.1890   -6.3590 oh        1 NCZ     -0.581300
     17 O5         -1.4970    2.3020   -4.7130 oh        1 NCZ     -0.581300
     18 O2          3.7970    0.1900   -2.5880 oh        1 NCZ     -0.482100
     19 C4          1.4810    0.0500    2.5230 ca        1 NCZ     -0.018300
     20 C3          0.1110   -0.0540    2.6480 ca        1 NCZ     -0.198000
     21 C2         -0.7000   -0.1300    1.4890 ca        1 NCZ      0.147100
     22 O1         -2.0770   -0.2300    1.5250 os        1 NCZ     -0.318900
     23 C17        -2.6740   -0.3310    2.8120 c3        1 NCZ      0.112700
     24 C18         2.3270    0.1240    3.7390 c3        1 NCZ     -0.061800
     25 H1         -0.7890   -0.1800   -0.6690 ha        1 NCZ      0.175000
     26 H7          4.1290    0.2410    1.9710 ha        1 NCZ      0.138000
     27 H8          5.1600    0.3030   -0.2900 ha        1 NCZ      0.138000
     28 H12        -0.1960    0.2630   -4.6250 h1        1 NCZ      0.131700
     29 H13         0.1720    3.1460   -3.7950 h1        1 NCZ      0.067700
     30 H14         0.1170    4.0000   -6.3470 ha        1 NCZ      0.139000
     31 H15         1.9900    2.4110   -7.3900 ha        1 NCZ      0.139000
     32 H16         2.6730    1.0110   -5.1870 h1        1 NCZ      0.067700
     33 H6          2.0190   -0.1620   -7.1230 ho        1 NCZ      0.401000
     34 H5         -1.8830    3.1400   -4.9930 ho        1 NCZ      0.401000
     35 H2          4.7590    0.2570   -2.4940 ho        1 NCZ      0.423000
     36 H3         -0.3500   -0.0790    3.6460 ha        1 NCZ      0.140000
     37 H171       -2.4860    0.5960    3.4080 h1        1 NCZ      0.045033
     38 H172       -3.7650   -0.4350    2.5820 h1        1 NCZ      0.045033
     39 H173       -2.2980   -1.2310    3.3560 h1        1 NCZ      0.045033
     40 H181        1.7050    0.0880    4.6680 hc        1 NCZ      0.048700
     41 H182        2.9120    1.0780    3.7480 hc        1 NCZ      0.048700
     42 H183        3.0450   -0.7330    3.7670 hc        1 NCZ      0.048700
@<TRIPOS>BOND
     1    1    2 ar  
     2    1   21 ar  
     3    1   25 1   
     4    2    3 ar  
     5    2    7 ar  
     6    3    4 ar  
     7    3   19 ar  
     8    4    5 ar  
     9    4   26 1   
    10    5    6 ar  
    11    5   27 1   
    12    6    7 ar  
    13    6   18 1   
    14    7    8 1   
    15    8    9 2   
    16    8   10 1   
    17   10   11 1   
    18   11   12 1   
    19   11   15 1   
    20   11   28 1   
    21   12   13 1   
    22   12   17 1   
    23   12   29 1   
    24   13   14 2   
    25   13   30 1   
    26   14   15 1   
    27   14   31 1   
    28   15   16 1   
    29   15   32 1   
    30   16   33 1   
    31   17   34 1   
    32   18   35 1   
    33   19   20 ar  
    34   19   24 1   
    35   20   21 ar  
    36   20   36 1   
    37   21   22 1   
    38   22   23 1   
    39   23   37 1   
    40   23   38 1   
    41   23   39 1   
    42   24   40 1   
    43   24   41 1   
    44   24   42 1   
@<TRIPOS>SUBSTRUCTURE
     1 NCZ         1 TEMP              0 ****  ****    0 ROOT
