@<TRIPOS>MOLECULE
ND3
   28    28     1     0     0
SMALL
bcc


@<TRIPOS>ATOM
      1 OAC        -0.0920   -0.1660   -0.0210 o         1 ND3     -0.819300
      2 CAJ         1.1400    0.0810   -0.0320 c         1 ND3      0.906600
      3 OAE         1.8260    0.3530   -1.0580 o         1 ND3     -0.819300
      4 CAO         1.9310    0.0660    1.3260 c3        1 ND3      0.030800
      5 OAH         3.1440    0.7980    1.1900 oh        1 ND3     -0.639800
      6 CAI         1.1010    0.7640    2.4000 c3        1 ND3     -0.063400
      7 CAL         1.8000    0.7340    3.7500 c3        1 ND3      0.131100
      8 OAF         0.9590    1.3740    4.7010 oh        1 ND3     -0.606800
      9 CAM         2.0690   -0.7200    4.1780 c3        1 ND3     -0.004900
     10 OAG         2.7010   -0.7350    5.4480 oh        1 ND3     -0.617800
     11 CAK         2.8790   -1.4240    3.1050 c         1 ND3      0.573100
     12 OAD         3.9530   -1.9590    3.4080 o         1 ND3     -0.569100
     13 CAN         2.2910   -1.3990    1.7120 c3        1 ND3     -0.133000
     14 CAB         1.0540   -2.2880    1.6920 c3        1 ND3     -0.084100
     15 CAA         3.3070   -1.9360    0.7120 c3        1 ND3     -0.084100
     16 HAH         3.3350    0.8510    0.2380 ho        1 ND3      0.433000
     17 HAI1        0.0960    0.2750    2.4590 hc        1 ND3      0.071700
     18 HAI2        0.9450    1.8310    2.0960 hc        1 ND3      0.071700
     19 HAL         2.7790    1.2890    3.6940 h1        1 ND3      0.048700
     20 HAF         1.3430    1.1880    5.5670 ho        1 ND3      0.400000
     21 HAM         1.0910   -1.2580    4.3330 h1        1 ND3      0.094700
     22 HAG         3.6550   -0.7760    5.2990 ho        1 ND3      0.415000
     23 HAB1        0.6240   -2.2980    0.6590 hc        1 ND3      0.044533
     24 HAB2        1.3230   -3.3280    1.9930 hc        1 ND3      0.044533
     25 HAB3        0.2700   -1.8970    2.3820 hc        1 ND3      0.044533
     26 HAA1        3.4730   -3.0260    0.8750 hc        1 ND3      0.044533
     27 HAA2        2.9310   -1.7580   -0.3260 hc        1 ND3      0.044533
     28 HAA3        4.2800   -1.4020    0.8370 hc        1 ND3      0.044533
@<TRIPOS>BOND
     1    1    2 1   
     2    2    3 1   
     3    2    4 1   
     4    4    5 1   
     5    4    6 1   
     6    4   13 1   
     7    5   16 1   
     8    6    7 1   
     9    6   17 1   
    10    6   18 1   
    11    7    8 1   
    12    7    9 1   
    13    7   19 1   
    14    8   20 1   
    15    9   10 1   
    16    9   11 1   
    17    9   21 1   
    18   10   22 1   
    19   11   12 2   
    20   11   13 1   
    21   13   14 1   
    22   13   15 1   
    23   14   23 1   
    24   14   24 1   
    25   14   25 1   
    26   15   26 1   
    27   15   27 1   
    28   15   28 1   
@<TRIPOS>SUBSTRUCTURE
     1 ND3         1 TEMP              0 ****  ****    0 ROOT
