@<TRIPOS>MOLECULE
ND4
    5     4     1     0     0
SMALL
bcc


@<TRIPOS>ATOM
      1 N           0.0000    0.0000    0.0000 n4        1 ND4     -0.913200
      2 D1          1.0260    0.0000   -0.0070 hn        1 ND4      0.478800
      3 D2         -0.3350    0.0000    0.9690 hn        1 ND4      0.478800
      4 D3         -0.3450   -0.8370   -0.4810 hn        1 ND4      0.478800
      5 D4         -0.3450    0.8370   -0.4810 hn        1 ND4      0.478800
@<TRIPOS>BOND
     1    1    2 1   
     2    1    3 1   
     3    1    4 1   
     4    1    5 1   
@<TRIPOS>SUBSTRUCTURE
     1 ND4         1 TEMP              0 ****  ****    0 ROOT
