@<TRIPOS>MOLECULE
ND4
    5     4     1     0     0
SMALL
bcc


@<TRIPOS>ATOM
      1 N          11.6370    4.0760   19.3990 n4        1 ND4     -0.913200
      2 D1         11.6060    3.9280   20.4130 hn        1 ND4      0.478800
      3 D2         10.8250    3.6270   18.9630 hn        1 ND4      0.478800
      4 D3         11.6190    5.0820   19.2000 hn        1 ND4      0.478800
      5 D4         12.4980    3.6680   19.0200 hn        1 ND4      0.478800
@<TRIPOS>BOND
     1    1    2 1   
     2    1    3 1   
     3    1    4 1   
     4    1    5 1   
@<TRIPOS>SUBSTRUCTURE
     1 ND4         1 TEMP              0 ****  ****    0 ROOT
