@<TRIPOS>MOLECULE
NDB
   30    29     1     0     0
SMALL
bcc


@<TRIPOS>ATOM
      1 CAA        -0.2560   -0.1640   -0.0060 c3        1 NDB      0.075100
      2 CAB         1.5170    0.7800    1.3740 c3        1 NDB      0.075100
      3 OAC         1.8740    3.6060    1.6330 o         1 NDB     -0.745533
      4 OAD         3.3670    5.0840    0.4700 o         1 NDB     -0.745533
      5 OAE         0.6780   -2.7430    0.1500 oh        1 NDB     -0.616800
      6 OAF         3.5610    2.6980    0.3050 o         1 NDB     -0.745533
      7 CAG         1.9130   -2.1480    0.5080 c3        1 NDB      0.112400
      8 CAH         0.6600    2.6510   -0.8570 c3        1 NDB     -0.038400
      9 CAI         2.0780   -0.8800   -0.3290 c3        1 NDB      0.108800
     10 CAJ         1.3930    1.3230   -1.0470 c3        1 NDB      0.099800
     11 CAK         1.6250    3.8040   -0.8770 c3        1 NDB     -0.307600
     12 NAL         1.1670    0.2670    0.0170 n4        1 NDB     -0.584800
     13 SAM         2.7330    3.8420    0.5300 s6        1 NDB      1.434800
     14 HAA        -0.9140    0.7390    0.0850 hx        1 NDB      0.105033
     15 HAAA       -0.4670   -0.7020   -0.9670 hx        1 NDB      0.105033
     16 HAAB       -0.4500   -0.8640    0.8490 hx        1 NDB      0.105033
     17 HAB         1.3650   -0.0340    2.1260 hx        1 NDB      0.105033
     18 HABA        0.8750    1.6680    1.6400 hx        1 NDB      0.105033
     19 HABB        2.5900    1.1370    1.3740 hx        1 NDB      0.105033
     20 HOAE        0.6910   -3.6500    0.4800 ho        1 NDB      0.424000
     21 HAG         1.9270   -1.9370    1.6110 h1        1 NDB      0.057200
     22 HAGA        2.7710   -2.8300    0.2560 h1        1 NDB      0.057200
     23 HAH        -0.0860    2.7530   -1.6900 hc        1 NDB      0.053700
     24 HAHA        0.0810    2.6920    0.1050 hc        1 NDB      0.053700
     25 HAI         1.8940   -1.1470   -1.4090 hx        1 NDB      0.107700
     26 HAIA        3.1370   -0.5070   -0.2090 hx        1 NDB      0.107700
     27 HAJ         2.5130    1.5140   -1.0730 hx        1 NDB      0.107200
     28 HAJA        1.0740    0.8580   -2.0220 hx        1 NDB      0.107200
     29 HAK         2.2310    3.7890   -1.8140 h1        1 NDB      0.086200
     30 HAKA        1.0440    4.7580   -0.8880 h1        1 NDB      0.086200
@<TRIPOS>BOND
     1    1   12 1   
     2    1   14 1   
     3    1   15 1   
     4    1   16 1   
     5    2   12 1   
     6    2   17 1   
     7    2   18 1   
     8    2   19 1   
     9    3   13 1   
    10    4   13 1   
    11    5    7 1   
    12    5   20 1   
    13    6   13 1   
    14    7    9 1   
    15    7   21 1   
    16    7   22 1   
    17    8   10 1   
    18    8   11 1   
    19    8   23 1   
    20    8   24 1   
    21    9   12 1   
    22    9   25 1   
    23    9   26 1   
    24   10   12 1   
    25   10   27 1   
    26   10   28 1   
    27   11   13 1   
    28   11   29 1   
    29   11   30 1   
@<TRIPOS>SUBSTRUCTURE
     1 NDB         1 TEMP              0 ****  ****    0 ROOT
