@<TRIPOS>MOLECULE
NDB
   30    29     1     0     0
SMALL
bcc


@<TRIPOS>ATOM
      1 CAA        -1.3590   -0.9840    0.0270 c3        1 NDB      0.069100
      2 CAB         0.4880   -0.7040    1.4450 c3        1 NDB      0.069100
      3 OAC        -1.8210    4.3730   -0.4710 o         1 NDB     -0.741200
      4 OAD        -0.1980    4.3710    1.4290 o         1 NDB     -0.741200
      5 OAE         0.7870   -4.4280   -0.2930 oh        1 NDB     -0.593800
      6 OAF         0.1620    5.5850   -0.7260 o         1 NDB     -0.741200
      7 CAG         0.0070   -3.2780    0.0380 c3        1 NDB      0.120400
      8 CAH        -0.1050    1.6100   -0.0200 c3        1 NDB     -0.038400
      9 CAI         0.6980   -2.0290   -0.4890 c3        1 NDB      0.095800
     10 CAJ         0.4870    0.3410   -0.6800 c3        1 NDB      0.134800
     11 CAK         0.4390    2.8710   -0.7390 c3        1 NDB     -0.321600
     12 NAL         0.0760   -0.8480    0.0840 n4        1 NDB     -0.585800
     13 SAM        -0.3620    4.3230   -0.0760 s6        1 NDB      1.435800
     14 HAA        -1.6430   -1.7230    0.6130 hx        1 NDB      0.110367
     15 HAAA       -1.7800   -0.1440    0.3280 hx        1 NDB      0.110367
     16 HAAB       -1.6340   -1.1750   -0.9020 hx        1 NDB      0.110367
     17 HAB        -0.1670   -0.1590    1.9280 hx        1 NDB      0.110367
     18 HABA        0.5510   -1.5890    1.8640 hx        1 NDB      0.110367
     19 HABB        1.3650   -0.2640    1.4750 hx        1 NDB      0.110367
     20 HOAE        0.3530   -5.1700   -0.0310 ho        1 NDB      0.425000
     21 HAG        -0.8830   -3.3570   -0.3710 h1        1 NDB      0.046200
     22 HAGA       -0.0850   -3.2150    1.0080 h1        1 NDB      0.046200
     23 HAH         0.1550    1.6370    0.9320 hc        1 NDB      0.069200
     24 HAHA       -1.0690    1.5900   -0.0920 hc        1 NDB      0.069200
     25 HAI         0.6160   -1.9990   -1.4630 hx        1 NDB      0.098700
     26 HAIA        1.6430   -2.0520   -0.2420 hx        1 NDB      0.098700
     27 HAJ         0.1570    0.2680   -1.6020 hx        1 NDB      0.074700
     28 HAJA        1.4630    0.4020   -0.6870 hx        1 NDB      0.074700
     29 HAK         1.4070    2.9370   -0.5960 h1        1 NDB      0.086700
     30 HAKA        0.2550    2.8060   -1.6930 h1        1 NDB      0.086700
@<TRIPOS>BOND
     1    1   12 1   
     2    1   14 1   
     3    1   15 1   
     4    1   16 1   
     5    2   12 1   
     6    2   17 1   
     7    2   18 1   
     8    2   19 1   
     9    3   13 1   
    10    4   13 1   
    11    5    7 1   
    12    5   20 1   
    13    6   13 1   
    14    7    9 1   
    15    7   21 1   
    16    7   22 1   
    17    8   10 1   
    18    8   11 1   
    19    8   23 1   
    20    8   24 1   
    21    9   12 1   
    22    9   25 1   
    23    9   26 1   
    24   10   12 1   
    25   10   27 1   
    26   10   28 1   
    27   11   13 1   
    28   11   29 1   
    29   11   30 1   
@<TRIPOS>SUBSTRUCTURE
     1 NDB         1 TEMP              0 ****  ****    0 ROOT
