@<TRIPOS>MOLECULE
NDB
   30    29     1     0     0
SMALL
bcc


@<TRIPOS>ATOM
      1 CAA        -0.2680   -0.1440   -0.0250 c3        1 NDB      0.075100
      2 CAB         1.4840    0.8060    1.3770 c3        1 NDB      0.075100
      3 OAC         1.8700    3.6320    1.5880 o         1 NDB     -0.745533
      4 OAD         3.4090    5.0680    0.4320 o         1 NDB     -0.745533
      5 OAE         0.6280   -2.7300    0.2060 oh        1 NDB     -0.616800
      6 OAF         3.5770    2.6780    0.3200 o         1 NDB     -0.745533
      7 CAG         1.8630   -2.1430    0.5810 c3        1 NDB      0.112400
      8 CAH         0.7040    2.6420   -0.9110 c3        1 NDB     -0.038400
      9 CAI         2.0630   -0.8950   -0.2780 c3        1 NDB      0.108800
     10 CAJ         1.4240    1.3020   -1.0560 c3        1 NDB      0.099800
     11 CAK         1.6830    3.7820   -0.9310 c3        1 NDB     -0.307600
     12 NAL         1.1590    0.2710    0.0230 n4        1 NDB     -0.584800
     13 SAM         2.7580    3.8360    0.5020 s6        1 NDB      1.434800
     14 HAA        -0.4640   -0.6980   -0.9800 hx        1 NDB      0.105033
     15 HAAA       -0.9170    0.7690    0.0320 hx        1 NDB      0.105033
     16 HAAB       -0.4910   -0.8240    0.8390 hx        1 NDB      0.105033
     17 HAB         0.8470    1.7080    1.6110 hx        1 NDB      0.105033
     18 HABA        2.5610    1.1500    1.3960 hx        1 NDB      0.105033
     19 HABB        1.3030    0.0100    2.1420 hx        1 NDB      0.105033
     20 HOAE        0.6220   -3.6300    0.5550 ho        1 NDB      0.424000
     21 HAG         2.7170   -2.8410    0.3630 h1        1 NDB      0.057200
     22 HAGA        1.8540   -1.9090    1.6790 h1        1 NDB      0.057200
     23 HAH         0.1020    2.7090    0.0360 hc        1 NDB      0.053700
     24 HAHA       -0.0210    2.7360   -1.7630 hc        1 NDB      0.053700
     25 HAI         1.9010   -1.1820   -1.3570 hx        1 NDB      0.107700
     26 HAIA        3.1240   -0.5330   -0.1410 hx        1 NDB      0.107700
     27 HAJ         1.1220    0.8210   -2.0290 hx        1 NDB      0.107200
     28 HAJA        2.5460    1.4780   -1.0590 hx        1 NDB      0.107200
     29 HAK         1.1150    4.7430   -0.9750 h1        1 NDB      0.086200
     30 HAKA        2.3110    3.7410   -1.8530 h1        1 NDB      0.086200
@<TRIPOS>BOND
     1    1   12 1   
     2    1   14 1   
     3    1   15 1   
     4    1   16 1   
     5    2   12 1   
     6    2   17 1   
     7    2   18 1   
     8    2   19 1   
     9    3   13 1   
    10    4   13 1   
    11    5    7 1   
    12    5   20 1   
    13    6   13 1   
    14    7    9 1   
    15    7   21 1   
    16    7   22 1   
    17    8   10 1   
    18    8   11 1   
    19    8   23 1   
    20    8   24 1   
    21    9   12 1   
    22    9   25 1   
    23    9   26 1   
    24   10   12 1   
    25   10   27 1   
    26   10   28 1   
    27   11   13 1   
    28   11   29 1   
    29   11   30 1   
@<TRIPOS>SUBSTRUCTURE
     1 NDB         1 TEMP              0 ****  ****    0 ROOT
