@<TRIPOS>MOLECULE
NDB
   30    29     1     0     0
SMALL
bcc


@<TRIPOS>ATOM
      1 CAA        -0.2830   -0.1190    0.0190 c3        1 NDB      0.075100
      2 CAB         1.5160    0.8080    1.3760 c3        1 NDB      0.075100
      3 OAC         1.9490    3.6290    1.5710 o         1 NDB     -0.745533
      4 OAD         3.4790    5.0400    0.3730 o         1 NDB     -0.745533
      5 OAE         0.5820   -2.7180    0.2330 oh        1 NDB     -0.616800
      6 OAF         3.6090    2.6470    0.2620 o         1 NDB     -0.745533
      7 CAG         1.8340   -2.1480    0.5760 c3        1 NDB      0.112400
      8 CAH         0.7060    2.6510   -0.8960 c3        1 NDB     -0.038400
      9 CAI         2.0300   -0.9040   -0.2900 c3        1 NDB      0.108800
     10 CAJ         1.4030    1.3000   -1.0570 c3        1 NDB      0.099800
     11 CAK         1.7020    3.7760   -0.9430 c3        1 NDB     -0.307600
     12 NAL         1.1510    0.2750    0.0310 n4        1 NDB     -0.584800
     13 SAM         2.8120    3.8170    0.4620 s6        1 NDB      1.434800
     14 HAA        -0.9170    0.8030    0.0900 hx        1 NDB      0.105033
     15 HAAA       -0.5100   -0.6730   -0.9290 hx        1 NDB      0.105033
     16 HAAB       -0.4940   -0.7950    0.8900 hx        1 NDB      0.105033
     17 HAB         1.3440    0.0160    2.1460 hx        1 NDB      0.105033
     18 HABA        0.8990    1.7190    1.6230 hx        1 NDB      0.105033
     19 HABB        2.5990    1.1370    1.3670 hx        1 NDB      0.105033
     20 HOAE        0.5720   -3.6170    0.5840 ho        1 NDB      0.424000
     21 HAG         1.8550   -1.9120    1.6740 h1        1 NDB      0.057200
     22 HAGA        2.6720   -2.8580    0.3390 h1        1 NDB      0.057200
     23 HAH        -0.0380    2.7540   -1.7300 hc        1 NDB      0.053700
     24 HAHA        0.1290    2.7280    0.0650 hc        1 NDB      0.053700
     25 HAI         1.8370   -1.1900   -1.3630 hx        1 NDB      0.107700
     26 HAIA        3.0990   -0.5570   -0.1800 hx        1 NDB      0.107700
     27 HAJ         2.5280    1.4600   -1.0890 hx        1 NDB      0.107200
     28 HAJA        1.0700    0.8220   -2.0210 hx        1 NDB      0.107200
     29 HAK         2.3050    3.7240   -1.8810 h1        1 NDB      0.086200
     30 HAKA        1.1460    4.7460   -0.9750 h1        1 NDB      0.086200
@<TRIPOS>BOND
     1    1   12 1   
     2    1   14 1   
     3    1   15 1   
     4    1   16 1   
     5    2   12 1   
     6    2   17 1   
     7    2   18 1   
     8    2   19 1   
     9    3   13 1   
    10    4   13 1   
    11    5    7 1   
    12    5   20 1   
    13    6   13 1   
    14    7    9 1   
    15    7   21 1   
    16    7   22 1   
    17    8   10 1   
    18    8   11 1   
    19    8   23 1   
    20    8   24 1   
    21    9   12 1   
    22    9   25 1   
    23    9   26 1   
    24   10   12 1   
    25   10   27 1   
    26   10   28 1   
    27   11   13 1   
    28   11   29 1   
    29   11   30 1   
@<TRIPOS>SUBSTRUCTURE
     1 NDB         1 TEMP              0 ****  ****    0 ROOT
