@<TRIPOS>MOLECULE
NDB
   30    29     1     0     0
SMALL
bcc


@<TRIPOS>ATOM
      1 CAA        -2.3120    1.5220   -0.1110 c3        1 NDB      0.075100
      2 CAB        -1.2660   -0.1300    1.3440 c3        1 NDB      0.075100
      3 OAC         1.5760   -0.4180    1.4870 o         1 NDB     -0.745533
      4 OAD         3.0260   -1.9670    0.3610 o         1 NDB     -0.745533
      5 OAE        -4.8610    0.5580    0.2400 oh        1 NDB     -0.616800
      6 OAF         0.6400   -2.2130    0.3310 o         1 NDB     -0.745533
      7 CAG        -4.2230   -0.6370    0.6560 c3        1 NDB      0.112400
      8 CAH         0.4770    0.5950   -1.0340 c3        1 NDB     -0.038400
      9 CAI        -2.9950   -0.8410   -0.2290 c3        1 NDB      0.108800
     10 CAJ        -0.8440   -0.1730   -1.1040 c3        1 NDB      0.099800
     11 CAK         1.6460   -0.3500   -1.0420 c3        1 NDB     -0.307600
     12 NAL        -1.8510    0.1120   -0.0070 n4        1 NDB     -0.584800
     13 SAM         1.7760   -1.3510    0.4380 s6        1 NDB      1.434800
     14 HAA        -1.4190    2.2000   -0.1130 hx        1 NDB      0.105033
     15 HAAA       -2.9000    1.6540   -1.0570 hx        1 NDB      0.105033
     16 HAAB       -2.9740    1.7660    0.7620 hx        1 NDB      0.105033
     17 HAB        -2.0450    0.0630    2.1230 hx        1 NDB      0.105033
     18 HABA       -0.8870   -1.1940    1.4040 hx        1 NDB      0.105033
     19 HABB       -0.3790    0.5450    1.5190 hx        1 NDB      0.105033
     20 HOAE       -5.7500    0.5540    0.6160 ho        1 NDB      0.424000
     21 HAG        -3.9590   -0.5680    1.7450 h1        1 NDB      0.057200
     22 HAGA       -4.9000   -1.5220    0.5010 h1        1 NDB      0.057200
     23 HAH         0.5230    1.2800   -1.9220 hc        1 NDB      0.053700
     24 HAHA        0.5520    1.2430   -0.1190 hc        1 NDB      0.053700
     25 HAI        -2.5950   -1.8820   -0.0520 hx        1 NDB      0.107700
     26 HAIA       -3.3180   -0.7400   -1.3050 hx        1 NDB      0.107700
     27 HAJ        -1.3620    0.0660   -2.0750 hx        1 NDB      0.107200
     28 HAJA       -0.6310   -1.2880   -1.0590 hx        1 NDB      0.107200
     29 HAK         1.5990   -1.0220   -1.9310 h1        1 NDB      0.086200
     30 HAKA        2.5870    0.2460   -1.1420 h1        1 NDB      0.086200
@<TRIPOS>BOND
     1    1   12 1   
     2    1   14 1   
     3    1   15 1   
     4    1   16 1   
     5    2   12 1   
     6    2   17 1   
     7    2   18 1   
     8    2   19 1   
     9    3   13 1   
    10    4   13 1   
    11    5    7 1   
    12    5   20 1   
    13    6   13 1   
    14    7    9 1   
    15    7   21 1   
    16    7   22 1   
    17    8   10 1   
    18    8   11 1   
    19    8   23 1   
    20    8   24 1   
    21    9   12 1   
    22    9   25 1   
    23    9   26 1   
    24   10   12 1   
    25   10   27 1   
    26   10   28 1   
    27   11   13 1   
    28   11   29 1   
    29   11   30 1   
@<TRIPOS>SUBSTRUCTURE
     1 NDB         1 TEMP              0 ****  ****    0 ROOT
