@<TRIPOS>MOLECULE
NDD
   22    18     1     0     0
SMALL
bcc


@<TRIPOS>ATOM
      1 C1          0.4000    0.0650   -1.8030 c1        1 NDD     -0.052500
      2 C2          1.7860    0.1360   -1.7700 cg        1 NDD     -0.087200
      3 C3          2.4490    0.2240   -0.5500 c1        1 NDD     -0.079500
      4 C4          1.7250    0.2420    0.6350 c1        1 NDD     -0.079500
      5 C4A         0.3200    0.1710    0.6020 cg        1 NDD     -0.052000
      6 C5         -0.4150    0.1890    1.8020 c1        1 NDD     -0.080500
      7 C6         -1.8010    0.1180    1.7680 cg        1 NDD     -0.087200
      8 C7         -2.4640    0.0300    0.5480 c1        1 NDD     -0.052500
      9 C8         -1.7400    0.0120   -0.6360 c1        1 NDD     -0.080500
     10 C8A        -0.3350    0.0830   -0.6030 cg        1 NDD     -0.052000
     11 C2'         2.5570   -0.1900   -3.0300 c         1 NDD      0.854800
     12 O1'         2.8920   -1.3800   -3.2740 o         1 NDD     -0.853300
     13 O2'         2.8670    0.7280   -3.8340 o         1 NDD     -0.853300
     14 C6'        -2.5320   -0.2830    3.0310 c         1 NDD      0.854800
     15 O3'        -2.6790   -1.5010    3.3130 o         1 NDD     -0.853300
     16 O4'        -2.9840    0.6020    3.8050 o         1 NDD     -0.853300
     17 H1         -0.0650    0.0040   -2.6590 ha        1 NDD      0.079000
     18 H3          3.4240    0.2650   -0.5260 ha        1 NDD      0.062000
     19 H4          2.1910    0.3030    1.4900 ha        1 NDD      0.062000
     20 H5          0.0490    0.2530    2.6580 ha        1 NDD      0.061500
     21 H7         -3.4390   -0.0190    0.5250 ha        1 NDD      0.079000
     22 H8         -2.2060   -0.0510   -1.4920 ha        1 NDD      0.061500
@<TRIPOS>BOND
     1    1    2 3   
     2    1   17 1   
     3    2   11 1   
     4    3    4 3   
     5    3   18 1   
     6    4   19 1   
     7    5    6 3   
     8    5   10 1   
     9    6   20 1   
    10    7    8 3   
    11    7   14 1   
    12    8   21 1   
    13    9   10 3   
    14    9   22 1   
    15   11   12 1   
    16   11   13 1   
    17   14   15 1   
    18   14   16 1   
@<TRIPOS>SUBSTRUCTURE
     1 NDD         1 TEMP              0 ****  ****    0 ROOT
