@<TRIPOS>MOLECULE
NDD
   22    23     1     0     0
SMALL
bcc


@<TRIPOS>ATOM
      1 C1         -0.9360   -0.0010    1.6250 ca        1 NDD     -0.111000
      2 C2          0.0890   -0.0010    2.5440 ca        1 NDD     -0.138600
      3 C3          1.4320   -0.0000    2.0820 ca        1 NDD     -0.109000
      4 C4          1.7160    0.0000    0.7390 ca        1 NDD     -0.165000
      5 C4A         0.6720   -0.0000   -0.2270 ca        1 NDD     -0.052000
      6 C5          0.9360    0.0000   -1.6250 ca        1 NDD     -0.111000
      7 C6         -0.0890   -0.0000   -2.5440 ca        1 NDD     -0.138600
      8 C7         -1.4320   -0.0010   -2.0820 ca        1 NDD     -0.109000
      9 C8         -1.7160   -0.0010   -0.7390 ca        1 NDD     -0.165000
     10 C8A        -0.6720   -0.0010    0.2270 ca        1 NDD     -0.052000
     11 C2'        -0.1850   -0.0010    4.0340 c         1 NDD      0.906200
     12 O1'        -1.3870   -0.0010    4.4340 o         1 NDD     -0.853300
     13 O2'         0.8000   -0.0010    4.8320 o         1 NDD     -0.853300
     14 C6'         0.1850    0.0000   -4.0340 c         1 NDD      0.906200
     15 O3'         1.3870    0.0000   -4.4340 o         1 NDD     -0.853300
     16 O4'        -0.8000   -0.0000   -4.8320 o         1 NDD     -0.853300
     17 H1         -1.9780   -0.0010    1.9810 ha        1 NDD      0.136000
     18 H3          2.2280   -0.0000    2.8440 ha        1 NDD      0.137000
     19 H4          2.7560    0.0000    0.3820 ha        1 NDD      0.102000
     20 H5          1.9780    0.0000   -1.9810 ha        1 NDD      0.136000
     21 H7         -2.2280   -0.0010   -2.8440 ha        1 NDD      0.137000
     22 H8         -2.7560   -0.0010   -0.3820 ha        1 NDD      0.102000
@<TRIPOS>BOND
     1    1    2 ar  
     2    1   10 ar  
     3    1   17 1   
     4    2    3 ar  
     5    2   11 1   
     6    3    4 ar  
     7    3   18 1   
     8    4    5 ar  
     9    4   19 1   
    10    5    6 ar  
    11    5   10 ar  
    12    6    7 ar  
    13    6   20 1   
    14    7    8 ar  
    15    7   14 1   
    16    8    9 ar  
    17    8   21 1   
    18    9   10 ar  
    19    9   22 1   
    20   11   12 1   
    21   11   13 1   
    22   14   15 1   
    23   14   16 1   
@<TRIPOS>SUBSTRUCTURE
     1 NDD         1 TEMP              0 ****  ****    0 ROOT
