@<TRIPOS>MOLECULE
NDF
   26    26     1     0     0
SMALL
bcc


@<TRIPOS>ATOM
      1 CD1         1.0140   -0.5360    2.9890 ca        1 NDF     -0.125500
      2 CE1         0.1530   -0.7840    4.0560 ca        1 NDF     -0.145000
      3 CZ         -1.1680   -0.3440    4.0030 ca        1 NDF     -0.172000
      4 CE2        -1.6220    0.3350    2.8720 ca        1 NDF     -0.145000
      5 CD2        -0.7630    0.5890    1.8040 ca        1 NDF     -0.125500
      6 CG          0.5730    0.1600    1.8540 ca        1 NDF     -0.037300
      7 CB          1.5340    0.4690    0.7640 c3        1 NDF     -0.059100
      8 CA          1.2830   -0.2430   -0.5880 c3        1 NDF     -0.007300
      9 C           2.6290   -0.0740   -1.3750 c         1 NDF      0.908600
     10 O           3.4670   -1.0170   -1.2830 o         1 NDF     -0.854800
     11 OXT         2.8420    0.9970   -2.0100 o         1 NDF     -0.854800
     12 N           0.1500    0.2730   -1.3020 n         1 NDF     -0.550900
     13 C2         -1.1210   -0.2580   -1.2770 c         1 NDF      0.548100
     14 O2'        -1.3510   -1.4070   -0.8340 o         1 NDF     -0.685100
     15 C1         -2.2670    0.6730   -1.7610 c         1 NDF      0.872600
     16 O1         -2.7420    0.5110   -2.9140 o         1 NDF     -0.832800
     17 O2         -2.6520    1.5440   -0.9300 o         1 NDF     -0.832800
     18 HD1         2.0520   -0.8980    3.0310 ha        1 NDF      0.156000
     19 HE1         0.5150   -1.3340    4.9360 ha        1 NDF      0.107500
     20 HZ         -1.8500   -0.5420    4.8400 ha        1 NDF      0.094000
     21 HE2        -2.6690    0.6630    2.8090 ha        1 NDF      0.107500
     22 HD2        -1.1560    1.1000    0.9020 ha        1 NDF      0.156000
     23 HB3         2.5700    0.1760    1.0860 hc        1 NDF      0.046700
     24 HB2         1.5380    1.5790    0.5890 hc        1 NDF      0.046700
     25 HA          1.1170   -1.3410   -0.3930 h1        1 NDF      0.070700
     26 H           0.2950    1.1420   -1.7600 hn        1 NDF      0.313500
@<TRIPOS>BOND
     1    1    2 ar  
     2    1    6 ar  
     3    1   18 1   
     4    2    3 ar  
     5    2   19 1   
     6    3    4 ar  
     7    3   20 1   
     8    4    5 ar  
     9    4   21 1   
    10    5    6 ar  
    11    5   22 1   
    12    6    7 1   
    13    7    8 1   
    14    7   23 1   
    15    7   24 1   
    16    8    9 1   
    17    8   12 1   
    18    8   25 1   
    19    9   10 1   
    20    9   11 1   
    21   12   13 1   
    22   12   26 1   
    23   13   14 2   
    24   13   15 1   
    25   15   16 1   
    26   15   17 1   
@<TRIPOS>SUBSTRUCTURE
     1 NDF         1 TEMP              0 ****  ****    0 ROOT
