@<TRIPOS>MOLECULE
NDF
   26    23     1     0     0
SMALL
bcc


@<TRIPOS>ATOM
      1 CD1         1.8590    0.8510   -1.2160 c1        1 NDF     -0.067500
      2 CE1         3.2450    0.8700   -1.1710 c1        1 NDF     -0.097750
      3 CZ          3.8970    0.9860    0.0470 c1        1 NDF     -0.097750
      4 CE2         3.1640    1.0820    1.2190 c1        1 NDF     -0.097750
      5 CD2         1.7790    1.0630    1.1740 c1        1 NDF     -0.097750
      6 CG          1.1260    0.9480   -0.0430 c1        1 NDF      0.010900
      7 CB         -0.3860    0.9970   -0.0990 c3        1 NDF     -0.097300
      8 CA         -0.9320   -0.4090   -0.2290 c3        1 NDF     -0.008300
      9 C          -1.2470   -0.6950   -1.6800 c         1 NDF      0.908600
     10 O          -2.1360   -0.0310   -2.2740 o         1 NDF     -0.852800
     11 OXT        -0.6230   -1.6000   -2.2920 o         1 NDF     -0.852800
     12 N          -2.1160   -0.5300    0.5450 n         1 NDF     -0.541900
     13 C2         -2.6840   -1.8100    0.7760 c         1 NDF      0.545100
     14 O2'        -1.9990   -2.8070    0.6680 o         1 NDF     -0.693100
     15 C1         -4.1500   -1.9350    1.1300 c         1 NDF      0.875600
     16 O1         -4.4990   -2.0550    2.3330 o         1 NDF     -0.830300
     17 O2         -5.0220   -1.8980    0.2220 o         1 NDF     -0.830300
     18 HD1         1.4010    0.7480   -2.0710 ha        1 NDF      0.152500
     19 HE1         3.7610    0.8030   -1.9970 ha        1 NDF      0.047250
     20 HZ          4.8720    1.0160    0.0770 ha        1 NDF      0.047250
     21 HE2         3.6230    1.1730    2.0760 ha        1 NDF      0.047250
     22 HD2         1.2630    1.1310    2.0000 ha        1 NDF      0.047250
     23 HB3        -0.6670    1.5280   -0.8700 hc        1 NDF      0.055700
     24 HB2        -0.7300    1.4050    0.7210 hc        1 NDF      0.055700
     25 HA         -0.2660   -1.0480    0.0920 h1        1 NDF      0.056700
     26 H          -2.5320    0.2170    0.8620 hn        1 NDF      0.315500
@<TRIPOS>BOND
     1    1    6 3   
     2    1   18 1   
     3    2    3 3   
     4    2   19 1   
     5    3   20 1   
     6    4    5 3   
     7    4   21 1   
     8    5   22 1   
     9    6    7 1   
    10    7    8 1   
    11    7   23 1   
    12    7   24 1   
    13    8    9 1   
    14    8   12 1   
    15    8   25 1   
    16    9   10 1   
    17    9   11 1   
    18   12   13 1   
    19   12   26 1   
    20   13   14 2   
    21   13   15 1   
    22   15   16 1   
    23   15   17 1   
@<TRIPOS>SUBSTRUCTURE
     1 NDF         1 TEMP              0 ****  ****    0 ROOT
