@<TRIPOS>MOLECULE
NDG
   30    30     1     0     0
SMALL
bcc


@<TRIPOS>ATOM
      1 C1          0.0260    1.3070    0.3400 c3        1 NDG      0.319900
      2 C2         -0.8130    0.0720   -0.0970 c3        1 NDG      0.095700
      3 C3         -0.0340   -1.1980    0.3270 c3        1 NDG      0.130100
      4 C4          1.3670   -1.1510   -0.3120 c3        1 NDG      0.081100
      5 C5          2.1040    0.1140    0.1420 c3        1 NDG      0.071100
      6 C6          3.4360    0.2890   -0.5930 c3        1 NDG      0.135400
      7 C7         -3.2600    0.2300   -0.3960 c         1 NDG      0.665100
      8 C8         -4.6110    0.0630    0.2550 c3        1 NDG     -0.174100
      9 O           1.3430    1.2830   -0.1760 os        1 NDG     -0.457600
     10 O3         -0.7510   -2.3260   -0.1370 oh        1 NDG     -0.594800
     11 O4          2.0280   -2.3210    0.1450 oh        1 NDG     -0.600800
     12 O6          4.1240    1.4350   -0.1440 oh        1 NDG     -0.591800
     13 O7         -3.1430    0.4880   -1.6090 o         1 NDG     -0.605100
     14 N2         -2.1480    0.1290    0.4270 n         1 NDG     -0.554900
     15 O1L         0.1520    1.3120    1.7400 oh        1 NDG     -0.622800
     16 H1         -0.4120    2.2660   -0.0590 h2        1 NDG      0.088700
     17 H2         -0.8660    0.0990   -1.2290 h1        1 NDG      0.113700
     18 H3          0.0690   -1.2420    1.4470 h1        1 NDG      0.066700
     19 H4          1.2760   -1.1710   -1.4330 h1        1 NDG      0.062700
     20 H5          2.2710    0.0800    1.2540 h1        1 NDG      0.078700
     21 H6C1        4.1160   -0.5720   -0.3540 h1        1 NDG      0.051700
     22 H6C2        3.2590    0.3480   -1.7000 h1        1 NDG      0.051700
     23 H8C1       -4.7230   -0.9770    0.6460 hc        1 NDG      0.067700
     24 H8C2       -4.7390    0.7860    1.0950 hc        1 NDG      0.067700
     25 H8C3       -5.4020    0.2500   -0.5110 hc        1 NDG      0.067700
     26 HB         -0.1950   -3.0970    0.0430 ho        1 NDG      0.422000
     27 HC          2.8660   -2.3760   -0.3290 ho        1 NDG      0.411000
     28 H6          3.5450    2.1920   -0.2980 ho        1 NDG      0.415000
     29 HA         -2.2660   -0.1640    1.3680 hn        1 NDG      0.316500
     30 H1L         0.6590    2.0970    1.9840 ho        1 NDG      0.420000
@<TRIPOS>BOND
     1    1    2 1   
     2    1    9 1   
     3    1   15 1   
     4    1   16 1   
     5    2    3 1   
     6    2   14 1   
     7    2   17 1   
     8    3    4 1   
     9    3   10 1   
    10    3   18 1   
    11    4    5 1   
    12    4   11 1   
    13    4   19 1   
    14    5    6 1   
    15    5    9 1   
    16    5   20 1   
    17    6   12 1   
    18    6   21 1   
    19    6   22 1   
    20    7    8 1   
    21    7   13 2   
    22    7   14 1   
    23    8   23 1   
    24    8   24 1   
    25    8   25 1   
    26   10   26 1   
    27   11   27 1   
    28   12   28 1   
    29   14   29 1   
    30   15   30 1   
@<TRIPOS>SUBSTRUCTURE
     1 NDG         1 TEMP              0 ****  ****    0 ROOT
