@<TRIPOS>MOLECULE
NDH
   22    23     1     0     0
SMALL
bcc


@<TRIPOS>ATOM
      1 OH2         0.0040    0.1810   -0.1510 oh        1 NDH     -0.588800
      2 C1          1.4150    0.0830   -0.1150 c3        1 NDH      0.155400
      3 C2          1.9350    0.3190    1.3210 c3        1 NDH      0.143300
      4 OH1         1.1200   -0.3780    2.2540 oh        1 NDH     -0.593800
      5 C3          3.3760   -0.0570    1.4580 c2        1 NDH     -0.204200
      6 C4          3.9440   -0.9880    0.6800 ce        1 NDH     -0.088200
      7 C4A         3.1840   -1.6850   -0.3470 ca        1 NDH     -0.068800
      8 C8A         1.9110   -1.2040   -0.7070 ca        1 NDH     -0.112300
      9 C8          1.1560   -1.8870   -1.6630 ca        1 NDH     -0.111000
     10 C5          3.6880   -2.8370   -0.9620 ca        1 NDH     -0.114000
     11 C6          2.9280   -3.5110   -1.9160 ca        1 NDH     -0.129000
     12 C7          1.6610   -3.0400   -2.2620 ca        1 NDH     -0.124000
     13 HH2        -0.3440   -0.3540    0.5770 ho        1 NDH      0.415000
     14 H1          1.7680    0.9310   -0.7740 h1        1 NDH      0.090700
     15 H2          1.7740    1.4040    1.5860 h1        1 NDH      0.092700
     16 HH1         1.3390   -1.3150    2.1850 ho        1 NDH      0.406000
     17 H3          3.9290    0.4560    2.2570 ha        1 NDH      0.140000
     18 H4          5.0030   -1.2700    0.7930 ha        1 NDH      0.136000
     19 H8          0.1610   -1.5010   -1.9360 ha        1 NDH      0.152000
     20 H5          4.6870   -3.2090   -0.6880 ha        1 NDH      0.134000
     21 H6          3.3290   -4.4160   -2.3950 ha        1 NDH      0.134000
     22 H7          1.0610   -3.5750   -3.0120 ha        1 NDH      0.135000
@<TRIPOS>BOND
     1    1    2 1   
     2    1   13 1   
     3    2    3 1   
     4    2    8 1   
     5    2   14 1   
     6    3    4 1   
     7    3    5 1   
     8    3   15 1   
     9    4   16 1   
    10    5    6 2   
    11    5   17 1   
    12    6    7 1   
    13    6   18 1   
    14    7    8 ar  
    15    7   10 ar  
    16    8    9 ar  
    17    9   12 ar  
    18    9   19 1   
    19   10   11 ar  
    20   10   20 1   
    21   11   12 ar  
    22   11   21 1   
    23   12   22 1   
@<TRIPOS>SUBSTRUCTURE
     1 NDH         1 TEMP              0 ****  ****    0 ROOT
