@<TRIPOS>MOLECULE
NDH
   22    23     1     0     0
SMALL
bcc


@<TRIPOS>ATOM
      1 OH2         0.0510    0.2480   -0.1340 oh        1 NDH     -0.588800
      2 C1          1.4570    0.1030   -0.0880 c3        1 NDH      0.155400
      3 C2          1.9710    0.2930    1.3560 c3        1 NDH      0.143300
      4 OH1         1.1260   -0.3950    2.2680 oh        1 NDH     -0.593800
      5 C3          3.3980   -0.1320    1.4990 c2        1 NDH     -0.204200
      6 C4          3.9430   -1.0650    0.7070 ce        1 NDH     -0.088200
      7 C4A         3.1710   -1.7160   -0.3410 ca        1 NDH     -0.068800
      8 C8A         1.9170   -1.1870   -0.7020 ca        1 NDH     -0.112300
      9 C8          1.1500   -1.8260   -1.6780 ca        1 NDH     -0.111000
     10 C5          3.6440   -2.8710   -0.9750 ca        1 NDH     -0.114000
     11 C6          2.8710   -3.5010   -1.9490 ca        1 NDH     -0.129000
     12 C7          1.6230   -2.9820   -2.2960 ca        1 NDH     -0.124000
     13 HH2        -0.3210   -0.2900    0.5790 ho        1 NDH      0.415000
     14 H1          1.8440    0.9530   -0.7270 h1        1 NDH      0.090700
     15 H2          1.8430    1.3770    1.6420 h1        1 NDH      0.092700
     16 HH1         1.3150   -1.3380    2.1820 ho        1 NDH      0.406000
     17 H3          3.9600    0.3470    2.3130 ha        1 NDH      0.140000
     18 H4          4.9910   -1.3830    0.8230 ha        1 NDH      0.136000
     19 H8          0.1700   -1.4030   -1.9520 ha        1 NDH      0.152000
     20 H5          4.6270   -3.2810   -0.7000 ha        1 NDH      0.134000
     21 H6          3.2460   -4.4090   -2.4430 ha        1 NDH      0.134000
     22 H7          1.0130   -3.4830   -3.0620 ha        1 NDH      0.135000
@<TRIPOS>BOND
     1    1    2 1   
     2    1   13 1   
     3    2    3 1   
     4    2    8 1   
     5    2   14 1   
     6    3    4 1   
     7    3    5 1   
     8    3   15 1   
     9    4   16 1   
    10    5    6 2   
    11    5   17 1   
    12    6    7 1   
    13    6   18 1   
    14    7    8 ar  
    15    7   10 ar  
    16    8    9 ar  
    17    9   12 ar  
    18    9   19 1   
    19   10   11 ar  
    20   10   20 1   
    21   11   12 ar  
    22   11   21 1   
    23   12   22 1   
@<TRIPOS>SUBSTRUCTURE
     1 NDH         1 TEMP              0 ****  ****    0 ROOT
