@<TRIPOS>MOLECULE
NDH
   22    20     1     0     0
SMALL
bcc


@<TRIPOS>ATOM
      1 OH2        -2.1260    1.2150    0.3540 oh        1 NDH     -0.316000
      2 C1         -0.6990    1.2150    0.3540 c3        1 NDH      0.037000
      3 C2         -0.2360    1.2150    1.8300 c3        1 NDH      0.028000
      4 OH1        -1.3060    0.7060    2.6880 oh        1 NDH     -0.321000
      5 C3          1.0820    0.4660    2.0790 c2        1 NDH     -0.200000
      6 C4          1.7350   -0.3090    0.9560 c1        1 NDH     -0.100000
      7 C4A         0.9410   -0.6320   -0.3150 c1        1 NDH     -0.057000
      8 C8A        -0.2290    0.0490   -0.5900 c2        1 NDH     -0.105000
      9 C8         -0.9680   -0.2640   -1.7390 c1        1 NDH     -0.111000
     10 C5          1.3870   -1.6380   -1.1850 c1        1 NDH     -0.114000
     11 C6          0.6530   -1.9480   -2.3230 c1        1 NDH     -0.126500
     12 C7         -0.5250   -1.2610   -2.6000 c1        1 NDH     -0.126500
     13 HH2        -2.4220    2.0280    0.1540 ho        1 NDH      0.214000
     14 H1         -0.4020    2.0540   -0.0460 h1        1 NDH      0.130000
     15 H2         -0.1590    2.1300    2.1600 h1        1 NDH      0.132000
     16 HH1        -1.2440    1.0790    3.4910 ho        1 NDH      0.205000
     17 H3          1.5110    0.5110    2.9540 ha        1 NDH      0.140000
     18 H4          2.6670   -0.5860    1.0330 ha        1 NDH      0.136000
     19 H8         -1.7950    0.2170   -1.9340 ha        1 NDH      0.152000
     20 H5          2.2140   -2.1190   -0.9910 ha        1 NDH      0.134000
     21 H6          0.9640   -2.6480   -2.9280 ha        1 NDH      0.134500
     22 H7         -1.0410   -1.4790   -3.4000 ha        1 NDH      0.134500
@<TRIPOS>BOND
     1    1    2 1   
     2    1   13 1   
     3    2    3 1   
     4    2    8 1   
     5    2   14 1   
     6    3    4 1   
     7    3    5 1   
     8    3   15 1   
     9    4   16 1   
    10    5    6 1   
    11    5   17 1   
    12    6   18 1   
    13    7    8 1   
    14    7   10 1   
    15    8    9 1   
    16    9   19 1   
    17   10   20 1   
    18   11   12 1   
    19   11   21 1   
    20   12   22 1   
@<TRIPOS>SUBSTRUCTURE
     1 NDH         1 TEMP              0 ****  ****    0 ROOT
