@<TRIPOS>MOLECULE
NDH
   22    23     1     0     0
SMALL
bcc


@<TRIPOS>ATOM
      1 OH2        -1.4960   -2.0720   -0.3490 oh        1 NDH     -0.588800
      2 C1         -1.1240   -0.7650   -0.7450 c3        1 NDH      0.155400
      3 C2         -2.1770    0.2610   -0.2720 c3        1 NDH      0.143300
      4 OH1        -2.5690   -0.0240    1.0640 oh        1 NDH     -0.593800
      5 C3         -1.6870    1.6660   -0.4140 c2        1 NDH     -0.204200
      6 C4         -0.3820    1.9700   -0.3720 ce        1 NDH     -0.088200
      7 C4A         0.6300    0.9430   -0.1850 ca        1 NDH     -0.068800
      8 C8A         0.2680   -0.4120   -0.3070 ca        1 NDH     -0.112300
      9 C8          1.2220   -1.4080   -0.0920 ca        1 NDH     -0.111000
     10 C5          1.9510    1.2790    0.1360 ca        1 NDH     -0.114000
     11 C6          2.8960    0.2780    0.3480 ca        1 NDH     -0.129000
     12 C7          2.5310   -1.0640    0.2400 ca        1 NDH     -0.124000
     13 HH2        -1.7390   -2.0340    0.5870 ho        1 NDH      0.415000
     14 H1         -1.1370   -0.8050   -1.8750 h1        1 NDH      0.090700
     15 H2         -3.1240    0.1030   -0.8650 h1        1 NDH      0.092700
     16 HH1        -1.8460    0.2500    1.6420 ho        1 NDH      0.406000
     17 H3         -2.4640    2.4360   -0.5250 ha        1 NDH      0.140000
     18 H4         -0.0260    3.0090   -0.4660 ha        1 NDH      0.136000
     19 H8          0.9250   -2.4650   -0.1890 ha        1 NDH      0.152000
     20 H5          2.2380    2.3370    0.2240 ha        1 NDH      0.134000
     21 H6          3.9320    0.5480    0.6020 ha        1 NDH      0.134000
     22 H7          3.2780   -1.8530    0.4120 ha        1 NDH      0.135000
@<TRIPOS>BOND
     1    1    2 1   
     2    1   13 1   
     3    2    3 1   
     4    2    8 1   
     5    2   14 1   
     6    3    4 1   
     7    3    5 1   
     8    3   15 1   
     9    4   16 1   
    10    5    6 2   
    11    5   17 1   
    12    6    7 1   
    13    6   18 1   
    14    7    8 ar  
    15    7   10 ar  
    16    8    9 ar  
    17    9   12 ar  
    18    9   19 1   
    19   10   11 ar  
    20   10   20 1   
    21   11   12 ar  
    22   11   21 1   
    23   12   22 1   
@<TRIPOS>SUBSTRUCTURE
     1 NDH         1 TEMP              0 ****  ****    0 ROOT
