@<TRIPOS>MOLECULE
NDJ
   41    41     1     0     0
SMALL
bcc


@<TRIPOS>ATOM
      1 O2          0.0470    0.5740    0.7080 oh        1 NDJ     -0.590800
      2 C2          1.3650    0.1050    0.5090 c3        1 NDJ      0.132100
      3 C3          2.2820    0.5340    1.6670 c3        1 NDJ      0.065100
      4 O3          1.8720   -0.2390    2.7830 oh        1 NDJ     -0.597800
      5 C1          1.8330    0.7590   -0.8100 c3        1 NDJ      0.075000
      6 N5          3.2300    0.4950   -1.1050 n         1 NDJ     -0.412800
      7 C5          4.1490    0.8370   -0.0200 c3        1 NDJ      0.072700
      8 C6          5.6350    0.5450   -0.2970 c3        1 NDJ      0.110400
      9 O6          6.0540    1.1740   -1.4900 oh        1 NDJ     -0.615800
     10 C4          3.7540    0.2230    1.3450 c3        1 NDJ      0.099100
     11 O4          3.9970   -1.1680    1.2900 oh        1 NDJ     -0.593800
     12 C7          3.5710   -0.4310   -2.0770 c         1 NDJ      0.301400
     13 N8          3.1190    0.0210   -3.4860 ny        1 NDJ     -0.644800
     14 S7          4.3520   -1.7600   -2.0700 s         1 NDJ     -0.059400
     15 C9          3.7940    1.2820   -3.9150 c3        1 NDJ      0.097800
     16 C10         3.7080    1.5060   -5.4190 c3        1 NDJ     -0.109400
     17 C11         4.4050    2.8060   -5.7740 c3        1 NDJ     -0.075400
     18 C12         4.3440    3.0590   -7.2590 c3        1 NDJ     -0.100100
     19 H1         -0.2590    0.1920    1.5440 ho        1 NDJ      0.441000
     20 H2          1.3740   -1.0180    0.4310 h1        1 NDJ      0.072700
     21 H3          2.1550    1.6320    1.8690 h1        1 NDJ      0.071700
     22 H4          2.1820    0.2100    3.5790 ho        1 NDJ      0.427000
     23 H5          1.1610    0.3860   -1.6310 h1        1 NDJ      0.076200
     24 H6          1.6990    1.8760   -0.7260 h1        1 NDJ      0.076200
     25 H7          4.0320    1.9620    0.0860 h1        1 NDJ      0.079700
     26 H8          6.2310    0.8890    0.5890 h1        1 NDJ      0.090200
     27 H9          5.8080   -0.5590   -0.4480 h1        1 NDJ      0.090200
     28 H10         6.3380    2.0700   -1.2690 ho        1 NDJ      0.419000
     29 H11         4.4130    0.6790    2.1390 h1        1 NDJ      0.063700
     30 H12         3.5260   -1.5730    2.0360 ho        1 NDJ      0.438000
     31 H13         2.1050    0.1520   -3.5340 hn        1 NDJ      0.446800
     32 H14         4.8750    1.2240   -3.5870 hx        1 NDJ      0.111700
     33 H15         3.3110    2.1410   -3.3690 hx        1 NDJ      0.111700
     34 H16         2.6370    1.5560   -5.7500 hc        1 NDJ      0.063700
     35 H17         4.1980    0.6600   -5.9710 hc        1 NDJ      0.063700
     36 H18         5.4770    2.7600   -5.4430 hc        1 NDJ      0.052700
     37 H19         3.9200    3.6560   -5.2260 hc        1 NDJ      0.052700
     38 H20         4.8460    2.2360   -7.8240 hc        1 NDJ      0.050033
     39 H21         4.8610    4.0190   -7.5020 hc        1 NDJ      0.050033
     40 H22         3.2850    3.1320   -7.6070 hc        1 NDJ      0.050033
     41 H82         3.3820   -0.7430   -4.1300 hn        1 NDJ      0.446800
@<TRIPOS>BOND
     1    1    2 1   
     2    1   19 1   
     3    2    3 1   
     4    2    5 1   
     5    2   20 1   
     6    3    4 1   
     7    3   10 1   
     8    3   21 1   
     9    4   22 1   
    10    5    6 1   
    11    5   23 1   
    12    5   24 1   
    13    6    7 1   
    14    6   12 1   
    15    7    8 1   
    16    7   10 1   
    17    7   25 1   
    18    8    9 1   
    19    8   26 1   
    20    8   27 1   
    21    9   28 1   
    22   10   11 1   
    23   10   29 1   
    24   11   30 1   
    25   12   13 1   
    26   12   14 2   
    27   13   15 1   
    28   13   31 1   
    29   13   41 1   
    30   15   16 1   
    31   15   32 1   
    32   15   33 1   
    33   16   17 1   
    34   16   34 1   
    35   16   35 1   
    36   17   18 1   
    37   17   36 1   
    38   17   37 1   
    39   18   38 1   
    40   18   39 1   
    41   18   40 1   
@<TRIPOS>SUBSTRUCTURE
     1 NDJ         1 TEMP              0 ****  ****    0 ROOT
