@<TRIPOS>MOLECULE
NDJ
   41    41     1     0     0
SMALL
bcc


@<TRIPOS>ATOM
      1 O2          0.0570    0.6730    0.7320 oh        1 NDJ     -0.590800
      2 C2          1.3650    0.1770    0.5320 c3        1 NDJ      0.132100
      3 C3          2.2970    0.6060    1.6790 c3        1 NDJ      0.065100
      4 O3          1.8790   -0.1440    2.8080 oh        1 NDJ     -0.597800
      5 C1          1.8370    0.8040   -0.7990 c3        1 NDJ      0.075000
      6 N5          3.2270    0.5110   -1.0980 n         1 NDJ     -0.412800
      7 C5          4.1580    0.8500   -0.0240 c3        1 NDJ      0.072700
      8 C6          5.6380    0.5260   -0.3050 c3        1 NDJ      0.110400
      9 O6          6.0610    1.1310   -1.5090 oh        1 NDJ     -0.615800
     10 C4          3.7610    0.2620    1.3520 c3        1 NDJ      0.099100
     11 O4          3.9780   -1.1340    1.3160 oh        1 NDJ     -0.593800
     12 C7          3.5440   -0.4350   -2.0590 c         1 NDJ      0.301400
     13 N8          3.0920    0.0050   -3.4720 n4        1 NDJ     -0.644800
     14 S7          4.3010   -1.7790   -2.0380 s         1 NDJ     -0.059400
     15 C9          3.7870    1.2470   -3.9220 c3        1 NDJ      0.097800
     16 C10         3.6970    1.4530   -5.4290 c3        1 NDJ     -0.109400
     17 C11         4.4150    2.7340   -5.8060 c3        1 NDJ     -0.075400
     18 C12         4.3490    2.9680   -7.2930 c3        1 NDJ     -0.100100
     19 H1         -0.2500    0.3090    1.5760 ho        1 NDJ      0.441000
     20 H2          1.3530   -0.9470    0.4700 h1        1 NDJ      0.072700
     21 H3          2.1920    1.7090    1.8660 h1        1 NDJ      0.071700
     22 H4          2.2030    0.3110    3.5960 ho        1 NDJ      0.427000
     23 H5          1.7240    1.9250   -0.7290 h1        1 NDJ      0.076200
     24 H6          1.1530    0.4330   -1.6100 h1        1 NDJ      0.076200
     25 H7          4.0630    1.9790    0.0680 h1        1 NDJ      0.079700
     26 H8          5.7890   -0.5830   -0.4420 h1        1 NDJ      0.090200
     27 H9          6.2450    0.8720    0.5720 h1        1 NDJ      0.090200
     28 H10         6.3620    2.0250   -1.3020 ho        1 NDJ      0.419000
     29 H11         4.4330    0.7180    2.1360 h1        1 NDJ      0.063700
     30 H12         3.5040   -1.5190    2.0700 ho        1 NDJ      0.438000
     31 H13         3.3380   -0.7720   -4.1060 hn        1 NDJ      0.446800
     32 H14         4.8700    1.1740   -3.6000 hx        1 NDJ      0.111700
     33 H15         3.3240    2.1230   -3.3850 hx        1 NDJ      0.111700
     34 H16         4.1680    0.5900   -5.9720 hc        1 NDJ      0.063700
     35 H17         2.6240    1.5170   -5.7540 hc        1 NDJ      0.063700
     36 H18         3.9480    3.6000   -5.2660 hc        1 NDJ      0.052700
     37 H19         5.4870    2.6740   -5.4800 hc        1 NDJ      0.052700
     38 H20         3.2900    3.0550   -7.6360 hc        1 NDJ      0.050033
     39 H21         4.8820    3.9160   -7.5530 hc        1 NDJ      0.050033
     40 H22         4.8330    2.1290   -7.8500 hc        1 NDJ      0.050033
     41 H82         2.0800    0.1540   -3.5150 hn        1 NDJ      0.446800
@<TRIPOS>BOND
     1    1    2 1   
     2    1   19 1   
     3    2    3 1   
     4    2    5 1   
     5    2   20 1   
     6    3    4 1   
     7    3   10 1   
     8    3   21 1   
     9    4   22 1   
    10    5    6 1   
    11    5   23 1   
    12    5   24 1   
    13    6    7 1   
    14    6   12 1   
    15    7    8 1   
    16    7   10 1   
    17    7   25 1   
    18    8    9 1   
    19    8   26 1   
    20    8   27 1   
    21    9   28 1   
    22   10   11 1   
    23   10   29 1   
    24   11   30 1   
    25   12   13 1   
    26   12   14 2   
    27   13   15 1   
    28   13   31 1   
    29   13   41 1   
    30   15   16 1   
    31   15   32 1   
    32   15   33 1   
    33   16   17 1   
    34   16   34 1   
    35   16   35 1   
    36   17   18 1   
    37   17   36 1   
    38   17   37 1   
    39   18   38 1   
    40   18   39 1   
    41   18   40 1   
@<TRIPOS>SUBSTRUCTURE
     1 NDJ         1 TEMP              0 ****  ****    0 ROOT
