@<TRIPOS>MOLECULE
NDL
  100    95     1     0     0
SMALL
bcc


@<TRIPOS>ATOM
      1 OXT        -3.8380   -4.3880    1.6300 o         1 NDL     -0.581500
      2 O2          4.2900    2.7440   -4.4500 o         1 NDL     -0.364000
      3 C1          3.6600    3.7810   -4.5020 c1        1 NDL      0.342000
      4 C7          3.6720    4.6190   -5.7890 c1        1 NDL     -0.118000
      5 C6          4.5280    4.2740   -6.8380 c2        1 NDL     -0.079000
      6 C5          4.5260    5.0230   -8.0110 c1        1 NDL     -0.142000
      7 C4          3.6710    6.1170   -8.1390 c1        1 NDL     -0.125000
      8 C3          2.8180    6.4600   -7.0930 c1        1 NDL     -0.125000
      9 C8          2.8200    5.7090   -5.9160 c1        1 NDL     -0.101000
     10 N9          2.7710    4.1420   -3.4140 n3        1 NDL     -0.347000
     11 C10         2.6310    3.2870   -2.3140 c3        1 NDL      0.002000
     12 C12         3.1970    3.9740   -1.0540 c3        1 NDL     -0.165000
     13 C11         4.7620    4.0490   -1.1520 c3        1 NDL     -0.156000
     14 C14         5.3420    4.5580    0.1970 c3        1 NDL     -0.161000
     15 C13         6.7990    4.8740    0.0290 c3        1 NDL     -0.209000
     16 C15         1.1510    2.9690   -2.1010 c2        1 NDL      0.276000
     17 O16         0.3330    3.8660   -2.0970 o         1 NDL     -0.386000
     18 N17         0.7100    1.5860   -2.0540 n         1 NDL     -0.347000
     19 C18        -0.6110    1.2710   -1.6010 c3        1 NDL      0.000000
     20 C19        -1.5190    1.0170   -2.8070 c3        1 NDL     -0.165000
     21 C20        -2.9950    1.4430   -2.4530 c3        1 NDL     -0.178000
     22 C21        -3.9830    0.8340   -3.5070 c3        1 NDL     -0.151000
     23 C22        -5.4240    1.2040   -3.1340 c3        1 NDL     -0.086000
     24 N23        -6.3330    0.5790   -4.0600 n3        1 NDL     -0.348000
     25 C24        -0.5640    0.0350   -0.7370 c2        1 NDL      0.275000
     26 O25        -0.4780   -1.0730   -1.2570 o         1 NDL     -0.385000
     27 N26        -0.7110    0.1510    0.7020 n         1 NDL     -0.327000
     28 C27        -0.1770   -0.8600    1.5600 c3        1 NDL     -0.021000
     29 C28        -0.0080   -0.2920    2.9730 c3        1 NDL     -0.175000
     30 C29        -1.3750    0.2920    3.4710 c3        1 NDL     -0.176000
     31 C30        -1.2110    0.8270    4.9410 c3        1 NDL     -0.040000
     32 N31        -2.5360    1.0680    5.5290 n3        1 NDL     -0.334000
     33 C32        -2.6650    1.2810    6.9850 c2        1 NDL      0.136000
     34 N33        -1.9280    2.3340    7.6250 n3        1 NDL     -0.321000
     35 N34        -3.4530    0.5080    7.6940 n1        1 NDL     -0.351000
     36 C35        -1.1230   -2.0410    1.5960 c2        1 NDL      0.268000
     37 O36        -2.2200   -1.9530    1.0950 o         1 NDL     -0.402000
     38 N37        -0.7020   -3.2980    2.2160 n         1 NDL     -0.298000
     39 C38        -1.4640   -4.5030    2.0020 c3        1 NDL     -0.071000
     40 C46        -2.8880   -4.2890    2.4600 c2        1 NDL      0.308000
     41 O47        -3.1250   -3.9350    3.6560 o         1 NDL     -0.581500
     42 C39        -0.8420   -5.6280    2.7870 c3        1 NDL     -0.145000
     43 C40        -1.3010   -6.9860    2.2010 c3        1 NDL     -0.196000
     44 C41        -0.8690   -8.1410    3.1560 c3        1 NDL     -0.049000
     45 N42        -1.3010   -9.4080    2.6040 n3        1 NDL     -0.321000
     46 C43        -1.2240  -10.6060    3.4020 c2        1 NDL      0.172000
     47 N44        -0.0610  -11.1700    3.6300 n1        1 NDL     -0.390000
     48 N45        -2.4030  -11.1770    3.9370 n3        1 NDL     -0.337000
     49 H6          5.2010    3.5730   -6.7080 ha        1 NDL      0.152000
     50 H5          5.1170    4.7720   -8.7530 ha        1 NDL      0.134000
     51 H4          3.6700    6.6410   -8.9580 ha        1 NDL      0.133500
     52 H3          2.2150    7.2320   -7.1830 ha        1 NDL      0.133500
     53 H8          2.1580    5.8840   -5.2330 ha        1 NDL      0.148000
     54 HN9         2.3800    4.9660   -3.4020 hn        1 NDL      0.234000
     55 H10         3.1180    2.4650   -2.4800 h1        1 NDL      0.144000
     56 H121        2.8290    4.8830   -0.9830 hc        1 NDL      0.098000
     57 H122        2.9440    3.4570   -0.2610 hc        1 NDL      0.098000
     58 H111        5.0160    4.6670   -1.8700 hc        1 NDL      0.086500
     59 H112        5.1180    3.1670   -1.3450 hc        1 NDL      0.086500
     60 H141        5.2370    3.8700    0.8750 hc        1 NDL      0.081500
     61 H142        4.8680    5.3590    0.4730 hc        1 NDL      0.081500
     62 H131        7.1470    5.2690    0.8600 hc        1 NDL      0.070667
     63 H132        7.2910    4.0490   -0.1710 hc        1 NDL      0.070667
     64 H133        6.9120    5.5060   -0.7050 hc        1 NDL      0.070667
     65 HN17        1.2900    0.9150   -2.2630 hn        1 NDL      0.240000
     66 H18        -0.9630    2.0180   -1.0820 h1        1 NDL      0.140000
     67 H191       -1.5000    0.0640   -3.0370 hc        1 NDL      0.096000
     68 H192       -1.2020    1.5430   -3.5710 hc        1 NDL      0.096000
     69 H201       -3.0650    2.4220   -2.4660 hc        1 NDL      0.100500
     70 H202       -3.2270    1.1100   -1.5560 hc        1 NDL      0.100500
     71 H211       -3.7740    1.1910   -4.3940 hc        1 NDL      0.080000
     72 H212       -3.8880   -0.1440   -3.5170 hc        1 NDL      0.080000
     73 H221       -5.5330    2.1860   -3.1760 h1        1 NDL      0.078000
     74 H222       -5.6160    0.8940   -2.2270 h1        1 NDL      0.078000
     75 H231       -6.9870    0.1280   -3.5920 hn        1 NDL      0.137500
     76 H232       -6.7180    1.2160   -4.5820 hn        1 NDL      0.137500
     77 HN26       -1.0930    0.8900    1.0590 hn        1 NDL      0.231000
     78 H27         0.6950   -1.1510    1.2190 h1        1 NDL      0.140000
     79 H281        0.2820   -1.0060    3.5800 hc        1 NDL      0.111500
     80 H282        0.6640    0.4160    2.9590 hc        1 NDL      0.111500
     81 H291       -2.0500   -0.4050    3.4530 hc        1 NDL      0.090000
     82 H292       -1.6490    1.0260    2.8860 hc        1 NDL      0.090000
     83 H301       -0.7330    0.1630    5.4780 h1        1 NDL      0.068000
     84 H302       -0.7040    1.6620    4.9280 h1        1 NDL      0.068000
     85 HN31       -3.2750    1.1660    4.9800 hn        1 NDL      0.235000
     86 H331       -1.3720    2.8620    7.1360 hn        1 NDL      0.166500
     87 H332       -2.0520    2.5040    8.5300 hn        1 NDL      0.166500
     88 HN34       -3.9160   -0.1530    7.2930 DU        1 NDL      0.162000
     89 HN37        0.0760   -3.3270    2.7190 hn        1 NDL      0.217000
     90 H38        -1.4580   -4.7270    1.0530 h1        1 NDL      0.123000
     91 H391       -1.1200   -5.5660    3.7190 hc        1 NDL      0.080500
     92 H392        0.1250   -5.5630    2.7330 hc        1 NDL      0.080500
     93 H401       -2.2750   -6.9890    2.1080 hc        1 NDL      0.095000
     94 H402       -0.8870   -7.1180    1.3210 hc        1 NDL      0.095000
     95 H411        0.1080   -8.1410    3.2480 h1        1 NDL      0.074000
     96 H412       -1.2780   -8.0110    4.0290 h1        1 NDL      0.074000
     97 HN42       -1.6100   -9.4510    1.7440 hn        1 NDL      0.220000
     98 HN44        0.6930  -10.8050    3.2880 DU        1 NDL      0.162000
     99 H451       -2.3610  -11.6880    4.7020 hn        1 NDL      0.213500
    100 H452       -3.2030  -11.0160    3.5430 hn        1 NDL      0.213500
@<TRIPOS>BOND
     1    1   40 1   
     2    2    3 1   
     3    3   10 1   
     4    4    5 1   
     5    4    9 1   
     6    5    6 1   
     7    5   49 1   
     8    6   50 1   
     9    7    8 1   
    10    7   51 1   
    11    8   52 1   
    12    9   53 1   
    13   10   11 1   
    14   10   54 1   
    15   11   12 1   
    16   11   16 1   
    17   11   55 1   
    18   12   13 1   
    19   12   56 1   
    20   12   57 1   
    21   13   14 1   
    22   13   58 1   
    23   13   59 1   
    24   14   15 1   
    25   14   60 1   
    26   14   61 1   
    27   15   62 1   
    28   15   63 1   
    29   15   64 1   
    30   16   17 1   
    31   16   18 1   
    32   18   19 1   
    33   18   65 1   
    34   19   20 1   
    35   19   25 1   
    36   19   66 1   
    37   20   21 1   
    38   20   67 1   
    39   20   68 1   
    40   21   22 1   
    41   21   69 1   
    42   21   70 1   
    43   22   23 1   
    44   22   71 1   
    45   22   72 1   
    46   23   24 1   
    47   23   73 1   
    48   23   74 1   
    49   24   75 1   
    50   24   76 1   
    51   25   26 1   
    52   25   27 1   
    53   27   28 1   
    54   27   77 1   
    55   28   29 1   
    56   28   36 1   
    57   28   78 1   
    58   29   30 1   
    59   29   79 1   
    60   29   80 1   
    61   30   31 1   
    62   30   81 1   
    63   30   82 1   
    64   31   32 1   
    65   31   83 1   
    66   31   84 1   
    67   32   33 1   
    68   32   85 1   
    69   33   34 1   
    70   33   35 1   
    71   34   86 1   
    72   34   87 1   
    73   36   37 1   
    74   36   38 1   
    75   38   39 1   
    76   38   89 1   
    77   39   40 1   
    78   39   42 1   
    79   39   90 1   
    80   40   41 1   
    81   42   43 1   
    82   42   91 1   
    83   42   92 1   
    84   43   44 1   
    85   43   93 1   
    86   43   94 1   
    87   44   45 1   
    88   44   95 1   
    89   44   96 1   
    90   45   46 1   
    91   45   97 1   
    92   46   47 1   
    93   46   48 1   
    94   48   99 1   
    95   48  100 1   
@<TRIPOS>SUBSTRUCTURE
     1 NDL         1 TEMP              0 ****  ****    0 ROOT
