@<TRIPOS>MOLECULE
NDL
  100   100     1     0     0
SMALL
bcc


@<TRIPOS>ATOM
      1 OXT        -7.2370    1.3390   -2.4770 o         1 NDL     -0.829800
      2 O2          6.6110   -1.4360    2.2370 o         1 NDL     -0.603100
      3 C7          8.0200   -1.1340    0.3260 ca        1 NDL     -0.138600
      4 C6          7.9640   -1.2790   -1.0630 ca        1 NDL     -0.090000
      5 C5          9.1330   -1.5360   -1.7800 ca        1 NDL     -0.140500
      6 C4         10.3540   -1.6480   -1.1140 ca        1 NDL     -0.113000
      7 C3         10.4070   -1.5110    0.2740 ca        1 NDL     -0.140500
      8 C8          9.2420   -1.2600    0.9960 ca        1 NDL     -0.090000
      9 N9          5.9020    0.0610    0.6410 n         1 NDL     -0.537900
     10 C10         4.5720    0.2050    1.1810 c3        1 NDL      0.027700
     11 C12         4.1920    1.6690    1.4640 c3        1 NDL     -0.088400
     12 C11         5.0290    2.2630    2.5750 c3        1 NDL     -0.076400
     13 C14         4.5460    3.6550    2.9290 c3        1 NDL     -0.083400
     14 C13         5.3800    4.2630    4.0270 c3        1 NDL     -0.091100
     15 O16         3.7280   -0.4050   -1.0320 o         1 NDL     -0.622100
     16 N17         2.3260   -0.7970    0.7520 n         1 NDL     -0.527900
     17 C18         1.1540   -1.0520   -0.0540 c3        1 NDL      0.020700
     18 C19         0.4710   -2.3880    0.2850 c3        1 NDL     -0.088400
     19 C20         1.3170   -3.5710   -0.1330 c3        1 NDL     -0.076400
     20 C21         0.5800   -4.8700    0.1190 c3        1 NDL     -0.087400
     21 C22         1.4070   -6.0500   -0.3890 c3        1 NDL      0.157800
     22 N23         0.8050   -7.3370   -0.1270 n3        1 NDL     -0.915800
     23 O25         0.0390    0.7180    1.2050 o         1 NDL     -0.627100
     24 N26        -0.7620    0.2900   -0.9160 n         1 NDL     -0.519900
     25 C27        -1.9960    1.0340   -0.7640 c3        1 NDL      0.005700
     26 C28        -2.1810    2.1080   -1.8490 c3        1 NDL     -0.108400
     27 C29        -1.1540    3.2120   -1.7340 c3        1 NDL     -0.081400
     28 C30        -1.6290    4.4230   -2.5420 c3        1 NDL      0.164800
     29 N31        -0.5930    5.4180   -2.7440 nh        1 NDL     -0.806200
     30 C32        -0.9990    6.7730   -2.9750 c2        1 NDL      0.760100
     31 N33        -2.2130    6.9850   -3.7020 nh        1 NDL     -0.937800
     32 N34        -0.2330    7.7410   -2.5180 n2        1 NDL     -0.899100
     33 O36        -3.1410   -1.0250   -1.3870 o         1 NDL     -0.638100
     34 N37        -4.4100    0.5830   -0.2940 n         1 NDL     -0.479900
     35 C38        -5.6850    0.3000   -0.9450 c3        1 NDL     -0.073300
     36 C46        -6.1650    1.5030   -1.8440 c         1 NDL      0.904600
     37 O47        -5.4450    2.5430   -1.8810 o         1 NDL     -0.829800
     38 C39        -6.7960   -0.0090    0.0600 c3        1 NDL     -0.065400
     39 C40        -6.5910   -1.3350    0.7580 c3        1 NDL     -0.088400
     40 C41        -7.8140   -1.6530    1.6210 c3        1 NDL      0.168800
     41 N42        -7.7330   -2.9450    2.2780 nh        1 NDL     -0.801200
     42 C43        -8.5390   -3.1380    3.4480 c2        1 NDL      0.751100
     43 N44        -8.0390   -3.8120    4.4600 n2        1 NDL     -0.891100
     44 N45        -9.8620   -2.5820    3.4250 nh        1 NDL     -0.931800
     45 H6          7.0040   -1.2080   -1.5990 ha        1 NDL      0.150000
     46 H5          9.0890   -1.6530   -2.8720 ha        1 NDL      0.135000
     47 H4         11.2740   -1.8470   -1.6820 ha        1 NDL      0.131000
     48 H3         11.3680   -1.6060    0.8000 ha        1 NDL      0.135000
     49 H8          9.2680   -1.1680    2.0940 ha        1 NDL      0.150000
     50 HN9         6.0110    0.3650   -0.3020 hn        1 NDL      0.320500
     51 H10         4.5270   -0.3760    2.1530 h1        1 NDL      0.105700
     52 H121        3.1080    1.6970    1.7580 hc        1 NDL      0.061200
     53 H122        4.3030    2.2820    0.5320 hc        1 NDL      0.061200
     54 H111        6.1050    2.3100    2.2620 hc        1 NDL      0.046200
     55 H112        4.9770    1.6050    3.4820 hc        1 NDL      0.046200
     56 H141        3.4730    3.6080    3.2530 hc        1 NDL      0.043700
     57 H142        4.5880    4.3080    2.0180 hc        1 NDL      0.043700
     58 H131        5.0080    5.2860    4.2740 hc        1 NDL      0.031033
     59 H132        5.3330    3.6370    4.9510 hc        1 NDL      0.031033
     60 H133        6.4490    4.3430    3.7130 hc        1 NDL      0.031033
     61 HN17        2.1360   -0.5600    1.7030 hn        1 NDL      0.321500
     62 H18         1.4800   -1.0750   -1.1390 h1        1 NDL      0.102700
     63 H191        0.2530   -2.4420    1.3830 hc        1 NDL      0.064700
     64 H192       -0.5130   -2.4230   -0.2560 hc        1 NDL      0.064700
     65 H201        1.5720   -3.4850   -1.2230 hc        1 NDL      0.046700
     66 H202        2.2840   -3.5720    0.4350 hc        1 NDL      0.046700
     67 H211        0.3810   -4.9850    1.2160 hc        1 NDL      0.050700
     68 H212       -0.4140   -4.8480   -0.4010 hc        1 NDL      0.050700
     69 H221        1.6070   -5.8860   -1.4900 h1        1 NDL      0.024700
     70 H222        2.4090   -6.0430    0.1300 h1        1 NDL      0.024700
     71 H231       -0.1800   -7.3160   -0.3010 hn        1 NDL      0.345300
     72 H232        1.2240   -8.0380   -0.7050 hn        1 NDL      0.345300
     73 HN26       -0.7830   -0.3900   -1.6470 hn        1 NDL      0.317500
     74 H27        -1.9760    1.5360    0.2500 h1        1 NDL      0.097700
     75 H281       -2.1190    1.6370   -2.8650 hc        1 NDL      0.090700
     76 H282       -3.2240    2.5350   -1.7530 hc        1 NDL      0.090700
     77 H291       -1.0190    3.5060   -0.6600 hc        1 NDL      0.045200
     78 H292       -0.1620    2.8500   -2.1100 hc        1 NDL      0.045200
     79 H301       -1.9530    4.0670   -3.5630 h1        1 NDL      0.055200
     80 H302       -2.5390    4.8470   -2.0260 h1        1 NDL      0.055200
     81 HN31        0.1400    5.3550   -2.0620 hn        1 NDL      0.408800
     82 H331       -2.1510    7.7140   -4.3770 hn        1 NDL      0.394300
     83 H332       -2.6580    6.1690   -4.0600 hn        1 NDL      0.394300
     84 HN34       -0.5010    8.6590   -2.7980 hn        1 NDL      0.380400
     85 HN37       -4.3630    1.5530   -0.0310 hn        1 NDL      0.296500
     86 H38        -5.5550   -0.5910   -1.6240 h1        1 NDL      0.074700
     87 H391       -6.8740    0.8120    0.8180 hc        1 NDL      0.055200
     88 H392       -7.7560   -0.0230   -0.5260 hc        1 NDL      0.055200
     89 H401       -6.4370   -2.1430   -0.0040 hc        1 NDL      0.050200
     90 H402       -5.6710   -1.2950    1.3970 hc        1 NDL      0.050200
     91 H411       -7.9520   -0.8130    2.3620 h1        1 NDL      0.039200
     92 H412       -8.7240   -1.6710    0.9540 h1        1 NDL      0.039200
     93 HN42       -6.7840   -3.2400    2.4200 hn        1 NDL      0.411800
     94 HN44       -8.6810   -4.0120    5.1950 hn        1 NDL      0.379400
     95 H451      -10.5450   -3.1870    3.8250 hn        1 NDL      0.386300
     96 H452      -10.1560   -2.2220    2.5430 hn        1 NDL      0.386300
     97 C35        -3.2430    0.1060   -0.8640 c         1 NDL      0.623100
     98 C24         0.0810    0.0560    0.1460 c         1 NDL      0.627100
     99 C15         3.5040   -0.3440    0.1950 c         1 NDL      0.629100
    100 C1          6.7920   -0.8800    1.1350 c         1 NDL      0.668700
@<TRIPOS>BOND
     1    1   36 1   
     2    2  100 2   
     3    3    4 ar  
     4    3    8 ar  
     5    3  100 1   
     6    4    5 ar  
     7    4   45 1   
     8    5    6 ar  
     9    5   46 1   
    10    6    7 ar  
    11    6   47 1   
    12    7    8 ar  
    13    7   48 1   
    14    8   49 1   
    15    9   10 1   
    16    9   50 1   
    17    9  100 1   
    18   10   11 1   
    19   10   51 1   
    20   10   99 1   
    21   11   12 1   
    22   11   52 1   
    23   11   53 1   
    24   12   13 1   
    25   12   54 1   
    26   12   55 1   
    27   13   14 1   
    28   13   56 1   
    29   13   57 1   
    30   14   58 1   
    31   14   59 1   
    32   14   60 1   
    33   15   99 2   
    34   16   17 1   
    35   16   61 1   
    36   16   99 1   
    37   17   18 1   
    38   17   62 1   
    39   17   98 1   
    40   18   19 1   
    41   18   63 1   
    42   18   64 1   
    43   19   20 1   
    44   19   65 1   
    45   19   66 1   
    46   20   21 1   
    47   20   67 1   
    48   20   68 1   
    49   21   22 1   
    50   21   69 1   
    51   21   70 1   
    52   22   71 1   
    53   22   72 1   
    54   23   98 2   
    55   24   25 1   
    56   24   73 1   
    57   24   98 1   
    58   25   26 1   
    59   25   74 1   
    60   25   97 1   
    61   26   27 1   
    62   26   75 1   
    63   26   76 1   
    64   27   28 1   
    65   27   77 1   
    66   27   78 1   
    67   28   29 1   
    68   28   79 1   
    69   28   80 1   
    70   29   30 1   
    71   29   81 1   
    72   30   31 1   
    73   30   32 2   
    74   31   82 1   
    75   31   83 1   
    76   32   84 1   
    77   33   97 2   
    78   34   35 1   
    79   34   85 1   
    80   34   97 1   
    81   35   36 1   
    82   35   38 1   
    83   35   86 1   
    84   36   37 1   
    85   38   39 1   
    86   38   87 1   
    87   38   88 1   
    88   39   40 1   
    89   39   89 1   
    90   39   90 1   
    91   40   41 1   
    92   40   91 1   
    93   40   92 1   
    94   41   42 1   
    95   41   93 1   
    96   42   43 2   
    97   42   44 1   
    98   43   94 1   
    99   44   95 1   
   100   44   96 1   
@<TRIPOS>SUBSTRUCTURE
     1 NDL         1 TEMP              0 ****  ****    0 ROOT
