@<TRIPOS>MOLECULE
NDM
   28    29     1     0     0
SMALL
bcc


@<TRIPOS>ATOM
      1 CN9         0.0220   -0.1790   -0.0090 c3        1 NDM     -0.011400
      2 N9          1.4570   -0.1000    0.0600 na        1 NDM     -0.021100
      3 C4          2.2500   -0.1520    1.2280 cc        1 NDM     -0.012500
      4 N3          1.8350   -0.2490    2.5550 nu        1 NDM     -0.298200
      5 C2          2.9010   -0.3890    3.5510 c3        1 NDM      0.526400
      6 N2          2.8840    0.9230    4.4410 nz        1 NDM     -0.887600
      7 N1          4.2590   -0.6120    3.1190 n7        1 NDM     -0.915200
      8 C6          4.7290   -0.1010    1.8220 c3        1 NDM      0.494600
      9 O6          5.7180   -0.9620    1.2970 oh        1 NDM     -0.573800
     10 C5          3.6060   -0.0480    0.8230 cd        1 NDM     -0.176600
     11 N7          3.6260    0.0530   -0.5710 na        1 NDM      0.045900
     12 CN7         4.7960    0.1530   -1.4100 c3        1 NDM     -0.015400
     13 C8          2.3240    0.0200   -1.0130 cc        1 NDM      0.004400
     14 HN91       -0.4280    0.6580    0.5940 h1        1 NDM      0.106033
     15 HN92       -0.3200   -1.1710    0.3970 h1        1 NDM      0.106033
     16 HN93       -0.3100   -0.0840   -1.0800 h1        1 NDM      0.106033
     17 H22         2.6020   -1.2000    4.3040 hx        1 NDM      0.145700
     18 HN21        3.1030    1.7550    3.8910 hn        1 NDM      0.467800
     19 HN22        1.9580    1.0380    4.8620 hn        1 NDM      0.467800
     20 HN11        4.5820   -1.5450    3.3150 hn        1 NDM      0.467800
     21 H66         5.1390    0.9430    1.9950 h2        1 NDM      0.098700
     22 HN71        5.1130    1.2300   -1.4790 h1        1 NDM      0.113367
     23 HN72        5.6240   -0.4620   -0.9560 h1        1 NDM      0.113367
     24 HN73        4.5560   -0.2370   -2.4370 h1        1 NDM      0.113367
     25 HC81        2.0050    0.0810   -2.0720 h5        1 NDM      0.279000
     26 HN1         1.0010   -0.7750    2.7350 hn        1 NDM      0.322700
     27 HO1         6.5670   -0.7660    1.7290 ho        1 NDM      0.464000
     28 H23         3.5860    0.8220    5.1830 hn        1 NDM      0.467800
@<TRIPOS>BOND
     1    1    2 1   
     2    1   14 1   
     3    1   15 1   
     4    1   16 1   
     5    2    3 1   
     6    2   13 2   
     7    3    4 1   
     8    3   10 2   
     9    4    5 1   
    10    4   26 1   
    11    5    6 1   
    12    5    7 1   
    13    5   17 1   
    14    6   18 1   
    15    6   19 1   
    16    6   28 1   
    17    7    8 1   
    18    7   20 1   
    19    8    9 1   
    20    8   10 1   
    21    8   21 1   
    22    9   27 1   
    23   10   11 1   
    24   11   12 1   
    25   11   13 1   
    26   12   22 1   
    27   12   23 1   
    28   12   24 1   
    29   13   25 1   
@<TRIPOS>SUBSTRUCTURE
     1 NDM         1 TEMP              0 ****  ****    0 ROOT
