@<TRIPOS>MOLECULE
NDM
   27    25     1     0     0
SMALL
bcc


@<TRIPOS>ATOM
      1 CN9        -3.0320    0.4100   -1.1820 c3        1 NDM     -0.099000
      2 N9         -1.5910    0.4100   -1.1820 n3        1 NDM     -0.112000
      3 C4         -0.8020    0.4100   -0.0940 c1        1 NDM      0.100000
      4 N3         -1.0500    0.4100    1.4000 n2        1 NDM     -0.255000
      5 C2          0.0670    0.4100    2.2310 c3        1 NDM      0.148000
      6 N2         -0.3490   -0.1330    3.5560 n3        1 NDM     -0.375000
      7 N1          1.1830   -0.3280    1.7920 n3        1 NDM     -0.350000
      8 C6          1.6430   -0.0810    0.5560 c3        1 NDM      0.192000
      9 O6          2.3900   -1.2570    0.1080 oh        1 NDM     -0.336000
     10 C5          0.5170    0.0080   -0.5050 c2        1 NDM     -0.181000
     11 N7          0.4850   -0.2230   -1.8280 n2        1 NDM     -0.021000
     12 CN7         1.6070   -0.6060   -2.6480 c2        1 NDM     -0.105000
     13 C8         -0.7700    0.4100   -2.3130 c1        1 NDM     -0.003000
     14 HN91       -3.3580    0.5330   -2.0940 h1        1 NDM      0.130667
     15 HN92       -3.3580    1.1380   -0.6190 h1        1 NDM      0.130667
     16 HN93       -3.3580   -0.4420   -0.8330 h1        1 NDM      0.130667
     17 H22         0.3490    1.3360    2.3560 h3        1 NDM      0.158000
     18 HN21        0.3320   -0.0290    4.1540 hn        1 NDM      0.188500
     19 HN22       -1.0840    0.3180    3.8510 hn        1 NDM      0.188500
     20 HN11        1.8620   -0.2370    2.3940 hn        1 NDM      0.211000
     21 H66         2.2050    0.7170    0.5400 h2        1 NDM      0.122000
     22 HN71        1.8690   -1.5210   -2.4340 ha        1 NDM      0.137000
     23 HN72        1.3550   -0.5510   -3.5900 ha        1 NDM      0.137000
     24 HN73        2.3560   -0.0040   -2.4770 ha        1 NDM      0.137000
     25 HC81       -1.0710    0.4500   -3.2410 DU        1 NDM      0.252000
     26 HN1        -1.5910   -0.2910    1.6180 hn        1 NDM      0.233000
     27 HO1         3.1950   -1.2560    0.4820 ho        1 NDM      0.241000
@<TRIPOS>BOND
     1    1    2 1   
     2    1   14 1   
     3    1   15 1   
     4    1   16 1   
     5    2    3 1   
     6    2   13 1   
     7    3   10 1   
     8    4    5 1   
     9    4   26 1   
    10    5    6 1   
    11    5    7 1   
    12    5   17 1   
    13    6   18 1   
    14    6   19 1   
    15    7    8 1   
    16    7   20 1   
    17    8    9 1   
    18    8   10 1   
    19    8   21 1   
    20    9   27 1   
    21   10   11 1   
    22   11   13 1   
    23   12   22 1   
    24   12   23 1   
    25   12   24 1   
@<TRIPOS>SUBSTRUCTURE
     1 NDM         1 TEMP              0 ****  ****    0 ROOT
