@<TRIPOS>MOLECULE
NDM
   28    29     1     0     0
SMALL
bcc


@<TRIPOS>ATOM
      1 CN9         0.0510   -0.0270   -0.0470 c3        1 NDM     -0.010400
      2 N9          1.4890   -0.0160   -0.0070 na        1 NDM     -0.016100
      3 C4          2.3010   -0.0170    1.1490 cc        1 NDM     -0.014500
      4 N3          1.8960    0.0090    2.4910 nh        1 NDM     -0.283200
      5 C2          3.0470   -0.1050    3.4340 c3        1 NDM      0.465400
      6 N2          2.6210    0.4630    4.8110 n4        1 NDM     -0.863600
      7 N1          4.3020    0.5220    2.9960 n3        1 NDM     -0.851200
      8 C6          4.7870   -0.0050    1.7060 c3        1 NDM      0.474600
      9 O6          5.1760   -1.3590    1.8270 oh        1 NDM     -0.576800
     10 C5          3.6530    0.0060    0.7110 cd        1 NDM     -0.177600
     11 N7          3.6500   -0.0020   -0.6850 na        1 NDM      0.039900
     12 CN7         4.8110   -0.0230   -1.5400 c3        1 NDM     -0.013400
     13 C8          2.3380   -0.0140   -1.1010 cc        1 NDM      0.005400
     14 HN91       -0.3300   -0.9720    0.4290 h1        1 NDM      0.106033
     15 HN92       -0.3440    0.8680    0.5090 h1        1 NDM      0.106033
     16 HN93       -0.2980    0.0160   -1.1160 h1        1 NDM      0.106033
     17 H22         3.2920   -1.2100    3.6370 hx        1 NDM      0.152700
     18 HN21        2.3170    1.4400    4.7400 hn        1 NDM      0.480800
     19 HN22        1.8520   -0.0990    5.1920 hn        1 NDM      0.480800
     20 HN11        4.2550    1.5260    2.9630 hn        1 NDM      0.418800
     21 H66         5.6500    0.6500    1.3760 h2        1 NDM      0.125700
     22 HN71        5.4810   -0.8720   -1.2270 h1        1 NDM      0.110700
     23 HN72        4.4920   -0.1710   -2.6080 h1        1 NDM      0.110700
     24 HN73        5.3610    0.9540   -1.4440 h1        1 NDM      0.110700
     25 HC81        2.0010   -0.0200   -2.1560 h5        1 NDM      0.279000
     26 HN1         1.1370   -0.6160    2.6980 hn        1 NDM      0.291700
     27 HO1         6.0610   -1.3920    2.2270 ho        1 NDM      0.462000
     28 H23         3.4270    0.4060    5.4490 hn        1 NDM      0.480800
@<TRIPOS>BOND
     1    1    2 1   
     2    1   14 1   
     3    1   15 1   
     4    1   16 1   
     5    2    3 1   
     6    2   13 2   
     7    3    4 1   
     8    3   10 2   
     9    4    5 1   
    10    4   26 1   
    11    5    6 1   
    12    5    7 1   
    13    5   17 1   
    14    6   18 1   
    15    6   19 1   
    16    6   28 1   
    17    7    8 1   
    18    7   20 1   
    19    8    9 1   
    20    8   10 1   
    21    8   21 1   
    22    9   27 1   
    23   10   11 1   
    24   11   12 1   
    25   11   13 1   
    26   12   22 1   
    27   12   23 1   
    28   12   24 1   
    29   13   25 1   
@<TRIPOS>SUBSTRUCTURE
     1 NDM         1 TEMP              0 ****  ****    0 ROOT
