@<TRIPOS>MOLECULE
NDM
   28    29     1     0     0
SMALL
bcc


@<TRIPOS>ATOM
      1 CN9         0.0390   -0.0090   -0.0470 c3        1 NDM     -0.011400
      2 N9          1.4750   -0.0000    0.0400 na        1 NDM     -0.021100
      3 C4          2.2490   -0.0610    1.2200 cc        1 NDM     -0.012500
      4 N3          1.8130   -0.1040    2.5430 nh        1 NDM     -0.298200
      5 C2          2.8570   -0.2700    3.5580 c3        1 NDM      0.526400
      6 N2          2.8930    1.0630    4.4150 n4        1 NDM     -0.887600
      7 N1          4.2080   -0.5710    3.1500 n3        1 NDM     -0.915200
      8 C6          4.7200   -0.1160    1.8490 c3        1 NDM      0.494600
      9 O6          5.6720   -1.0380    1.3590 oh        1 NDM     -0.573800
     10 C5          3.6140   -0.0340    0.8320 cd        1 NDM     -0.176600
     11 N7          3.6570    0.0300   -0.5630 na        1 NDM      0.045900
     12 CN7         4.8410    0.0510   -1.3880 c3        1 NDM     -0.015400
     13 C8          2.3610    0.0500   -1.0230 cc        1 NDM      0.004400
     14 HN91       -0.2740    0.0660   -1.1260 h1        1 NDM      0.106033
     15 HN92       -0.3760    0.8680    0.5210 h1        1 NDM      0.106033
     16 HN93       -0.3580   -0.9690    0.3860 h1        1 NDM      0.106033
     17 H22         2.5090   -1.0460    4.3260 hx        1 NDM      0.145700
     18 HN21        1.9690    1.2340    4.8190 hn        1 NDM      0.467800
     19 HN22        3.5800    0.9460    5.1680 hn        1 NDM      0.467800
     20 HN11        4.4820   -1.5130    3.3740 hn        1 NDM      0.467800
     21 H66         5.1790    0.9100    2.0010 h2        1 NDM      0.098700
     22 HN71        5.6320   -0.5920   -0.9070 h1        1 NDM      0.113367
     23 HN72        5.2120    1.1100   -1.4780 h1        1 NDM      0.113367
     24 HN73        4.5960   -0.3520   -2.4080 h1        1 NDM      0.113367
     25 HC81        2.0600    0.1000   -2.0880 h5        1 NDM      0.279000
     26 HN1         0.9510   -0.5830    2.7240 hn        1 NDM      0.322700
     27 HO1         6.5240   -0.8740    1.7980 ho        1 NDM      0.464000
     28 H23         3.1610    1.8690    3.8470 hn        1 NDM      0.467800
@<TRIPOS>BOND
     1    1    2 1   
     2    1   14 1   
     3    1   15 1   
     4    1   16 1   
     5    2    3 1   
     6    2   13 2   
     7    3    4 1   
     8    3   10 2   
     9    4    5 1   
    10    4   26 1   
    11    5    6 1   
    12    5    7 1   
    13    5   17 1   
    14    6   18 1   
    15    6   19 1   
    16    6   28 1   
    17    7    8 1   
    18    7   20 1   
    19    8    9 1   
    20    8   10 1   
    21    8   21 1   
    22    9   27 1   
    23   10   11 1   
    24   11   12 1   
    25   11   13 1   
    26   12   22 1   
    27   12   23 1   
    28   12   24 1   
    29   13   25 1   
@<TRIPOS>SUBSTRUCTURE
     1 NDM         1 TEMP              0 ****  ****    0 ROOT
