@<TRIPOS>MOLECULE
NDM
   27    28     1     0     0
SMALL
bcc


@<TRIPOS>ATOM
      1 CN9         1.3920   -2.3530   -0.9320 c3        1 NDM     -0.000400
      2 N9          0.9240   -1.1450   -1.5480 na        1 NDM     -0.029100
      3 C4          0.7750   -0.9140   -2.9360 cc        1 NDM      0.021500
      4 N3          0.8620   -1.8310   -3.9760 nh        1 NDM     -0.265200
      5 C2          0.2100   -1.2960   -5.2420 c3        1 NDM      0.499400
      6 N2          0.4550   -2.1050   -6.4200 n3        1 NDM     -0.923800
      7 N1          0.5570    0.1360   -5.4680 n3        1 NDM     -0.889200
      8 C6          0.1020    1.0500   -4.4300 c3        1 NDM      0.468600
      9 O6         -1.2870    1.3920   -4.4650 oh        1 NDM     -0.623800
     10 C5          0.3290    0.4290   -3.0800 cd        1 NDM     -0.158600
     11 N7          0.1720    0.9700   -1.8040 na        1 NDM      0.035900
     12 CN7        -0.3320    2.2830   -1.4990 c3        1 NDM     -0.007400
     13 C8          0.5520    0.0150   -0.8910 cc        1 NDM     -0.047600
     14 HN91        1.2030   -2.3140    0.1740 h1        1 NDM      0.092033
     15 HN92        2.4940   -2.4710   -1.1200 h1        1 NDM      0.092033
     16 HN93        0.8420   -3.2290   -1.3770 h1        1 NDM      0.092033
     17 H22        -0.9060   -1.3900   -5.0010 h3        1 NDM      0.093700
     18 HN21        1.3980   -2.0880   -6.7460 hn        1 NDM      0.396300
     19 HN22        0.1150   -3.0370   -6.3070 hn        1 NDM      0.396300
     20 HN11        0.2920    0.4410   -6.3840 hn        1 NDM      0.426800
     21 H66         0.7240    1.9940   -4.5370 h2        1 NDM      0.091700
     22 HN71       -0.8570    2.2680   -0.5070 h1        1 NDM      0.097700
     23 HN72       -1.0560    2.5820   -2.3080 h1        1 NDM      0.097700
     24 HN73        0.5230    3.0130   -1.4640 h1        1 NDM      0.097700
     25 HC81        0.5600    0.1460    0.2030 h5        1 NDM      0.252000
     26 HN1         1.7720   -2.2350   -4.0910 hn        1 NDM      0.260700
     27 HO1        -1.4530    1.9060   -5.2660 ho        1 NDM      0.432000
@<TRIPOS>BOND
     1    1    2 1   
     2    1   14 1   
     3    1   15 1   
     4    1   16 1   
     5    2    3 1   
     6    2   13 2   
     7    3    4 1   
     8    3   10 2   
     9    4    5 1   
    10    4   26 1   
    11    5    6 1   
    12    5    7 1   
    13    5   17 1   
    14    6   18 1   
    15    6   19 1   
    16    7    8 1   
    17    7   20 1   
    18    8    9 1   
    19    8   10 1   
    20    8   21 1   
    21    9   27 1   
    22   10   11 1   
    23   11   12 1   
    24   11   13 1   
    25   12   22 1   
    26   12   23 1   
    27   12   24 1   
    28   13   25 1   
@<TRIPOS>SUBSTRUCTURE
     1 NDM         1 TEMP              0 ****  ****    0 ROOT
