@<TRIPOS>MOLECULE
NDN
   33    34     1     0     0
SMALL
bcc


@<TRIPOS>ATOM
      1 P          -3.7880   -0.6020    0.6160 p5        1 NDN      1.326900
      2 OP1        -4.1940    0.7390    0.0420 o         1 NDN     -0.924167
      3 OP2        -4.8080   -1.3900    1.3720 o         1 NDN     -0.924167
      4 OP3        -2.8250   -1.3270   -0.2850 o         1 NDN     -0.924167
      5 OR5        -2.7050   -0.0170    1.8630 os        1 NDN     -0.552200
      6 CR5        -1.4050    0.1720    1.4980 c3        1 NDN      0.211400
      7 CR4        -1.1540    1.6340    1.0520 c3        1 NDN      0.050100
      8 CR3        -1.6570    1.8920   -0.3830 c3        1 NDN      0.122100
      9 OR3        -2.5720    2.9660   -0.4130 oh        1 NDN     -0.669800
     10 CR2        -0.4170    2.2680   -1.1980 c3        1 NDN     -0.117400
     11 CR1         0.7640    2.1790   -0.2150 c3        1 NDN      0.312500
     12 OR1         0.2730    1.9240    1.0820 os        1 NDN     -0.441600
     13 N1          1.7740    1.1330   -0.5730 n         1 NDN     -0.352000
     14 C2          2.7410    1.4850   -1.5560 c         1 NDN      0.801500
     15 O2          2.7530    2.6060   -2.1100 o         1 NDN     -0.647500
     16 N3          3.7220    0.5410   -1.8920 n         1 NDN     -0.596500
     17 C4          3.8400   -0.7180   -1.2720 c         1 NDN      0.744700
     18 O4          4.7900   -1.4420   -1.6110 o         1 NDN     -0.617500
     19 C5          2.8230   -1.0050   -0.2550 cc        1 NDN     -0.427300
     20 C6          1.8200   -0.0820    0.0350 cd        1 NDN      0.191600
     21 N5          2.8890   -2.2810    0.4610 no        1 NDN      0.340100
     22 O51         2.3960   -2.3510    1.5580 o         1 NDN     -0.219500
     23 O52         3.4510   -3.2200   -0.0370 o         1 NDN     -0.219500
     24 HR5        -0.7320   -0.0150    2.3880 h1        1 NDN      0.001200
     25 HR5A       -1.1130   -0.5250    0.6590 h1        1 NDN      0.001200
     26 HR4        -1.6090    2.3540    1.7800 h1        1 NDN      0.077700
     27 HR3        -2.1760    0.9470   -0.7570 h1        1 NDN      0.162700
     28 HOR3       -3.4500    2.5530   -0.2480 ho        1 NDN      0.492000
     29 HR2        -0.3040    1.5850   -2.0720 hc        1 NDN      0.062700
     30 HR2A       -0.4950    3.3170   -1.5770 hc        1 NDN      0.062700
     31 HR1         1.3600    3.1390   -0.1660 h2        1 NDN      0.073700
     32 HN3         4.3690    0.7910   -2.6070 hn        1 NDN      0.340500
     33 H6          1.0090   -0.2940    0.7840 h4        1 NDN      0.256000
@<TRIPOS>BOND
     1    1    2 1   
     2    1    3 1   
     3    1    4 1   
     4    1    5 1   
     5    5    6 1   
     6    6    7 1   
     7    6   24 1   
     8    6   25 1   
     9    7    8 1   
    10    7   12 1   
    11    7   26 1   
    12    8    9 1   
    13    8   10 1   
    14    8   27 1   
    15    9   28 1   
    16   10   11 1   
    17   10   29 1   
    18   10   30 1   
    19   11   12 1   
    20   11   13 1   
    21   11   31 1   
    22   13   14 1   
    23   13   20 1   
    24   14   15 2   
    25   14   16 1   
    26   16   17 1   
    27   16   32 1   
    28   17   18 2   
    29   17   19 1   
    30   19   20 2   
    31   19   21 1   
    32   20   33 1   
    33   21   22 1   
    34   21   23 1   
@<TRIPOS>SUBSTRUCTURE
     1 NDN         1 TEMP              0 ****  ****    0 ROOT
