@<TRIPOS>MOLECULE
NDN
   33    33     1     0     0
SMALL
bcc


@<TRIPOS>ATOM
      1 P          -0.1480    5.2650    0.9130 p4        1 NDN      1.700200
      2 OP1         1.3690    5.4250    1.1610 o         1 NDN     -0.914000
      3 OP2        -0.8800    5.2380    2.2430 os        1 NDN     -1.277000
      4 OP3        -0.6530    6.4360    0.0780 o         1 NDN     -0.962800
      5 OR5        -0.4060    3.9690    0.1640 os        1 NDN     -0.548200
      6 CR5        -0.7120    2.7870    0.9100 c3        1 NDN      0.230400
      7 CR4        -1.1640    1.6330   -0.1070 c3        1 NDN      0.051100
      8 CR3        -2.0130    0.5410    0.6430 c3        1 NDN      0.158100
      9 OR3        -3.3600    0.6060    0.2410 oh        1 NDN     -0.671800
     10 CR2        -1.4340   -0.7430    0.2570 c3        1 NDN     -0.127400
     11 CR1        -0.6360   -0.4650   -0.7390 c3        1 NDN      0.313500
     12 OR1        -0.1850    1.0400   -0.5360 os        1 NDN     -0.437600
     13 N1          0.5410   -1.3540   -0.7190 n         1 NDN     -0.356000
     14 C2          1.8480   -0.7950   -0.5530 c         1 NDN      0.800500
     15 O2          2.0050    0.4680   -0.5880 o         1 NDN     -0.644500
     16 N3          3.0110   -1.6730   -0.4040 n         1 NDN     -0.596500
     17 C4          2.8680   -3.0840   -0.5780 c         1 NDN      0.743700
     18 O4          3.8670   -3.8120   -0.5810 o         1 NDN     -0.614500
     19 C5          1.5460   -3.6520   -0.8630 cc        1 NDN     -0.426300
     20 C6          0.3830   -2.7750   -0.9340 cd        1 NDN      0.184600
     21 N5          1.3780   -5.0380   -0.9340 no        1 NDN      0.338100
     22 O51         1.4590   -5.6260   -2.0500 o         1 NDN     -0.216500
     23 O52         1.1470   -5.7990    0.2660 o         1 NDN     -0.216500
     24 HR5        -1.4520    2.9760    1.5500 h1        1 NDN     -0.003300
     25 HR5A        0.0870    2.4950    1.4090 h1        1 NDN     -0.003300
     26 HR4        -1.7040    2.0320   -0.8810 h1        1 NDN      0.087700
     27 HR3        -1.9380    0.6720    1.6480 h1        1 NDN      0.114700
     28 HOR3       -3.9260    0.7580    1.0200 ho        1 NDN      0.503000
     29 HR2        -0.9290   -1.1250    1.0030 hc        1 NDN      0.060700
     30 HR2A       -2.1580   -1.3760   -0.0390 hc        1 NDN      0.060700
     31 HR1        -1.1240   -0.5610   -1.6080 h2        1 NDN      0.072700
     32 HN3         3.8090   -1.3240   -0.1270 hn        1 NDN      0.341500
     33 H6         -0.4950   -3.1360   -1.2650 h4        1 NDN      0.255000
@<TRIPOS>BOND
     1    1    2 1   
     2    1    4 2   
     3    1    5 1   
     4    5    6 1   
     5    6    7 1   
     6    6   24 1   
     7    6   25 1   
     8    7    8 1   
     9    7   12 1   
    10    7   26 1   
    11    8    9 1   
    12    8   10 1   
    13    8   27 1   
    14    9   28 1   
    15   10   11 1   
    16   10   29 1   
    17   10   30 1   
    18   11   12 1   
    19   11   13 1   
    20   11   31 1   
    21   13   14 1   
    22   13   20 1   
    23   14   15 2   
    24   14   16 1   
    25   16   17 1   
    26   16   32 1   
    27   17   18 2   
    28   17   19 1   
    29   19   20 2   
    30   19   21 1   
    31   20   33 1   
    32   21   22 1   
    33   21   23 1   
@<TRIPOS>SUBSTRUCTURE
     1 NDN         1 TEMP              0 ****  ****    0 ROOT
