@<TRIPOS>MOLECULE
NDR
   48    50     1     0     0
SMALL
bcc


@<TRIPOS>ATOM
      1 O22        -0.2080   -0.4220   -0.4070 o         1 NDR     -0.291000
      2 C21         1.0050   -0.2040   -0.3040 c2        1 NDR      0.260000
      3 C20         1.6940   -0.1270    1.0300 c3        1 NDR     -0.210000
      4 C19         1.8810   -0.0470   -1.4720 c2        1 NDR     -0.240000
      5 C17         3.1490    0.3880   -1.3780 c2        1 NDR     -0.025000
      6 C15         4.0470    0.4240   -2.5630 c3        1 NDR     -0.138000
      7 C14         3.7810    0.7680   -0.0810 c3        1 NDR     -0.065000
      8 C18         2.7590    0.9450    1.0380 c3        1 NDR     -0.161000
      9 C8          4.6160    2.0680   -0.2040 c3        1 NDR     -0.179000
     10 C3          5.6110    2.0050   -1.3690 c3        1 NDR     -0.069000
     11 C9          4.8370    1.7100   -2.6510 c3        1 NDR     -0.159000
     12 C13         5.2800    2.1710    1.1070 c1        1 NDR     -0.029000
     13 C6          6.8760    4.2090    0.8090 c3        1 NDR     -0.216000
     14 C2          7.4530    3.6540   -0.4790 c3        1 NDR     -0.017000
     15 C1          6.3730    3.3200   -1.5370 c3        1 NDR     -0.103000
     16 C7          8.3210    2.4470   -0.1630 c3        1 NDR     -0.216000
     17 C5          8.3130    4.7420   -1.2160 c3        1 NDR      0.186000
     18 O12         9.6390    4.6730   -0.7010 oh        1 NDR     -0.307000
     19 C10         8.2820    4.3430   -2.7090 c3        1 NDR     -0.184000
     20 C4          7.1180    3.3810   -2.8780 c3        1 NDR     -0.152000
     21 C11         7.7700    6.0800   -1.0490 c1        1 NDR     -0.193000
     22 C16         7.3310    7.1870   -0.9320 c1        1 NDR     -0.195000
     23 H201        2.1520   -1.1310    1.2390 hc        1 NDR      0.114000
     24 H202        0.9420    0.0760    1.8370 hc        1 NDR      0.114000
     25 H19         1.4350   -0.3220   -2.4420 ha        1 NDR      0.151000
     26 H151        3.4560    0.2880   -3.5080 hc        1 NDR      0.097500
     27 H152        4.7570   -0.4470   -2.4850 hc        1 NDR      0.097500
     28 H181        3.2920    0.9220    2.0270 hc        1 NDR      0.093500
     29 H182        2.2690    1.9500    0.9430 hc        1 NDR      0.093500
     30 H91         5.5440    1.6160   -3.5170 hc        1 NDR      0.088500
     31 H92         4.1460    2.5660   -2.8720 hc        1 NDR      0.088500
     32 H131        6.8790    3.4260    1.6150 hc        1 NDR      0.090667
     33 H132        4.7260    2.7910    1.8360 ha        1 NDR      0.027000
     34 H61         7.5100    5.0490    1.1890 hc        1 NDR      0.090667
     35 H62         5.8400    4.5990    0.6590 hc        1 NDR      0.090667
     36 H71         7.7150    1.6720    0.3690 hc        1 NDR      0.090667
     37 H72         9.1700    2.7520    0.4960 hc        1 NDR      0.090667
     38 H73         8.7400    2.0150   -1.1030 hc        1 NDR      0.090667
     39 H12        10.1460    5.3670   -1.1390 ho        1 NDR      0.203000
     40 H101        8.1650    5.2400   -3.3640 hc        1 NDR      0.095000
     41 H102        9.2500    3.8460   -2.9740 hc        1 NDR      0.095000
     42 H41         7.5040    2.3670   -3.1530 hc        1 NDR      0.085000
     43 H42         6.4300    3.7220   -3.6910 hc        1 NDR      0.085000
     44 H16         6.9410    8.1670   -0.8250 ha        1 NDR      0.223000
     45 H23         4.4850   -0.0720    0.1980 hc        1 NDR      0.124000
     46 H24         3.9040    2.9190   -0.4190 hc        1 NDR      0.080000
     47 H25         6.3400    1.1700   -1.1790 hc        1 NDR      0.113000
     48 H26         5.6170    4.1550   -1.5220 hc        1 NDR      0.089000
@<TRIPOS>BOND
     1    1    2 1   
     2    2    3 1   
     3    2    4 1   
     4    3    8 1   
     5    3   23 1   
     6    3   24 1   
     7    4    5 1   
     8    4   25 1   
     9    5    6 1   
    10    5    7 1   
    11    6   11 1   
    12    6   26 1   
    13    6   27 1   
    14    7    8 1   
    15    7    9 1   
    16    7   45 1   
    17    8   28 1   
    18    8   29 1   
    19    9   10 1   
    20    9   12 1   
    21    9   46 1   
    22   10   11 1   
    23   10   15 1   
    24   10   47 1   
    25   11   30 1   
    26   11   31 1   
    27   12   33 1   
    28   13   14 1   
    29   13   32 1   
    30   13   34 1   
    31   13   35 1   
    32   14   15 1   
    33   14   16 1   
    34   14   17 1   
    35   15   20 1   
    36   15   48 1   
    37   16   36 1   
    38   16   37 1   
    39   16   38 1   
    40   17   18 1   
    41   17   19 1   
    42   17   21 1   
    43   18   39 1   
    44   19   20 1   
    45   19   40 1   
    46   19   41 1   
    47   20   42 1   
    48   20   43 1   
    49   21   22 1   
    50   22   44 1   
@<TRIPOS>SUBSTRUCTURE
     1 NDR         1 TEMP              0 ****  ****    0 ROOT
