@<TRIPOS>MOLECULE
NDR
   48    51     1     0     0
SMALL
bcc


@<TRIPOS>ATOM
      1 O22        -6.0680    0.3860   -0.7970 o         1 NDR     -0.536100
      2 C21        -4.9430    0.3210   -0.2870 c         1 NDR      0.569300
      3 C20        -4.3480    1.4640    0.4860 c3        1 NDR     -0.182400
      4 C19        -4.1130   -0.8870   -0.3580 ce        1 NDR     -0.267200
      5 C17        -2.8250   -0.9180    0.0290 c2        1 NDR     -0.031400
      6 C15        -2.0760   -2.2070    0.0370 c3        1 NDR     -0.054200
      7 C14        -2.1070    0.2900    0.5510 c3        1 NDR     -0.035500
      8 C18        -2.8620    1.5790    0.2410 c3        1 NDR     -0.071400
      9 C8         -0.6760    0.3780    0.0040 c3        1 NDR     -0.052700
     10 C3          0.0620   -0.9470    0.2450 c3        1 NDR     -0.049700
     11 C9         -0.6610   -2.0680   -0.4800 c3        1 NDR     -0.073400
     12 C13         0.0640    1.5650    0.6110 c3        1 NDR     -0.074400
     13 C6          1.5360    1.6340    0.2370 c3        1 NDR     -0.065400
     14 C2          2.2310    0.3150    0.5240 c3        1 NDR     -0.028000
     15 C1          1.4830   -0.7920   -0.2530 c3        1 NDR     -0.067700
     16 C7          2.2870    0.0690    2.0250 c3        1 NDR     -0.078100
     17 C5          3.6780    0.1470   -0.0460 c3        1 NDR      0.234900
     18 O12         4.6030    0.6170    0.9290 oh        1 NDR     -0.581800
     19 C10         3.8250   -1.3930   -0.2430 c3        1 NDR     -0.103400
     20 C4          2.4190   -1.9920   -0.2050 c3        1 NDR     -0.069400
     21 C11         3.8660    0.8400   -1.3070 c1        1 NDR     -0.166100
     22 C16         4.0290    1.4050   -2.3490 c1        1 NDR     -0.134500
     23 H201       -4.8580    2.4220    0.2040 hc        1 NDR      0.070700
     24 H202       -4.5500    1.2820    1.5760 hc        1 NDR      0.070700
     25 H19        -4.6200   -1.7870   -0.7440 ha        1 NDR      0.148000
     26 H151       -2.0500   -2.5800    1.0980 hc        1 NDR      0.055700
     27 H152       -2.6190   -2.9780   -0.5730 hc        1 NDR      0.055700
     28 H181       -2.6830    1.8670   -0.8290 hc        1 NDR      0.051200
     29 H182       -2.4550    2.4050    0.8840 hc        1 NDR      0.051200
     30 H91        -0.1090   -3.0320   -0.3250 hc        1 NDR      0.047700
     31 H92        -0.6740   -1.8620   -1.5820 hc        1 NDR      0.047700
     32 H131       -0.4240    2.5130    0.2600 hc        1 NDR      0.042200
     33 H132       -0.0380    1.5330    1.7280 hc        1 NDR      0.042200
     34 H61         1.6350    1.8830   -0.8520 hc        1 NDR      0.051200
     35 H62         2.0280    2.4560    0.8200 hc        1 NDR      0.051200
     36 H71         1.2670    0.0660    2.4740 hc        1 NDR      0.042033
     37 H72         2.7780   -0.9100    2.2380 hc        1 NDR      0.042033
     38 H73         2.8880    0.8770    2.5120 hc        1 NDR      0.042033
     39 H12         5.4840    0.5270    0.5450 ho        1 NDR      0.405000
     40 H101        4.3300   -1.6190   -1.2120 hc        1 NDR      0.055200
     41 H102        4.4540   -1.8040    0.5860 hc        1 NDR      0.055200
     42 H41         2.2630   -2.5830    0.7310 hc        1 NDR      0.046200
     43 H42         2.2450   -2.6740   -1.0730 hc        1 NDR      0.046200
     44 H16         4.1720    1.9060   -3.2730 ha        1 NDR      0.166500
     45 H23        -2.0490    0.1730    1.6730 hc        1 NDR      0.063700
     46 H24        -0.7360    0.5400   -1.1100 hc        1 NDR      0.055700
     47 H25         0.0660   -1.1770    1.3460 hc        1 NDR      0.056700
     48 H26         1.4230   -0.4630   -1.3330 hc        1 NDR      0.054700
@<TRIPOS>BOND
     1    1    2 2   
     2    2    3 1   
     3    2    4 1   
     4    3    8 1   
     5    3   23 1   
     6    3   24 1   
     7    4    5 2   
     8    4   25 1   
     9    5    6 1   
    10    5    7 1   
    11    6   11 1   
    12    6   26 1   
    13    6   27 1   
    14    7    8 1   
    15    7    9 1   
    16    7   45 1   
    17    8   28 1   
    18    8   29 1   
    19    9   10 1   
    20    9   12 1   
    21    9   46 1   
    22   10   11 1   
    23   10   15 1   
    24   10   47 1   
    25   11   30 1   
    26   11   31 1   
    27   12   13 1   
    28   12   32 1   
    29   12   33 1   
    30   13   14 1   
    31   13   34 1   
    32   13   35 1   
    33   14   15 1   
    34   14   16 1   
    35   14   17 1   
    36   15   20 1   
    37   15   48 1   
    38   16   36 1   
    39   16   37 1   
    40   16   38 1   
    41   17   18 1   
    42   17   19 1   
    43   17   21 1   
    44   18   39 1   
    45   19   20 1   
    46   19   40 1   
    47   19   41 1   
    48   20   42 1   
    49   20   43 1   
    50   21   22 3   
    51   22   44 1   
@<TRIPOS>SUBSTRUCTURE
     1 NDR         1 TEMP              0 ****  ****    0 ROOT
