@<TRIPOS>MOLECULE
NDR
   48    48     1     0     0
SMALL
bcc


@<TRIPOS>ATOM
      1 O22        -5.3210    1.2080    0.1900 o         1 NDR     -0.297000
      2 C21        -4.2590    0.6370    0.0450 c1        1 NDR      0.262000
      3 C20        -3.3740    0.1190    1.4140 c2        1 NDR     -0.209000
      4 C19        -3.8610    0.0180   -1.4040 c2        1 NDR     -0.246000
      5 C17        -2.7880   -1.0240   -1.4230 c1        1 NDR     -0.024000
      6 C15        -2.7410   -1.0270   -1.4790 c2        1 NDR     -0.140000
      7 C14        -2.0130   -1.4650    0.2340 c3        1 NDR     -0.084000
      8 C18        -2.7160   -1.3070    1.2120 c3        1 NDR     -0.148000
      9 C8         -0.5020   -0.5870    0.5420 c3        1 NDR     -0.086000
     10 C3         -0.5920    0.0620    0.4190 c3        1 NDR     -0.090000
     11 C9         -1.1840    0.2450   -1.0600 c3        1 NDR     -0.152000
     12 C13         0.8530   -1.3350   -0.4580 c3        1 NDR     -0.151000
     13 C6          1.9580   -0.7060   -0.2950 c3        1 NDR     -0.149000
     14 C2          1.8280    0.4100   -0.4040 c3        1 NDR     -0.019000
     15 C1          0.7320    0.9000    0.4620 c3        1 NDR     -0.093000
     16 C7          1.6780    0.8440   -1.8420 c3        1 NDR     -0.196000
     17 C5          3.0850    0.9520    0.2340 c3        1 NDR      0.188000
     18 O12         3.9430    1.4870   -0.7570 oh        1 NDR     -0.313000
     19 C10         2.6880    1.6350    0.8690 c3        1 NDR     -0.179000
     20 C4          1.0380    1.1270    1.1710 c3        1 NDR     -0.154000
     21 C11         4.1980   -0.2270    1.1160 c1        1 NDR     -0.192000
     22 C16         4.9190   -0.9890    1.6880 c1        1 NDR     -0.192000
     23 H201       -2.7170    0.7770    1.7210 ha        1 NDR      0.110000
     24 H202       -3.9760    0.0970    2.1850 ha        1 NDR      0.110000
     25 H19        -4.0840    0.5070   -2.2240 ha        1 NDR      0.149000
     26 H151       -2.3420   -1.9070   -1.6940 ha        1 NDR      0.096500
     27 H152       -3.2240   -0.8210   -2.3190 ha        1 NDR      0.096500
     28 H181       -2.1730   -1.5010    2.0050 hc        1 NDR      0.089000
     29 H182       -3.4390   -1.9670    1.1710 hc        1 NDR      0.089000
     30 H91        -0.4730    0.0870   -1.7000 hc        1 NDR      0.087000
     31 H92        -1.4960    1.1640   -1.1600 hc        1 NDR      0.087000
     32 H131        0.9730   -2.2700   -0.1860 hc        1 NDR      0.082000
     33 H132        0.6030   -1.3070   -1.4090 hc        1 NDR      0.082000
     34 H61         2.6060   -1.0190   -0.9660 hc        1 NDR      0.087500
     35 H62         2.3070   -0.9000    0.6010 hc        1 NDR      0.087500
     36 H71         1.4150    1.7870   -1.8720 hc        1 NDR      0.081667
     37 H72         2.5340    0.7280   -2.3090 hc        1 NDR      0.081667
     38 H73         0.9940    0.3020   -2.2760 hc        1 NDR      0.081667
     39 H12         4.7920    1.3890   -0.4990 ho        1 NDR      0.203000
     40 H101        3.1950    1.6490    1.7100 hc        1 NDR      0.092500
     41 H102        2.6960    2.5250    0.4560 hc        1 NDR      0.092500
     42 H41         1.0300    0.3720    1.7970 hc        1 NDR      0.084500
     43 H42         0.5180    1.8740    1.5390 hc        1 NDR      0.084500
     44 H16         5.5110   -1.6150    2.1580 DU        1 NDR      0.224000
     45 H23        -1.7880   -2.4180    0.1960 hc        1 NDR      0.103000
     46 H24        -0.2750   -0.6890    1.4890 hc        1 NDR      0.092000
     47 H25        -1.2280    0.4290    1.0690 hc        1 NDR      0.091000
     48 H26         0.4690    1.7500    0.0460 hc        1 NDR      0.102000
@<TRIPOS>BOND
     1    1    2 1   
     2    2    4 1   
     3    3    8 1   
     4    3   23 1   
     5    3   24 1   
     6    4    5 1   
     7    4   25 1   
     8    5    7 1   
     9    6   11 1   
    10    6   26 1   
    11    6   27 1   
    12    7    8 1   
    13    7    9 1   
    14    7   45 1   
    15    8   28 1   
    16    8   29 1   
    17    9   10 1   
    18    9   12 1   
    19    9   46 1   
    20   10   11 1   
    21   10   15 1   
    22   10   47 1   
    23   11   30 1   
    24   11   31 1   
    25   12   13 1   
    26   12   32 1   
    27   12   33 1   
    28   13   14 1   
    29   13   34 1   
    30   13   35 1   
    31   14   15 1   
    32   14   16 1   
    33   14   17 1   
    34   15   20 1   
    35   15   48 1   
    36   16   36 1   
    37   16   37 1   
    38   16   38 1   
    39   17   18 1   
    40   17   19 1   
    41   17   21 1   
    42   18   39 1   
    43   19   20 1   
    44   19   40 1   
    45   19   41 1   
    46   20   42 1   
    47   20   43 1   
    48   21   22 1   
@<TRIPOS>SUBSTRUCTURE
     1 NDR         1 TEMP              0 ****  ****    0 ROOT
