@<TRIPOS>MOLECULE
NDR
   48    50     1     0     0
SMALL
bcc


@<TRIPOS>ATOM
      1 O22         0.4050   -1.2110    0.5380 o         1 NDR     -0.295000
      2 C21         1.4460   -0.5920    0.2850 c2        1 NDR      0.261000
      3 C20         2.5620   -0.4810    1.2850 c3        1 NDR     -0.213000
      4 C19         1.6700    0.0560   -1.0140 c2        1 NDR     -0.243000
      5 C17         2.7950    0.7270   -1.3180 c2        1 NDR     -0.002000
      6 C15         2.9690    1.3420   -2.6660 c3        1 NDR     -0.211000
      7 C14         3.9360    0.8430   -0.3450 c3        1 NDR     -0.078000
      8 C18         3.3930    0.7660    1.0780 c3        1 NDR     -0.148000
      9 C8          4.7990    2.0830   -0.6030 c3        1 NDR     -0.123000
     10 C3          6.0060    1.7120   -1.4680 c3        1 NDR     -0.150000
     11 C9          3.3890    2.7400   -2.5840 c1        1 NDR     -0.087000
     12 C13         5.2350    2.8120    0.6620 c3        1 NDR     -0.144000
     13 C6          6.1460    4.0030    0.3960 c3        1 NDR     -0.147000
     14 C2          7.3410    3.5890   -0.4450 c3        1 NDR     -0.028000
     15 C1          6.8000    2.9630   -1.7490 c3        1 NDR     -0.116000
     16 C7          8.2410    2.6520    0.3470 c3        1 NDR     -0.196000
     17 C5          8.2330    4.7380   -1.0220 c3        1 NDR      0.192000
     18 O12         9.2600    5.0260   -0.0790 oh        1 NDR     -0.309000
     19 C10         8.8400    4.1200   -2.3190 c3        1 NDR     -0.182000
     20 C4          8.0090    2.8840   -2.6670 c3        1 NDR     -0.147000
     21 C11         7.4710    5.9320   -1.3350 c1        1 NDR     -0.197000
     22 C16         6.8480    6.9180   -1.5990 c1        1 NDR     -0.186000
     23 H201        3.2060   -1.3960    1.1800 hc        1 NDR      0.112500
     24 H202        2.1370   -0.4880    2.3230 hc        1 NDR      0.112500
     25 H19         0.8400   -0.0370   -1.7340 ha        1 NDR      0.148000
     26 H151        1.9800    1.3740   -3.2160 hc        1 NDR      0.113500
     27 H152        3.6530    0.6740   -3.2660 hc        1 NDR      0.113500
     28 H181        2.7690    1.6730    1.2920 hc        1 NDR      0.095500
     29 H182        4.2430    0.7520    1.8100 hc        1 NDR      0.095500
     30 H91         5.6570    1.2560   -2.4320 hc        1 NDR      0.084000
     31 H92         4.1210    3.0510   -3.3500 ha        1 NDR      0.041000
     32 H131        5.7660    2.0930    1.3410 hc        1 NDR      0.086000
     33 H132        4.3260    3.1840    1.2050 hc        1 NDR      0.086000
     34 H61         6.4960    4.4240    1.3740 hc        1 NDR      0.094500
     35 H62         5.5690    4.8060   -0.1340 hc        1 NDR      0.094500
     36 H71         8.6110    3.1780    1.2620 hc        1 NDR      0.081333
     37 H72         7.6960    1.7320    0.6600 hc        1 NDR      0.081333
     38 H73         9.1260    2.3540   -0.2660 hc        1 NDR      0.081333
     39 H12         9.7730    5.7600   -0.4390 ho        1 NDR      0.204000
     40 H101        8.8210    4.8610   -3.1530 hc        1 NDR      0.094500
     41 H102        9.9050    3.8400   -2.1220 hc        1 NDR      0.094500
     42 H41         8.5920    1.9470   -2.4810 hc        1 NDR      0.085500
     43 H42         7.7040    2.8890   -3.7420 hc        1 NDR      0.085500
     44 H16         6.2930    7.7910   -1.8330 ha        1 NDR      0.225000
     45 H23         4.5840   -0.0710   -0.5040 hc        1 NDR      0.102000
     46 H24         4.1450    2.8730   -1.1750 hc        1 NDR      0.160000
     47 H25         6.6370    0.9470   -0.9480 hc        1 NDR      0.084000
     48 H26         6.0870    3.7130   -2.2080 hc        1 NDR      0.095000
@<TRIPOS>BOND
     1    1    2 1   
     2    2    3 1   
     3    2    4 1   
     4    3    8 1   
     5    3   23 1   
     6    3   24 1   
     7    4    5 1   
     8    4   25 1   
     9    5    6 1   
    10    5    7 1   
    11    6   11 1   
    12    6   26 1   
    13    6   27 1   
    14    7    8 1   
    15    7    9 1   
    16    7   45 1   
    17    8   28 1   
    18    8   29 1   
    19    9   10 1   
    20    9   12 1   
    21    9   46 1   
    22   10   15 1   
    23   10   30 1   
    24   10   47 1   
    25   11   31 1   
    26   12   13 1   
    27   12   32 1   
    28   12   33 1   
    29   13   14 1   
    30   13   34 1   
    31   13   35 1   
    32   14   15 1   
    33   14   16 1   
    34   14   17 1   
    35   15   20 1   
    36   15   48 1   
    37   16   36 1   
    38   16   37 1   
    39   16   38 1   
    40   17   18 1   
    41   17   19 1   
    42   17   21 1   
    43   18   39 1   
    44   19   20 1   
    45   19   40 1   
    46   19   41 1   
    47   20   42 1   
    48   20   43 1   
    49   21   22 1   
    50   22   44 1   
@<TRIPOS>SUBSTRUCTURE
     1 NDR         1 TEMP              0 ****  ****    0 ROOT
