@<TRIPOS>MOLECULE
NDS
   29    28     1     0     0
SMALL
bcc


@<TRIPOS>ATOM
      1 O3          0.6630   -2.0320    1.4260 o         1 NDS     -0.741533
      2 S1          0.6040   -1.1110    0.3410 s6        1 NDS      1.435800
      3 O1          0.8040    0.2310    0.6660 o         1 NDS     -0.741533
      4 O2         -0.4750   -1.4230   -0.5170 o         1 NDS     -0.741533
      5 C4          2.0300   -1.5790   -0.6630 c3        1 NDS     -0.321600
      6 C3          2.9140   -2.6450   -0.0890 c3        1 NDS     -0.038400
      7 C2          2.7290   -4.0300   -0.7010 c3        1 NDS      0.132800
      8 N1          1.6570   -4.9330   -0.1270 n4        1 NDS     -0.589800
      9 C1          1.6740   -4.9030    1.3630 c3        1 NDS      0.070600
     10 C7          0.3090   -4.5380   -0.6240 c3        1 NDS      0.070600
     11 C5          1.9750   -6.3320   -0.6040 c3        1 NDS      0.109800
     12 C6          0.8840   -7.3620   -0.3970 c3        1 NDS     -0.120100
     13 H41         1.6590   -1.8660   -1.6770 h1        1 NDS      0.086700
     14 H42         2.6380   -0.6490   -0.8060 h1        1 NDS      0.086700
     15 H31         2.8020   -2.6740    1.0300 hc        1 NDS      0.068700
     16 H32         3.9920   -2.3870   -0.2970 hc        1 NDS      0.068700
     17 H21         3.7010   -4.5900   -0.5800 hx        1 NDS      0.072700
     18 H22         2.5030   -3.9240   -1.8000 hx        1 NDS      0.072700
     19 H11         2.7280   -5.0220    1.7210 hx        1 NDS      0.109533
     20 H12         1.2500   -3.9150    1.7310 hx        1 NDS      0.109533
     21 H13         1.0390   -5.7370    1.7570 hx        1 NDS      0.109533
     22 H71        -0.4690   -5.1710   -0.1240 hx        1 NDS      0.109533
     23 H72         0.1050   -3.4550   -0.3690 hx        1 NDS      0.109533
     24 H73         0.2680   -4.6760   -1.7350 hx        1 NDS      0.109533
     25 H51         2.2040   -6.2650   -1.7060 hx        1 NDS      0.081700
     26 H52         2.9070   -6.6620   -0.0630 hx        1 NDS      0.081700
     27 H61        -0.0090   -7.1460   -1.0330 hc        1 NDS      0.065367
     28 H62         0.5580   -7.4260    0.6680 hc        1 NDS      0.065367
     29 H63         1.2950   -8.3580   -0.6980 hc        1 NDS      0.065367
@<TRIPOS>BOND
     1    1    2 1   
     2    2    3 1   
     3    2    4 1   
     4    2    5 1   
     5    5    6 1   
     6    5   13 1   
     7    5   14 1   
     8    6    7 1   
     9    6   15 1   
    10    6   16 1   
    11    7    8 1   
    12    7   17 1   
    13    7   18 1   
    14    8    9 1   
    15    8   10 1   
    16    8   11 1   
    17    9   19 1   
    18    9   20 1   
    19    9   21 1   
    20   10   22 1   
    21   10   23 1   
    22   10   24 1   
    23   11   12 1   
    24   11   25 1   
    25   11   26 1   
    26   12   27 1   
    27   12   28 1   
    28   12   29 1   
@<TRIPOS>SUBSTRUCTURE
     1 NDS         1 TEMP              0 ****  ****    0 ROOT
