@<TRIPOS>MOLECULE
NDS
   29    28     1     0     0
SMALL
bcc


@<TRIPOS>ATOM
      1 O3         -2.6520   -0.6680   -1.1880 o         1 NDS     -0.746200
      2 S1         -2.7780    0.0790    0.0010 s6        1 NDS      1.435800
      3 O1         -2.6520   -0.6940    1.1730 o         1 NDS     -0.746200
      4 O2         -3.7720    1.0620    0.0110 o         1 NDS     -0.746200
      5 C4         -1.2190    1.0380    0.0110 c3        1 NDS     -0.315600
      6 C3         -0.0940    0.0550    0.0010 c3        1 NDS     -0.033400
      7 C2          1.2350    0.7920    0.0090 c3        1 NDS      0.102800
      8 N1          2.4630   -0.1040   -0.0010 n4        1 NDS     -0.582800
      9 C1          2.4590   -0.9770    1.2050 c3        1 NDS      0.073600
     10 C7          2.4590   -0.9500   -1.2260 c3        1 NDS      0.073600
     11 C5          3.6730    0.7940    0.0090 c3        1 NDS      0.108800
     12 C6          5.0170    0.1000    0.0010 c3        1 NDS     -0.121100
     13 H41        -1.2060    1.6790    0.9200 h1        1 NDS      0.089200
     14 H42        -1.2060    1.6980   -0.8830 h1        1 NDS      0.089200
     15 H31        -0.1940   -0.5870   -0.9170 hc        1 NDS      0.054700
     16 H32        -0.1940   -0.6070    0.9050 hc        1 NDS      0.054700
     17 H21         1.3030    1.4310    0.9330 hx        1 NDS      0.102700
     18 H22         1.3030    1.4510   -0.9020 hx        1 NDS      0.102700
     19 H11         2.4380   -0.3370    2.1260 hx        1 NDS      0.107367
     20 H12         1.5450   -1.6320    1.1890 hx        1 NDS      0.107367
     21 H13         3.3760   -1.6220    1.2070 hx        1 NDS      0.107367
     22 H71         3.3750   -1.5960   -1.2420 hx        1 NDS      0.107367
     23 H72         1.5450   -1.6050   -1.2240 hx        1 NDS      0.107367
     24 H73         2.4380   -0.2900   -2.1320 hx        1 NDS      0.107367
     25 H51         3.5930    1.4390    0.9310 hx        1 NDS      0.083200
     26 H52         3.5930    1.4600   -0.8990 hx        1 NDS      0.083200
     27 H61         5.8080    0.8920    0.0100 hc        1 NDS      0.063367
     28 H62         5.1620   -0.5430    0.9030 hc        1 NDS      0.063367
     29 H63         5.1620   -0.5230   -0.9150 hc        1 NDS      0.063367
@<TRIPOS>BOND
     1    1    2 1   
     2    2    3 1   
     3    2    4 1   
     4    2    5 1   
     5    5    6 1   
     6    5   13 1   
     7    5   14 1   
     8    6    7 1   
     9    6   15 1   
    10    6   16 1   
    11    7    8 1   
    12    7   17 1   
    13    7   18 1   
    14    8    9 1   
    15    8   10 1   
    16    8   11 1   
    17    9   19 1   
    18    9   20 1   
    19    9   21 1   
    20   10   22 1   
    21   10   23 1   
    22   10   24 1   
    23   11   12 1   
    24   11   25 1   
    25   11   26 1   
    26   12   27 1   
    27   12   28 1   
    28   12   29 1   
@<TRIPOS>SUBSTRUCTURE
     1 NDS         1 TEMP              0 ****  ****    0 ROOT
