@<TRIPOS>MOLECULE
NDS
   29    28     1     0     0
SMALL
bcc


@<TRIPOS>ATOM
      1 O3          0.3810   -2.4440   -1.9110 o         1 NDS     -0.744867
      2 S1          0.5540   -1.3180   -1.0490 s6        1 NDS      1.434800
      3 O1         -0.0700   -1.5650    0.2010 o         1 NDS     -0.744867
      4 O2          0.3560   -0.0620   -1.6230 o         1 NDS     -0.744867
      5 C4          2.3020   -1.3960   -0.6590 c3        1 NDS     -0.306600
      6 C3          2.6660   -2.5610    0.2170 c3        1 NDS     -0.039400
      7 C2          2.5090   -3.8810   -0.5390 c3        1 NDS      0.099800
      8 N1          1.6390   -4.9320    0.1180 n4        1 NDS     -0.589800
      9 C1          2.2360   -5.3370    1.4160 c3        1 NDS      0.071100
     10 C7          0.2520   -4.4230    0.3370 c3        1 NDS      0.071100
     11 C5          1.5920   -6.1070   -0.8280 c3        1 NDS      0.113800
     12 C6          0.9140   -7.3510   -0.2950 c3        1 NDS     -0.122100
     13 H41         2.8860   -1.4220   -1.6100 h1        1 NDS      0.086200
     14 H42         2.5860   -0.4490   -0.1370 h1        1 NDS      0.086200
     15 H31         2.0280   -2.5150    1.1420 hc        1 NDS      0.053700
     16 H32         3.7340   -2.4810    0.5530 hc        1 NDS      0.053700
     17 H21         3.5220   -4.3510   -0.6790 hx        1 NDS      0.107700
     18 H22         2.0460   -3.6790   -1.5570 hx        1 NDS      0.107700
     19 H11         3.2200   -5.8430    1.2360 hx        1 NDS      0.104033
     20 H12         2.3930   -4.4240    2.0500 hx        1 NDS      0.104033
     21 H13         1.5420   -6.0390    1.9490 hx        1 NDS      0.104033
     22 H71        -0.3750   -5.2410    0.7730 hx        1 NDS      0.104033
     23 H72         0.2630   -3.5340    1.0310 hx        1 NDS      0.104033
     24 H73        -0.1740   -4.0670   -0.6480 hx        1 NDS      0.104033
     25 H51         1.0540   -5.7500   -1.7560 hx        1 NDS      0.096700
     26 H52         2.6560   -6.3580   -1.1050 hx        1 NDS      0.096700
     27 H61        -0.1490   -7.1600   -0.0120 hc        1 NDS      0.063033
     28 H62         1.4540   -7.7720    0.5870 hc        1 NDS      0.063033
     29 H63         0.9230   -8.1180   -1.1100 hc        1 NDS      0.063033
@<TRIPOS>BOND
     1    1    2 1   
     2    2    3 1   
     3    2    4 1   
     4    2    5 1   
     5    5    6 1   
     6    5   13 1   
     7    5   14 1   
     8    6    7 1   
     9    6   15 1   
    10    6   16 1   
    11    7    8 1   
    12    7   17 1   
    13    7   18 1   
    14    8    9 1   
    15    8   10 1   
    16    8   11 1   
    17    9   19 1   
    18    9   20 1   
    19    9   21 1   
    20   10   22 1   
    21   10   23 1   
    22   10   24 1   
    23   11   12 1   
    24   11   25 1   
    25   11   26 1   
    26   12   27 1   
    27   12   28 1   
    28   12   29 1   
@<TRIPOS>SUBSTRUCTURE
     1 NDS         1 TEMP              0 ****  ****    0 ROOT
