@<TRIPOS>MOLECULE
NDS
   29    27     1     0     0
SMALL
bcc


@<TRIPOS>ATOM
      1 O3         -1.6800    4.1230    0.4310 o         1 NDS     -1.069000
      2 S1         -0.1690    4.1230    0.4310 s4        1 NDS      2.865000
      3 O1          0.3780    4.1230    1.8390 o         1 NDS     -1.069000
      4 O2          0.3810    5.4310   -0.0990 o         1 NDS     -1.069000
      5 C4          0.4520    2.7310   -0.5090 c2        1 NDS     -0.855000
      6 C3         -0.0640    1.4210    0.1130 c3        1 NDS     -0.112000
      7 C2          0.4750    0.2190   -0.6960 c3        1 NDS     -0.134000
      8 N1         -0.0080   -1.0330   -0.0970 n4        1 NDS      0.050000
      9 C1          0.6010   -1.2100    1.2050 c3        1 NDS     -0.202500
     10 C7         -1.4470   -0.9760    0.0450 c3        1 NDS     -0.202500
     11 C5          0.3530   -2.1580   -0.9590 c3        1 NDS     -0.128000
     12 C6          0.1240   -3.4760   -0.2090 c3        1 NDS     -0.239000
     13 H41         1.4280    2.7370   -0.4920 ha        1 NDS      0.128500
     14 H42         0.1420    2.7980   -1.4320 ha        1 NDS      0.128500
     15 H31         0.2440    1.3560    1.0370 hc        1 NDS      0.094000
     16 H32        -1.0400    1.4140    0.0940 hc        1 NDS      0.094000
     17 H21         0.1600    0.2800   -1.6180 hx        1 NDS      0.142000
     18 H22         1.4510    0.2300   -0.6840 hx        1 NDS      0.142000
     19 H11         0.4650   -0.4050    1.7400 hx        1 NDS      0.146667
     20 H12         1.5570   -1.3720    1.0970 hx        1 NDS      0.146667
     21 H13         0.1900   -1.9730    1.6550 hx        1 NDS      0.146667
     22 H71        -1.8090   -1.8820    0.0570 hx        1 NDS      0.146667
     23 H72        -1.8290   -0.4830   -0.7060 hx        1 NDS      0.146667
     24 H73        -1.6740   -0.5240    0.8800 hx        1 NDS      0.146667
     25 H51         1.2930   -2.0860   -1.2110 hx        1 NDS      0.122500
     26 H52        -0.2000   -2.1410   -1.7630 hx        1 NDS      0.122500
     27 H61         0.8690   -3.6380    0.4000 hc        1 NDS      0.102667
     28 H62        -0.7070   -3.4200    0.3010 hc        1 NDS      0.102667
     29 H63         0.0630   -4.2090   -0.8500 hc        1 NDS      0.102667
@<TRIPOS>BOND
     1    1    2 1   
     2    2    3 1   
     3    2    4 1   
     4    5    6 1   
     5    5   13 1   
     6    5   14 1   
     7    6    7 1   
     8    6   15 1   
     9    6   16 1   
    10    7    8 1   
    11    7   17 1   
    12    7   18 1   
    13    8    9 1   
    14    8   10 1   
    15    8   11 1   
    16    9   19 1   
    17    9   20 1   
    18    9   21 1   
    19   10   22 1   
    20   10   23 1   
    21   10   24 1   
    22   11   12 1   
    23   11   25 1   
    24   11   26 1   
    25   12   27 1   
    26   12   28 1   
    27   12   29 1   
@<TRIPOS>SUBSTRUCTURE
     1 NDS         1 TEMP              0 ****  ****    0 ROOT
