@<TRIPOS>MOLECULE
NDS
   29    28     1     0     0
SMALL
bcc


@<TRIPOS>ATOM
      1 O3          0.4540   -2.4820   -1.9920 o         1 NDS     -0.744867
      2 S1          0.6000   -1.3370   -1.1500 s6        1 NDS      1.434800
      3 O1         -0.0720   -1.5520    0.0800 o         1 NDS     -0.744867
      4 O2          0.4280   -0.0940   -1.7610 o         1 NDS     -0.744867
      5 C4          2.3320   -1.4110   -0.6940 c3        1 NDS     -0.306600
      6 C3          2.6590   -2.5570    0.2220 c3        1 NDS     -0.039400
      7 C2          2.5240   -3.8930   -0.5090 c3        1 NDS      0.099800
      8 N1          1.6260   -4.9260    0.1390 n4        1 NDS     -0.589800
      9 C1          2.1730   -5.3030    1.4680 c3        1 NDS      0.071100
     10 C7          0.2350   -4.4080    0.2950 c3        1 NDS      0.071100
     11 C5          1.6100   -6.1220   -0.7810 c3        1 NDS      0.113800
     12 C6          0.9080   -7.3510   -0.2450 c3        1 NDS     -0.122100
     13 H41         2.9500   -1.4610   -1.6220 h1        1 NDS      0.086200
     14 H42         2.6000   -0.4540   -0.1830 h1        1 NDS      0.086200
     15 H31         1.9870   -2.4870    1.1210 hc        1 NDS      0.053700
     16 H32         3.7140   -2.4720    0.5950 hc        1 NDS      0.053700
     17 H21         3.5400   -4.3700   -0.6010 hx        1 NDS      0.107700
     18 H22         2.1000   -3.7130   -1.5480 hx        1 NDS      0.107700
     19 H11         3.1610   -5.8150    1.3350 hx        1 NDS      0.104033
     20 H12         2.3110   -4.3760    2.0860 hx        1 NDS      0.104033
     21 H13         1.4570   -5.9900    1.9900 hx        1 NDS      0.104033
     22 H71        -0.4110   -5.2130    0.7260 hx        1 NDS      0.104033
     23 H72         0.2230   -3.5030    0.9680 hx        1 NDS      0.104033
     24 H73        -0.1540   -4.0740   -0.7140 hx        1 NDS      0.104033
     25 H51         1.1090   -5.7850   -1.7360 hx        1 NDS      0.096700
     26 H52         2.6820   -6.3840   -1.0110 hx        1 NDS      0.096700
     27 H61        -0.1650   -7.1510   -0.0060 hc        1 NDS      0.063033
     28 H62         1.4130   -7.7540    0.6660 hc        1 NDS      0.063033
     29 H63         0.9440   -8.1370   -1.0410 hc        1 NDS      0.063033
@<TRIPOS>BOND
     1    1    2 1   
     2    2    3 1   
     3    2    4 1   
     4    2    5 1   
     5    5    6 1   
     6    5   13 1   
     7    5   14 1   
     8    6    7 1   
     9    6   15 1   
    10    6   16 1   
    11    7    8 1   
    12    7   17 1   
    13    7   18 1   
    14    8    9 1   
    15    8   10 1   
    16    8   11 1   
    17    9   19 1   
    18    9   20 1   
    19    9   21 1   
    20   10   22 1   
    21   10   23 1   
    22   10   24 1   
    23   11   12 1   
    24   11   25 1   
    25   11   26 1   
    26   12   27 1   
    27   12   28 1   
    28   12   29 1   
@<TRIPOS>SUBSTRUCTURE
     1 NDS         1 TEMP              0 ****  ****    0 ROOT
