@<TRIPOS>MOLECULE
NDU
   35    35     1     0     0
SMALL
bcc


@<TRIPOS>ATOM
      1 P           0.4250    4.3680   -0.5950 p4        1 NDU      1.706200
      2 OP1         1.9350    4.3680   -0.5950 o         1 NDU     -0.937000
      3 OP2        -0.0780    4.3680    0.8280 os        1 NDU     -1.219000
      4 OP3        -0.0790    5.6020   -1.3070 o         1 NDU     -0.985800
      5 O5'        -0.1030    3.0750   -1.3410 os        1 NDU     -0.575200
      6 C5'         0.2880    1.8080   -0.8520 c3        1 NDU      0.229400
      7 C4'         0.6370    0.9340   -1.9820 c3        1 NDU      0.069100
      8 C3'        -0.4640    0.4540   -2.5430 c3        1 NDU      0.102100
      9 O3'        -0.2510    0.2400   -3.9740 oh        1 NDU     -0.646800
     10 C2'        -0.7230   -0.9090   -1.8240 c3        1 NDU     -0.110400
     11 C1'         0.6110   -1.2210   -1.0030 c3        1 NDU      0.284500
     12 O4'         1.4900   -0.3730   -1.4470 os        1 NDU     -0.436600
     13 N1          0.3940   -1.0240    0.3820 n         1 NDU     -0.418800
     14 C2          1.4520   -0.5550    1.2050 c         1 NDU      0.807500
     15 O2          2.2750    0.2130    0.7540 o         1 NDU     -0.692500
     16 N3          1.5950   -1.0490    2.5290 n         1 NDU     -0.597500
     17 C4          0.4950   -1.6660    3.1780 c         1 NDU      0.729500
     18 O4          0.6300   -2.1290    4.2930 o         1 NDU     -0.611500
     19 C5         -0.8820   -1.7090    2.4870 c3        1 NDU     -0.131000
     20 C6         -0.8370   -1.4290    0.9710 c3        1 NDU     -0.016000
     21 N5         -1.5810   -2.9890    2.7720 no        1 NDU      0.234300
     22 O51        -0.8890   -4.1650    2.7420 o         1 NDU     -0.247000
     23 O52        -2.7620   -2.9820    3.0840 o         1 NDU     -0.247000
     24 H51'        1.0640    1.9100   -0.2680 h1        1 NDU      0.002700
     25 H52'       -0.4480    1.4120   -0.3490 h1        1 NDU      0.002700
     26 H4'         1.1600    1.4290   -2.6400 h1        1 NDU      0.018700
     27 H3'        -1.2130    1.0630   -2.3980 h1        1 NDU      0.145700
     28 HA         -0.9590    0.5270   -4.4250 ho        1 NDU      0.466000
     29 H21'       -1.4830   -0.8300   -1.2160 hc        1 NDU      0.049200
     30 H22'       -0.8870   -1.6110   -2.4820 hc        1 NDU      0.049200
     31 H1'         0.9070   -2.1360   -1.1740 h2        1 NDU      0.072700
     32 H611       -1.4940   -0.7320    0.7830 h1        1 NDU      0.161700
     33 H612       -1.1270   -2.2420    0.5140 h1        1 NDU      0.161700
     34 H3          2.3850   -0.9440    2.9730 hn        1 NDU      0.324500
     35 H5         -1.4850   -1.0750    2.9190 h1        1 NDU      0.253700
@<TRIPOS>BOND
     1    1    2 1   
     2    1    4 2   
     3    1    5 1   
     4    5    6 1   
     5    6    7 1   
     6    6   24 1   
     7    6   25 1   
     8    7    8 1   
     9    7   12 1   
    10    7   26 1   
    11    8    9 1   
    12    8   10 1   
    13    8   27 1   
    14    9   28 1   
    15   10   11 1   
    16   10   29 1   
    17   10   30 1   
    18   11   12 1   
    19   11   13 1   
    20   11   31 1   
    21   13   14 1   
    22   13   20 1   
    23   14   15 2   
    24   14   16 1   
    25   16   17 1   
    26   16   34 1   
    27   17   18 2   
    28   17   19 1   
    29   19   20 1   
    30   19   21 1   
    31   19   35 1   
    32   20   32 1   
    33   20   33 1   
    34   21   22 1   
    35   21   23 1   
@<TRIPOS>SUBSTRUCTURE
     1 NDU         1 TEMP              0 ****  ****    0 ROOT
