@<TRIPOS>MOLECULE
NDU
   35    36     1     0     0
SMALL
bcc


@<TRIPOS>ATOM
      1 P          -2.0920    1.0770   -1.2480 p5        1 NDU      1.350900
      2 OP1        -3.1020    0.3870   -0.3660 o         1 NDU     -0.926500
      3 OP2        -2.5170    2.1710   -2.1680 o         1 NDU     -0.926500
      4 OP3        -0.7640    1.2460   -0.5230 o         1 NDU     -0.926500
      5 O5'        -1.7360   -0.2600   -2.2890 os        1 NDU     -0.567200
      6 C5'        -0.5860   -0.9610   -2.0640 c3        1 NDU      0.222400
      7 C4'        -0.7950   -2.2280   -1.2020 c3        1 NDU      0.064100
      8 C3'        -1.4480   -1.9520    0.1700 c3        1 NDU      0.099100
      9 O3'        -2.7210   -2.5530    0.2700 oh        1 NDU     -0.647800
     10 C2'        -0.4850   -2.5470    1.2020 c3        1 NDU     -0.112400
     11 C1'         0.8490   -2.6660    0.4390 c3        1 NDU      0.305500
     12 O4'         0.5060   -2.8080   -0.9430 os        1 NDU     -0.448600
     13 N1          1.7920   -1.5580    0.6650 n         1 NDU     -0.452800
     14 C2          3.0400   -1.7060    0.0560 c         1 NDU      0.820500
     15 O2          3.6040   -2.8170   -0.1030 o         1 NDU     -0.689500
     16 N3          3.7730   -0.5610   -0.3420 n         1 NDU     -0.600500
     17 C4          3.2950    0.7390   -0.2810 c         1 NDU      0.706500
     18 O4          4.0030    1.6500   -0.7500 o         1 NDU     -0.630500
     19 C5          1.9390    0.9830    0.3660 c3        1 NDU     -0.165000
     20 C6          1.2970   -0.2510    1.0350 c3        1 NDU      0.040000
     21 N5          2.0840    2.1420    1.3590 no        1 NDU      0.260300
     22 O51         2.0860    3.2650    0.9470 o         1 NDU     -0.227000
     23 O52         2.2210    1.9060    2.5340 o         1 NDU     -0.227000
     24 H51'       -0.1750   -1.3180   -3.0560 h1        1 NDU     -0.006300
     25 H52'        0.1990   -0.3240   -1.5650 h1        1 NDU     -0.006300
     26 H4'        -1.3660   -3.0080   -1.7660 h1        1 NDU      0.052700
     27 H3'        -1.5700   -0.8240    0.3020 h1        1 NDU      0.155700
     28 HA         -3.3430   -1.8370    0.0300 ho        1 NDU      0.467000
     29 H21'       -0.4200   -1.9110    2.1150 hc        1 NDU      0.051200
     30 H22'       -0.8160   -3.5700    1.5050 hc        1 NDU      0.051200
     31 H1'         1.4170   -3.6080    0.6980 h2        1 NDU      0.073700
     32 H611        0.1890   -0.1470    0.7760 h1        1 NDU      0.120700
     33 H612        1.4150   -0.1890    2.1580 h1        1 NDU      0.120700
     34 H3          4.6370   -0.7330   -0.8070 hn        1 NDU      0.327500
     35 H5          1.1680    1.3640   -0.4270 h1        1 NDU      0.273700
@<TRIPOS>BOND
     1    1    2 1   
     2    1    3 1   
     3    1    4 1   
     4    1    5 1   
     5    5    6 1   
     6    6    7 1   
     7    6   24 1   
     8    6   25 1   
     9    7    8 1   
    10    7   12 1   
    11    7   26 1   
    12    8    9 1   
    13    8   10 1   
    14    8   27 1   
    15    9   28 1   
    16   10   11 1   
    17   10   29 1   
    18   10   30 1   
    19   11   12 1   
    20   11   13 1   
    21   11   31 1   
    22   13   14 1   
    23   13   20 1   
    24   14   15 2   
    25   14   16 1   
    26   16   17 1   
    27   16   34 1   
    28   17   18 2   
    29   17   19 1   
    30   19   20 1   
    31   19   21 1   
    32   19   35 1   
    33   20   32 1   
    34   20   33 1   
    35   21   22 1   
    36   21   23 1   
@<TRIPOS>SUBSTRUCTURE
     1 NDU         1 TEMP              0 ****  ****    0 ROOT
