@<TRIPOS>MOLECULE
NDV
   44    45     1     0     0
SMALL
bcc


@<TRIPOS>ATOM
      1 C1          4.2390    0.1500   -0.1000 c3        1 NDV     -0.087100
      2 N1         -1.1770    1.1130    0.1320 n         1 NDV     -0.532900
      3 S1          2.4180    0.4350    1.9310 ss        1 NDV     -0.491200
      4 C2          2.8620   -2.3960   -1.0490 c         1 NDV      0.942600
      5 N2         -4.8290    1.9260    0.4440 n3        1 NDV     -0.879800
      6 O2          4.0980   -2.6070   -1.1700 o         1 NDV     -0.822300
      7 C3         -2.3390    1.6170    0.6520 c         1 NDV      0.622100
      8 N3          1.2250   -0.7200   -0.1120 n3        1 NDV     -0.817200
      9 O3         -2.3820    2.2420    1.7340 o         1 NDV     -0.645100
     10 C4         -3.6370    1.3850   -0.1770 c3        1 NDV      0.144800
     11 C5         -3.7420   -0.0800   -0.5150 ca        1 NDV     -0.085300
     12 C6          3.4470   -0.6860    0.8690 c3        1 NDV      0.145100
     13 C7         -3.3760   -0.5070   -1.7970 ca        1 NDV     -0.120500
     14 C8         -3.4310   -1.8600   -2.1280 ca        1 NDV     -0.123500
     15 C9         -3.8590   -2.7940   -1.1850 ca        1 NDV     -0.122000
     16 C10        -4.2290   -2.3720    0.0910 ca        1 NDV     -0.123500
     17 C11        -4.1680   -1.0200    0.4280 ca        1 NDV     -0.120500
     18 C12         2.3790   -1.5620    0.1940 c3        1 NDV      0.031500
     19 C13         0.8630    0.0580    1.0560 c3        1 NDV      0.289600
     20 C14         0.1260    1.3770    0.6960 c3        1 NDV     -0.008300
     21 C15         1.0140    2.2340   -0.2010 c         1 NDV      0.571900
     22 C16         4.3500   -1.5030    1.7530 c3        1 NDV     -0.087100
     23 H1          4.9300    0.8360    0.4470 hc        1 NDV      0.048033
     24 H1A         4.8360   -0.5350   -0.7580 hc        1 NDV      0.048033
     25 H1B         3.5650    0.7570   -0.7500 hc        1 NDV      0.048033
     26 HN1        -1.1940    0.6710   -0.7590 hn        1 NDV      0.328500
     27 HN2A       -4.6230    2.8370    0.8130 hn        1 NDV      0.355300
     28 HN3         0.4730   -1.2730   -0.4750 hn        1 NDV      0.395800
     29 H4         -3.4970    1.9740   -1.1370 h1        1 NDV      0.084700
     30 H7         -3.0360    0.2250   -2.5460 ha        1 NDV      0.133000
     31 H8         -3.1200   -2.1910   -3.1310 ha        1 NDV      0.134000
     32 H9         -3.8910   -3.8620   -1.4440 ha        1 NDV      0.132000
     33 H10        -4.5580   -3.1060    0.8400 ha        1 NDV      0.134000
     34 H11        -4.4410   -0.7050    1.4470 ha        1 NDV      0.133000
     35 H12         2.0910   -2.3620    0.9480 h1        1 NDV      0.018700
     36 H13         0.2240   -0.5020    1.7950 h2        1 NDV      0.046700
     37 H14        -0.0150    1.9540    1.6640 h1        1 NDV      0.107700
     38 H15         2.0960    2.1640    0.0560 h4        1 NDV      0.046200
     39 H16         5.1350   -0.8610    2.2200 hc        1 NDV      0.048033
     40 H16A        3.7720   -2.0090    2.5640 hc        1 NDV      0.048033
     41 H16B        4.8440   -2.2840    1.1150 hc        1 NDV      0.048033
     42 O4          0.5840    2.9540   -1.1020 o         1 NDV     -0.554100
     43 O1          1.9610   -2.8730   -1.7880 o         1 NDV     -0.822300
     44 HN2        -5.1270    1.3430    1.2030 hn        1 NDV      0.355300
@<TRIPOS>BOND
     1    1   12 1   
     2    1   23 1   
     3    1   24 1   
     4    1   25 1   
     5    2    7 1   
     6    2   20 1   
     7    2   26 1   
     8    3   12 1   
     9    3   19 1   
    10    4    6 1   
    11    4   18 1   
    12    4   43 1   
    13    5   10 1   
    14    5   27 1   
    15    5   44 1   
    16    7    9 2   
    17    7   10 1   
    18    8   18 1   
    19    8   19 1   
    20    8   28 1   
    21   10   11 1   
    22   10   29 1   
    23   11   13 ar  
    24   11   17 ar  
    25   12   18 1   
    26   12   22 1   
    27   13   14 ar  
    28   13   30 1   
    29   14   15 ar  
    30   14   31 1   
    31   15   16 ar  
    32   15   32 1   
    33   16   17 ar  
    34   16   33 1   
    35   17   34 1   
    36   18   35 1   
    37   19   20 1   
    38   19   36 1   
    39   20   21 1   
    40   20   37 1   
    41   21   38 1   
    42   21   42 2   
    43   22   39 1   
    44   22   40 1   
    45   22   41 1   
@<TRIPOS>SUBSTRUCTURE
     1 NDV         1 TEMP              0 ****  ****    0 ROOT
