@<TRIPOS>MOLECULE
NDV
   44    43     1     0     0
SMALL
bcc


@<TRIPOS>ATOM
      1 C1         -4.4760   -0.3660   -3.0720 c3        1 NDV     -0.204000
      2 N1          0.0400    0.5030    0.6380 n         1 NDV     -0.343000
      3 O1         -3.0580    0.5060   -5.8020 o         1 NDV     -0.555500
      4 S1         -2.3400   -0.3330   -1.4690 ss        1 NDV     -0.134000
      5 C2         -2.1300    0.6120   -4.9130 c2        1 NDV      0.363000
      6 N2          1.2580    1.8230    3.2010 n3        1 NDV     -0.317000
      7 O2         -0.9490    0.4770   -5.2370 o         1 NDV     -0.555500
      8 C3          1.1780    0.2270    1.4680 c2        1 NDV      0.269000
      9 N3         -0.9670    1.1920   -2.7230 n3        1 NDV     -0.291000
     10 O3          2.1630   -0.2690    0.9900 o         1 NDV     -0.388000
     11 C4          1.1030    0.4700    2.9510 c3        1 NDV     -0.008000
     12 O4          1.3750    2.2450   -1.1580 o         1 NDV     -0.310000
     13 C5          2.2420   -0.3400    3.6760 c2        1 NDV     -0.095000
     14 C6         -2.9130   -0.3450   -3.0590 c3        1 NDV     -0.034000
     15 C7          2.0100   -1.6390    4.1110 c2        1 NDV     -0.110000
     16 C8          2.9820   -2.3100    4.8430 c1        1 NDV     -0.143000
     17 C9          4.2020   -1.6720    5.1430 c1        1 NDV     -0.127000
     18 C10         4.4330   -0.3760    4.7080 c1        1 NDV     -0.127000
     19 C11         3.4600    0.2950    3.9770 c1        1 NDV     -0.117000
     20 C12        -2.4460    0.8400   -3.6480 c3        1 NDV     -0.113000
     21 C13        -1.2150    0.8530   -1.4120 c3        1 NDV     -0.088000
     22 C14         0.1160    0.3110   -0.7240 c3        1 NDV     -0.039000
     23 C15         1.3080    1.0550   -1.2710 c2        1 NDV      0.182000
     24 C16        -2.3590   -1.5570   -3.8000 c3        1 NDV     -0.204000
     25 H1         -4.8000   -1.0770   -2.4780 hc        1 NDV      0.088000
     26 H1A        -4.8180    0.5060   -2.7580 hc        1 NDV      0.088000
     27 H1B        -4.7790   -0.5250   -3.9480 hc        1 NDV      0.088000
     28 HN1        -0.7240    0.8390    1.0090 hn        1 NDV      0.232000
     29 HN2         0.6860    2.0800    3.8860 hn        1 NDV      0.155000
     30 HN2A        1.0550    2.2950    2.4440 hn        1 NDV      0.155000
     31 HN3        -0.7840    2.0760   -2.7740 hn        1 NDV      0.189000
     32 H4          0.2230    0.1750    3.2870 h1        1 NDV      0.119000
     33 H7          1.1480   -2.0500    3.9660 ha        1 NDV      0.132000
     34 H8          2.8680   -3.2680    5.0450 ha        1 NDV      0.124000
     35 H9          4.9230   -2.1760    5.5710 ha        1 NDV      0.133500
     36 H10         5.3000    0.0330    4.8470 ha        1 NDV      0.133500
     37 H11         3.8120    1.2440    3.7120 ha        1 NDV      0.171000
     38 H12        -3.0880    1.5650   -3.7490 h1        1 NDV      0.058000
     39 H13        -1.5580    1.6150   -0.9250 h2        1 NDV      0.074000
     40 H14         0.2150   -0.6510   -0.9140 h1        1 NDV      0.168000
     41 H15         1.9880    0.5790   -1.7610 h4        1 NDV      0.118000
     42 H16        -2.7560   -1.6030   -4.7060 hc        1 NDV      0.088000
     43 H16A       -1.3460   -1.4730   -3.8780 hc        1 NDV      0.088000
     44 H16B       -2.5840   -2.3860   -3.2950 hc        1 NDV      0.088000
@<TRIPOS>BOND
     1    1   14 1   
     2    1   25 1   
     3    1   26 1   
     4    1   27 1   
     5    2    8 1   
     6    2   22 1   
     7    2   28 1   
     8    3    5 1   
     9    4   14 1   
    10    4   21 1   
    11    5    7 1   
    12    5   20 1   
    13    6   11 1   
    14    6   29 1   
    15    6   30 1   
    16    8   10 1   
    17    8   11 1   
    18    9   20 1   
    19    9   21 1   
    20    9   31 1   
    21   11   13 1   
    22   11   32 1   
    23   12   23 1   
    24   13   15 1   
    25   13   19 1   
    26   14   20 1   
    27   14   24 1   
    28   15   16 1   
    29   15   33 1   
    30   16   34 1   
    31   17   18 1   
    32   17   35 1   
    33   18   36 1   
    34   19   37 1   
    35   20   38 1   
    36   21   22 1   
    37   21   39 1   
    38   22   23 1   
    39   22   40 1   
    40   23   41 1   
    41   24   42 1   
    42   24   43 1   
    43   24   44 1   
@<TRIPOS>SUBSTRUCTURE
     1 NDV         1 TEMP              0 ****  ****    0 ROOT
