@<TRIPOS>MOLECULE
NDV
   46    43     1     0     0
SMALL
bcc


@<TRIPOS>ATOM
      1 C1          1.2380    1.7520    1.2410 c3        1 NDV     -0.184000
      2 N1          4.3040   -2.9170    2.4740 n4        1 NDV     -0.094000
      3 S1          5.8380    0.6500    0.9860 ss        1 NDV      1.170000
      4 C2          4.8360   -4.4850   -1.4680 c1        1 NDV      0.440000
      5 N2          5.4600   -6.2660    3.4090 n3        1 NDV     -0.348000
      6 O2          4.8860   -4.0490   -0.3530 o         1 NDV     -0.218500
      7 C3          4.9210   -3.9110    3.4200 c2        1 NDV      0.255000
      8 N3          3.3450   -0.3390    1.5060 n3        1 NDV     -0.264000
      9 O3          4.6910   -3.7420    4.6070 o         1 NDV     -0.183000
     10 C4          5.7910   -5.0120    2.7800 c3        1 NDV      0.027000
     11 C5          7.2250   -4.5370    2.8800 c2        1 NDV     -0.207000
     12 C6          1.4370    0.6230    0.3040 c2        1 NDV     -0.124000
     13 C7          7.8950   -4.2560    1.5890 c3        1 NDV     -0.201000
     14 C8          7.1660    0.3200    1.0730 c1        1 NDV     -0.824000
     15 C9          8.5250    0.0440    1.1480 c2        1 NDV     -0.335000
     16 C10         9.0950   -1.1270    1.3810 c1        1 NDV      0.249000
     17 C11         7.8520   -4.4350    4.0560 c2        1 NDV     -0.158000
     18 C12         2.4360   -0.2810    0.4330 c2        1 NDV     -0.128000
     19 C13         4.6880   -0.7790    1.1900 c3        1 NDV     -0.464000
     20 C14         5.2130   -1.7510    2.2480 c3        1 NDV     -0.096000
     21 C15         0.4470   -4.0870    2.2010 c1        1 NDV      0.297000
     22 C16         0.4570    0.5070   -0.8010 c3        1 NDV     -0.184000
     23 H1          0.9420    1.3760    2.2530 hc        1 NDV      0.089667
     24 H1A         0.4310    2.4360    0.8760 hc        1 NDV      0.089667
     25 H1B         2.1750    2.3530    1.3510 hc        1 NDV      0.089667
     26 HN1         4.0890   -3.3690    1.5770 hn        1 NDV      0.268000
     27 HN3         3.3540    0.5070    2.0480 hn        1 NDV      0.181000
     28 H4          5.5150   -5.1120    1.6830 h1        1 NDV      0.137000
     29 H7          7.1620   -3.9380    0.8060 hc        1 NDV      0.099667
     30 H8          8.4140   -5.1780    1.2210 hc        1 NDV      0.099667
     31 H9          8.6660   -3.4480    1.7020 hc        1 NDV      0.099667
     32 H10         9.2290    0.9030    0.9950 ha        1 NDV      0.210000
     33 H11         8.9040   -4.1210    4.1300 ha        1 NDV      0.140500
     34 H12         2.5430   -1.1030   -0.2990 h4        1 NDV      0.134000
     35 H13         6.2120   -2.1570    1.9140 hx        1 NDV      0.136000
     36 H14         4.6950   -1.3130    0.1970 h2        1 NDV      0.124000
     37 H15         5.3330   -1.2350    3.2440 hx        1 NDV      0.136000
     38 H16         0.6600   -0.3770   -1.4530 hc        1 NDV      0.089667
     39 H16A        0.4900    1.4290   -1.4360 hc        1 NDV      0.089667
     40 H16B       -0.5780    0.4100   -0.3850 hc        1 NDV      0.089667
     41 O4          1.5930   -3.8160    2.2210 o         1 NDV     -0.294000
     42 HN2         5.8050   -7.0380    2.8750 hn        1 NDV      0.187500
     43 H121        3.4120   -2.5750    2.8660 hn        1 NDV      0.268000
     44 H22         5.7880   -6.3140    4.3540 hn        1 NDV      0.187500
     45 O1          4.7900   -4.9120   -2.5690 o         1 NDV     -0.218500
     46 HN2A        7.3590   -4.6530    5.0150 ha        1 NDV      0.140500
@<TRIPOS>BOND
     1    1   12 1   
     2    1   23 1   
     3    1   24 1   
     4    1   25 1   
     5    2    7 1   
     6    2   20 1   
     7    2   26 1   
     8    2   43 1   
     9    3   14 1   
    10    3   19 1   
    11    4    6 1   
    12    4   45 1   
    13    5   10 1   
    14    5   42 1   
    15    5   44 1   
    16    7    9 1   
    17    7   10 1   
    18    8   18 1   
    19    8   19 1   
    20    8   27 1   
    21   10   11 1   
    22   10   28 1   
    23   11   13 1   
    24   11   17 1   
    25   12   18 1   
    26   12   22 1   
    27   13   29 1   
    28   13   30 1   
    29   13   31 1   
    30   14   15 1   
    31   15   16 1   
    32   15   32 1   
    33   17   33 1   
    34   17   46 1   
    35   18   34 1   
    36   19   20 1   
    37   19   36 1   
    38   20   35 1   
    39   20   37 1   
    40   21   41 1   
    41   22   38 1   
    42   22   39 1   
    43   22   40 1   
@<TRIPOS>SUBSTRUCTURE
     1 NDV         1 TEMP              0 ****  ****    0 ROOT
