@<TRIPOS>MOLECULE
NDV
   46    41     1     0     0
SMALL
bcc


@<TRIPOS>ATOM
      1 C1          1.6130    0.2070    0.6190 c3        1 NDV     -0.207500
      2 N1          3.8520   -5.0250    1.6000 n2        1 NDV     -0.248000
      3 S1          4.3510    0.5840    1.0610 ss        1 NDV     -0.248000
      4 C2          3.8000   -9.2140    1.9850 c1        1 NDV      0.433000
      5 N2          4.8960   -2.2020    2.1090 nz        1 NDV     -0.148000
      6 O2          3.6370   -8.0340    1.8850 o         1 NDV     -0.216000
      7 C3          5.4940    0.3020    3.1510 c1        1 NDV      0.125000
      8 N3          3.7830    2.6160   -0.5060 n7        1 NDV     -0.180000
      9 O3          5.8050    1.2910    3.6940 o         1 NDV     -0.120000
     10 C4          6.0570   -3.4580   -0.3760 c2        1 NDV     -0.063000
     11 C5          6.6680   -3.4000    0.8260 c2        1 NDV     -0.271000
     12 C6          2.5310    1.3120    1.0620 c3        1 NDV     -0.031000
     13 C7          8.1090   -3.8060    0.9860 c3        1 NDV     -0.175000
     14 C8          8.3660   -5.0960    1.6090 c1        1 NDV     -0.080000
     15 C9          9.3530   -4.9340    3.6700 c1        1 NDV     -0.187500
     16 C10         8.2720   -4.4520    3.8990 c1        1 NDV     -0.187500
     17 C11         6.0210   -3.0730    2.0640 c1        1 NDV      0.095000
     18 C12         2.6350    2.4010    0.0720 c1        1 NDV     -0.043000
     19 C13         4.9280    1.7730   -0.1620 c3        1 NDV     -0.167000
     20 C14         2.6180   -5.1520    1.9100 c2        1 NDV     -0.118000
     21 C15         1.7100   -3.9680    2.0560 c2        1 NDV      0.224000
     22 C16         2.2250    1.8140    2.4450 c3        1 NDV     -0.207500
     23 H1          1.8650   -0.1360   -0.4140 hc        1 NDV      0.104333
     24 H1A         0.5570    0.5800    0.6200 hc        1 NDV      0.104333
     25 H1B         1.6830   -0.6620    1.3190 hc        1 NDV      0.104333
     26 HN1         6.5910   -3.7810   -1.2840 ha        1 NDV      0.138500
     27 HN3         2.1030   -6.1240    2.0890 h4        1 NDV      0.147000
     28 H4          4.9880   -3.2440   -0.5240 ha        1 NDV      0.138500
     29 H7          8.6640   -3.0100    1.5590 hc        1 NDV      0.148000
     30 H8          8.5970   -3.8600   -0.0340 hc        1 NDV      0.148000
     31 H9          7.5020   -5.7260    1.8630 ha        1 NDV      0.053000
     32 H10        10.3070   -5.3660    3.4760 ha        1 NDV      0.235500
     33 H11         7.3320   -4.0170    4.1350 ha        1 NDV      0.235500
     34 H12         3.9160    3.3430   -1.1760 hn        1 NDV      0.279000
     35 H13         5.7550    2.3880    0.2760 h2        1 NDV      0.131500
     36 H14         5.2980    1.2240   -1.0640 h2        1 NDV      0.131500
     37 H15         0.6270   -4.1980    1.9530 h4        1 NDV      0.140000
     38 H16         2.1940    0.9650    3.1690 hc        1 NDV      0.104333
     39 H16A        2.9880    2.5550    2.7840 hc        1 NDV      0.104333
     40 H16B        1.2230    2.3150    2.4440 hc        1 NDV      0.104333
     41 O4          2.1230   -2.8280    2.2860 o         1 NDV     -0.320000
     42 HN2         4.1910   -2.6300    2.7290 hn        1 NDV      0.273667
     43 H121        4.3710   -5.8780    1.5160 hn        1 NDV      0.186000
     44 H22         5.2120   -1.2670    2.5760 hn        1 NDV      0.273667
     45 O1          3.9610  -10.3820    2.0850 o         1 NDV     -0.216000
     46 HN2A        4.4390   -1.9520    1.2210 hn        1 NDV      0.273667
@<TRIPOS>BOND
     1    1   12 1   
     2    1   23 1   
     3    1   24 1   
     4    1   25 1   
     5    2   20 1   
     6    2   43 1   
     7    3   12 1   
     8    3   19 1   
     9    4    6 1   
    10    4   45 1   
    11    5   17 1   
    12    5   42 1   
    13    5   44 1   
    14    5   46 1   
    15    7    9 1   
    16    8   18 1   
    17    8   19 1   
    18    8   34 1   
    19   10   11 1   
    20   10   26 1   
    21   10   28 1   
    22   11   13 1   
    23   11   17 1   
    24   12   18 1   
    25   12   22 1   
    26   13   14 1   
    27   13   29 1   
    28   13   30 1   
    29   14   31 1   
    30   15   16 1   
    31   15   32 1   
    32   16   33 1   
    33   19   35 1   
    34   19   36 1   
    35   20   21 1   
    36   20   27 1   
    37   21   37 1   
    38   21   41 1   
    39   22   38 1   
    40   22   39 1   
    41   22   40 1   
@<TRIPOS>SUBSTRUCTURE
     1 NDV         1 TEMP              0 ****  ****    0 ROOT
