@<TRIPOS>MOLECULE
NDV
   46    41     1     0     0
SMALL
bcc


@<TRIPOS>ATOM
      1 C1          1.1340    0.7750    2.2250 c3        1 NDV     -0.159000
      2 N1          5.6140   -1.7950    1.6750 n3        1 NDV     -0.150000
      3 S1          1.7590   -1.8590    2.8320 ss        1 NDV      0.239000
      4 C2          1.1130   -2.9790   -3.6680 c1        1 NDV      0.427000
      5 N2          6.5530   -2.7490    4.3910 n3        1 NDV     -0.389000
      6 O2          1.6300   -2.5880   -2.6650 o         1 NDV     -0.213000
      7 C3          3.9300   -1.6010    3.8720 c1        1 NDV      0.131500
      8 N3          2.6430   -2.1300    0.3410 n3        1 NDV     -0.284000
      9 O3          3.7990   -1.5670    5.0390 o         1 NDV     -0.154000
     10 C4          6.9860   -4.1110    4.1620 c3        1 NDV     -0.065000
     11 C5          7.8630   -4.2990    2.9540 c2        1 NDV     -0.030000
     12 C6          1.6680   -0.5110    1.7690 c2        1 NDV     -0.312000
     13 C7          8.0360   -5.7130    2.5330 c3        1 NDV     -0.188000
     14 C8          9.7630   -1.4590    1.1900 c1        1 NDV     -0.094000
     15 C9         10.4730   -0.5330    0.6160 c2        1 NDV     -0.117000
     16 C10         9.0870   -2.3770    1.7500 c1        1 NDV     -0.090000
     17 C11         8.4580   -3.3080    2.3320 c1        1 NDV     -0.144000
     18 C12         2.1080   -0.8160    0.5150 c2        1 NDV     -0.061000
     19 C13         2.3440   -2.9550    1.4990 c3        1 NDV     -0.209000
     20 C14         5.5540   -1.1450    0.5680 c2        1 NDV      0.072000
     21 C15        -0.0760   -5.4570    1.1840 c1        1 NDV      0.131500
     22 C16         2.0880    0.1200   -0.6360 c3        1 NDV     -0.172000
     23 H1          0.2370    1.0630    1.6170 hc        1 NDV      0.101000
     24 H1A         1.9000    1.5850    2.1180 hc        1 NDV      0.101000
     25 H1B         0.8220    0.7240    3.2990 hc        1 NDV      0.101000
     26 HN1         6.3660   -2.4430    1.8750 hn        1 NDV      0.307500
     27 HN3         2.3460   -2.5490   -0.5240 hn        1 NDV      0.216000
     28 H4          6.0610   -4.7460    4.0300 h1        1 NDV      0.098500
     29 H7          7.0490   -6.1520    2.2410 hc        1 NDV      0.101333
     30 H8          8.4490   -6.3110    3.3850 hc        1 NDV      0.101333
     31 H9          8.7370   -5.8000    1.6670 hc        1 NDV      0.101333
     32 H10        10.1160    0.0370   -0.2550 ha        1 NDV      0.152500
     33 H11        11.4830   -0.2730    0.9740 ha        1 NDV      0.152500
     34 H12         4.7270   -0.4270    0.3710 h4        1 NDV      0.187500
     35 H13         3.2850   -3.4540    1.8430 h2        1 NDV      0.126000
     36 H14         1.5680   -3.7460    1.3070 h2        1 NDV      0.126000
     37 H15         6.3170   -1.2820   -0.2290 h4        1 NDV      0.187500
     38 H16         3.0860    0.6150   -0.7540 hc        1 NDV      0.101333
     39 H16A        1.8420   -0.4110   -1.5910 hc        1 NDV      0.101333
     40 H16B        1.3210    0.9160   -0.4610 hc        1 NDV      0.101333
     41 O4         -0.9800   -6.1940    1.2500 o         1 NDV     -0.154000
     42 HN2         6.0110   -2.7030    5.2340 hn        1 NDV      0.163000
     43 H121        4.9020   -1.6920    2.4470 hn        1 NDV      0.307500
     44 H22         7.5570   -4.5390    5.0420 h1        1 NDV      0.098500
     45 O1          0.6010   -3.3680   -4.6630 o         1 NDV     -0.213000
     46 HN2A        7.3440   -2.1390    4.4830 hn        1 NDV      0.163000
@<TRIPOS>BOND
     1    1   12 1   
     2    1   23 1   
     3    1   24 1   
     4    1   25 1   
     5    2   20 1   
     6    2   26 1   
     7    2   43 1   
     8    3   12 1   
     9    3   19 1   
    10    4    6 1   
    11    4   45 1   
    12    5   10 1   
    13    5   42 1   
    14    5   46 1   
    15    7    9 1   
    16    8   18 1   
    17    8   19 1   
    18    8   27 1   
    19   10   11 1   
    20   10   28 1   
    21   10   44 1   
    22   11   13 1   
    23   11   17 1   
    24   12   18 1   
    25   13   29 1   
    26   13   30 1   
    27   13   31 1   
    28   14   15 1   
    29   14   16 1   
    30   15   32 1   
    31   15   33 1   
    32   16   17 1   
    33   18   22 1   
    34   19   35 1   
    35   19   36 1   
    36   20   34 1   
    37   20   37 1   
    38   21   41 1   
    39   22   38 1   
    40   22   39 1   
    41   22   40 1   
@<TRIPOS>SUBSTRUCTURE
     1 NDV         1 TEMP              0 ****  ****    0 ROOT
