@<TRIPOS>MOLECULE
NDY
   38    39     1     0     0
SMALL
bcc


@<TRIPOS>ATOM
      1 CAK        -0.6050   -0.0430    0.2150 ca        1 NDY     -0.128000
      2 CAI         0.6230    0.3110   -0.3400 ca        1 NDY     -0.138000
      3 CAH         1.7330    0.5140    0.4810 ca        1 NDY     -0.148000
      4 CAJ         1.6110    0.3580    1.8600 ca        1 NDY     -0.138000
      5 CAL         0.3830    0.0030    2.4200 ca        1 NDY     -0.128000
      6 CAQ        -0.7350   -0.1980    1.6020 ca        1 NDY     -0.057300
      7 CAM        -2.0540   -0.5410    2.1990 c3        1 NDY     -0.041100
      8 CAR        -2.6530   -1.8320    1.6200 c3        1 NDY      0.199300
      9 OAC        -2.4030   -2.8530    2.5860 oh        1 NDY     -0.617800
     10 CAP        -4.1140   -1.6660    1.3210 c2        1 NDY     -0.216400
     11 CAG        -5.0770   -2.0020    2.1910 c2        1 NDY     -0.082200
     12 CAU        -6.5480   -1.8430    1.9600 c3        1 NDY      0.039000
     13 CAO        -7.1350   -0.9510    3.1250 c         1 NDY      0.908600
     14 OAB        -7.6820   -1.5890    4.0660 o         1 NDY     -0.813300
     15 OAA        -7.0300    0.2970    3.0370 o         1 NDY     -0.813300
     16 OAF        -7.1380   -3.1410    1.9950 oh        1 NDY     -0.634800
     17 CAN        -6.8920   -1.2110    0.6130 c3        1 NDY     -0.098400
     18 CAS        -5.8560   -1.5200   -0.4510 c3        1 NDY      0.106100
     19 OAD        -6.1640   -0.9110   -1.7000 oh        1 NDY     -0.625800
     20 CAT        -4.4620   -1.0440    0.0050 c3        1 NDY      0.165300
     21 OAE        -3.4750   -1.3610   -0.9750 oh        1 NDY     -0.622800
     22 HAK        -1.4840   -0.2130   -0.4310 ha        1 NDY      0.145500
     23 HAI         0.7160    0.4300   -1.4290 ha        1 NDY      0.118500
     24 HAH         2.7000    0.7930    0.0410 ha        1 NDY      0.116000
     25 HAJ         2.4830    0.5130    2.5110 ha        1 NDY      0.118500
     26 HAL         0.2930   -0.1240    3.5090 ha        1 NDY      0.145500
     27 HAM1       -1.9640   -0.6590    3.3120 hc        1 NDY      0.069700
     28 HAM2       -2.7670    0.3060    2.0030 hc        1 NDY      0.069700
     29 HAR        -2.1150   -2.1230    0.6700 h1        1 NDY      0.058700
     30 HAC        -2.9990   -3.5830    2.3830 ho        1 NDY      0.404000
     31 HAG        -4.8270   -2.4290    3.1780 ha        1 NDY      0.137000
     32 HAT        -4.4710    0.0810    0.1190 h1        1 NDY      0.042700
     33 HAF        -7.5790   -3.2280    2.8570 ho        1 NDY      0.431000
     34 HAN1       -6.9650   -0.0990    0.7590 hc        1 NDY      0.067200
     35 HAN2       -7.8910   -1.5890    0.2750 hc        1 NDY      0.067200
     36 HAS        -5.8260   -2.6220   -0.6800 h1        1 NDY      0.085700
     37 HAD        -6.4260   -0.0010   -1.5150 ho        1 NDY      0.399000
     38 HAE        -3.9210   -1.3300   -1.8320 ho        1 NDY      0.409000
@<TRIPOS>BOND
     1    1    2 ar  
     2    1    6 ar  
     3    1   22 1   
     4    2    3 ar  
     5    2   23 1   
     6    3    4 ar  
     7    3   24 1   
     8    4    5 ar  
     9    4   25 1   
    10    5    6 ar  
    11    5   26 1   
    12    6    7 1   
    13    7    8 1   
    14    7   27 1   
    15    7   28 1   
    16    8    9 1   
    17    8   10 1   
    18    8   29 1   
    19    9   30 1   
    20   10   11 2   
    21   10   20 1   
    22   11   12 1   
    23   11   31 1   
    24   12   13 1   
    25   12   16 1   
    26   12   17 1   
    27   13   14 1   
    28   13   15 1   
    29   16   33 1   
    30   17   18 1   
    31   17   34 1   
    32   17   35 1   
    33   18   19 1   
    34   18   20 1   
    35   18   36 1   
    36   19   37 1   
    37   20   21 1   
    38   20   32 1   
    39   21   38 1   
@<TRIPOS>SUBSTRUCTURE
     1 NDY         1 TEMP              0 ****  ****    0 ROOT
