@<TRIPOS>MOLECULE
NDY
   38    39     1     0     0
SMALL
bcc


@<TRIPOS>ATOM
      1 CAK        -0.6070   -0.0310    0.2100 ca        1 NDY     -0.128000
      2 CAI         0.6170    0.3320   -0.3480 ca        1 NDY     -0.138000
      3 CAH         1.7340    0.5160    0.4680 ca        1 NDY     -0.148000
      4 CAJ         1.6230    0.3330    1.8450 ca        1 NDY     -0.138000
      5 CAL         0.4000   -0.0300    2.4070 ca        1 NDY     -0.128000
      6 CAQ        -0.7260   -0.2140    1.5950 ca        1 NDY     -0.057300
      7 CAM        -2.0410   -0.5660    2.1960 c3        1 NDY     -0.041100
      8 CAR        -2.6470   -1.8440    1.5970 c3        1 NDY      0.199300
      9 OAC        -2.3920   -2.8850    2.5400 oh        1 NDY     -0.617800
     10 CAP        -4.1090   -1.6690    1.3130 c2        1 NDY     -0.216400
     11 CAG        -5.0670   -2.0190    2.1840 c2        1 NDY     -0.082200
     12 CAU        -6.5400   -1.8530    1.9670 c3        1 NDY      0.039000
     13 CAO        -7.1150   -0.9820    3.1530 c         1 NDY      0.908600
     14 OAB        -7.6560   -1.6360    4.0860 o         1 NDY     -0.813300
     15 OAA        -7.0070    0.2680    3.0880 o         1 NDY     -0.813300
     16 OAF        -7.1320   -3.1500    1.9820 oh        1 NDY     -0.634800
     17 CAN        -6.8920   -1.1940    0.6350 c3        1 NDY     -0.098400
     18 CAS        -5.8650   -1.4850   -0.4430 c3        1 NDY      0.106100
     19 OAD        -6.1820   -0.8520   -1.6770 oh        1 NDY     -0.625800
     20 CAT        -4.4670   -1.0210    0.0110 c3        1 NDY      0.165300
     21 OAE        -3.4890   -1.3220   -0.9830 oh        1 NDY     -0.622800
     22 HAK        -1.4920   -0.1870   -0.4320 ha        1 NDY      0.145500
     23 HAI         0.7010    0.4710   -1.4350 ha        1 NDY      0.118500
     24 HAH         2.6980    0.8030    0.0250 ha        1 NDY      0.116000
     25 HAJ         2.5010    0.4740    2.4910 ha        1 NDY      0.118500
     26 HAL         0.3180   -0.1790    3.4940 ha        1 NDY      0.145500
     27 HAM1       -1.9410   -0.7070    3.3050 hc        1 NDY      0.069700
     28 HAM2       -2.7530    0.2860    2.0230 hc        1 NDY      0.069700
     29 HAR        -2.1170   -2.1180    0.6370 h1        1 NDY      0.058700
     30 HAC        -2.9920   -3.6090    2.3280 ho        1 NDY      0.404000
     31 HAG        -4.8100   -2.4660    3.1600 ha        1 NDY      0.137000
     32 HAT        -4.4720    0.1010    0.1460 h1        1 NDY      0.042700
     33 HAF        -7.5660   -3.2520    2.8460 ho        1 NDY      0.431000
     34 HAN1       -7.8950   -1.5630    0.2980 hc        1 NDY      0.067200
     35 HAN2       -6.9610   -0.0850    0.8030 hc        1 NDY      0.067200
     36 HAS        -5.8400   -2.5830   -0.6930 h1        1 NDY      0.085700
     37 HAD        -6.4400    0.0550   -1.4740 ho        1 NDY      0.399000
     38 HAE        -3.9410   -1.2740   -1.8350 ho        1 NDY      0.409000
@<TRIPOS>BOND
     1    1    2 ar  
     2    1    6 ar  
     3    1   22 1   
     4    2    3 ar  
     5    2   23 1   
     6    3    4 ar  
     7    3   24 1   
     8    4    5 ar  
     9    4   25 1   
    10    5    6 ar  
    11    5   26 1   
    12    6    7 1   
    13    7    8 1   
    14    7   27 1   
    15    7   28 1   
    16    8    9 1   
    17    8   10 1   
    18    8   29 1   
    19    9   30 1   
    20   10   11 2   
    21   10   20 1   
    22   11   12 1   
    23   11   31 1   
    24   12   13 1   
    25   12   16 1   
    26   12   17 1   
    27   13   14 1   
    28   13   15 1   
    29   16   33 1   
    30   17   18 1   
    31   17   34 1   
    32   17   35 1   
    33   18   19 1   
    34   18   20 1   
    35   18   36 1   
    36   19   37 1   
    37   20   21 1   
    38   20   32 1   
    39   21   38 1   
@<TRIPOS>SUBSTRUCTURE
     1 NDY         1 TEMP              0 ****  ****    0 ROOT
