@<TRIPOS>MOLECULE
NDZ
   36    37     1     0     0
SMALL
bcc


@<TRIPOS>ATOM
      1 O           0.2350    0.6690   -0.3450 o         1 NDZ     -0.801300
      2 C           1.2690   -0.0510   -0.2500 c         1 NDZ      0.918600
      3 OXT         1.7660   -0.7800   -1.1340 o         1 NDZ     -0.801300
      4 CA          2.0170    0.0040    1.1410 c3        1 NDZ     -0.029500
      5 N           1.1050    0.5730    2.1780 n4        1 NDZ     -0.839600
      6 CB          2.5580   -1.3680    1.5220 c3        1 NDZ     -0.061400
      7 CAJ         2.9860   -1.4790    2.9820 c3        1 NDZ      0.002800
      8 CAD         3.7210   -0.1950    3.4640 c         1 NDZ      0.898600
      9 OAA         3.0590    0.6110    4.2020 o         1 NDZ     -0.817800
     10 OAE         4.9050   -0.0040    3.1080 o         1 NDZ     -0.817800
     11 CAR         3.8300   -2.7240    3.2580 c3        1 NDZ     -0.089400
     12 OAI         1.7660   -1.6310    3.7550 os        1 NDZ     -0.443600
     13 CAH         1.9180   -2.6230    4.7710 c3        1 NDZ      0.093100
     14 CAQ         3.2890   -3.2990    4.5750 c3        1 NDZ      0.120100
     15 OAP         4.2780   -3.0370    5.5650 os        1 NDZ     -0.401600
     16 CAO         3.7790   -2.9710    6.8890 c3        1 NDZ      0.095400
     17 CAF         2.8090   -1.8060    7.0660 c3        1 NDZ      0.095100
     18 OAB         3.4550   -0.5640    6.9200 oh        1 NDZ     -0.597800
     19 CAG         1.6030   -1.9660    6.1280 c3        1 NDZ      0.120100
     20 OAC         0.9600   -0.7260    5.9360 oh        1 NDZ     -0.610800
     21 HA          2.8790    0.7250    1.0360 hx        1 NDZ      0.097700
     22 HN          0.5440   -0.1800    2.5810 hn        1 NDZ      0.455800
     23 HNA         0.4860    1.2440    1.7070 hn        1 NDZ      0.455800
     24 HB          1.7880   -2.1510    1.2960 hc        1 NDZ      0.076200
     25 HBA         3.4470   -1.5570    0.8640 hc        1 NDZ      0.076200
     26 HAR         4.9110   -2.4410    3.3540 hc        1 NDZ      0.077700
     27 HARA        3.7210   -3.4770    2.4410 hc        1 NDZ      0.077700
     28 HAH         1.1120   -3.3840    4.5610 h1        1 NDZ      0.044700
     29 HAQ         3.1550   -4.4140    4.5230 h1        1 NDZ      0.035700
     30 HAO         3.2830   -3.9360    7.1690 h1        1 NDZ      0.045200
     31 HAOA        4.7000   -2.8100    7.5110 h1        1 NDZ      0.045200
     32 HAF         2.4390   -1.7920    8.1320 h1        1 NDZ      0.063700
     33 HOAB        3.6750   -0.4380    5.9800 ho        1 NDZ      0.451000
     34 HAG         0.8340   -2.6040    6.6520 h1        1 NDZ      0.052700
     35 HOAC        1.5760   -0.1500    5.4450 ho        1 NDZ      0.456000
     36 HN3         1.6540    1.0070    2.9420 hn        1 NDZ      0.455800
@<TRIPOS>BOND
     1    1    2 1   
     2    2    3 1   
     3    2    4 1   
     4    4    5 1   
     5    4    6 1   
     6    4   21 1   
     7    5   22 1   
     8    5   23 1   
     9    5   36 1   
    10    6    7 1   
    11    6   24 1   
    12    6   25 1   
    13    7    8 1   
    14    7   11 1   
    15    7   12 1   
    16    8    9 1   
    17    8   10 1   
    18   11   14 1   
    19   11   26 1   
    20   11   27 1   
    21   12   13 1   
    22   13   14 1   
    23   13   19 1   
    24   13   28 1   
    25   14   15 1   
    26   14   29 1   
    27   15   16 1   
    28   16   17 1   
    29   16   30 1   
    30   16   31 1   
    31   17   18 1   
    32   17   19 1   
    33   17   32 1   
    34   18   33 1   
    35   19   20 1   
    36   19   34 1   
    37   20   35 1   
@<TRIPOS>SUBSTRUCTURE
     1 NDZ         1 TEMP              0 ****  ****    0 ROOT
