@<TRIPOS>MOLECULE
NDZ
   35    36     1     0     0
SMALL
bcc


@<TRIPOS>ATOM
      1 O           3.9390   -1.5700    1.4410 o         1 NDZ     -0.867300
      2 C           4.0030   -0.6300    0.5940 c         1 NDZ      0.916600
      3 OXT         5.0410    0.0710    0.4180 o         1 NDZ     -0.867300
      4 CA          2.7350   -0.2910   -0.2550 c3        1 NDZ      0.056500
      5 N           2.2360   -1.4540   -0.9590 n3        1 NDZ     -0.894800
      6 CB          1.7480    0.3970    0.7040 c3        1 NDZ     -0.084400
      7 CAJ         0.2830    0.4680    0.2840 c3        1 NDZ      0.029800
      8 CAD         0.0480    1.0650   -1.1300 c         1 NDZ      0.920600
      9 OAA         0.3570    2.2680   -1.3310 o         1 NDZ     -0.839800
     10 OAE        -0.5100    0.3300   -2.0040 o         1 NDZ     -0.839800
     11 CAR        -0.5280    1.2780    1.3120 c3        1 NDZ     -0.096400
     12 OAI        -0.2500   -0.8830    0.3160 os        1 NDZ     -0.399600
     13 CAH        -1.5000   -0.9380    0.9910 c3        1 NDZ      0.096100
     14 CAQ        -1.7620    0.4330    1.6430 c3        1 NDZ      0.119100
     15 OAP        -2.9010    1.1710    1.2050 os        1 NDZ     -0.410600
     16 CAO        -4.0080    0.3830    0.8180 c3        1 NDZ      0.103400
     17 CAF        -3.6820   -0.5370   -0.3570 c3        1 NDZ      0.104100
     18 OAB        -3.4250    0.2050   -1.5240 oh        1 NDZ     -0.618800
     19 CAG        -2.5580   -1.5110    0.0300 c3        1 NDZ      0.130100
     20 OAC        -1.9750   -2.0610   -1.1250 oh        1 NDZ     -0.624800
     21 HA          3.0310    0.4610   -1.0430 h1        1 NDZ      0.055700
     22 HN          2.1110   -2.2020   -0.3020 hn        1 NDZ      0.339800
     23 HNA         1.3370   -1.2370   -1.3590 hn        1 NDZ      0.339800
     24 HB          1.7970   -0.1370    1.6920 hc        1 NDZ      0.043200
     25 HBA         2.0980    1.4520    0.8490 hc        1 NDZ      0.043200
     26 HAR         0.0640    1.4580    2.2430 hc        1 NDZ      0.064200
     27 HARA       -0.8190    2.2670    0.8760 hc        1 NDZ      0.064200
     28 HAH        -1.3570   -1.6960    1.8160 h1        1 NDZ      0.034700
     29 HAQ        -1.8850    0.2930    2.7540 h1        1 NDZ      0.016700
     30 HAO        -4.3760   -0.2230    1.6890 h1        1 NDZ      0.025700
     31 HAOA       -4.7820    1.1380    0.5180 h1        1 NDZ      0.025700
     32 HAF        -4.6060   -1.1350   -0.6090 h1        1 NDZ      0.035700
     33 HOAB       -2.4770    0.4430   -1.5420 ho        1 NDZ      0.469000
     34 HAG        -3.0460   -2.3900    0.5470 h1        1 NDZ      0.027700
     35 HOAC       -1.3030   -1.4290   -1.4630 ho        1 NDZ      0.481000
@<TRIPOS>BOND
     1    1    2 1   
     2    2    3 1   
     3    2    4 1   
     4    4    5 1   
     5    4    6 1   
     6    4   21 1   
     7    5   22 1   
     8    5   23 1   
     9    6    7 1   
    10    6   24 1   
    11    6   25 1   
    12    7    8 1   
    13    7   11 1   
    14    7   12 1   
    15    8    9 1   
    16    8   10 1   
    17   11   14 1   
    18   11   26 1   
    19   11   27 1   
    20   12   13 1   
    21   13   14 1   
    22   13   19 1   
    23   13   28 1   
    24   14   15 1   
    25   14   29 1   
    26   15   16 1   
    27   16   17 1   
    28   16   30 1   
    29   16   31 1   
    30   17   18 1   
    31   17   19 1   
    32   17   32 1   
    33   18   33 1   
    34   19   20 1   
    35   19   34 1   
    36   20   35 1   
@<TRIPOS>SUBSTRUCTURE
     1 NDZ         1 TEMP              0 ****  ****    0 ROOT
