@<TRIPOS>MOLECULE
NDZ
   36    37     1     0     0
SMALL
bcc


@<TRIPOS>ATOM
      1 O           0.2580    0.6550   -0.3640 o         1 NDZ     -0.801300
      2 C           1.3110   -0.0380   -0.2580 c         1 NDZ      0.918600
      3 OXT         1.8460   -0.7420   -1.1400 o         1 NDZ     -0.801300
      4 CA          2.0300    0.0210    1.1480 c3        1 NDZ     -0.029500
      5 N           1.0820    0.5520    2.1740 nz        1 NDZ     -0.839600
      6 CB          2.6020   -1.3390    1.5240 c3        1 NDZ     -0.061400
      7 CAJ         3.0040   -1.4550    2.9910 c3        1 NDZ      0.002800
      8 CAD         3.6930   -0.1580    3.5020 c         1 NDZ      0.898600
      9 OAA         2.9950    0.6210    4.2360 o         1 NDZ     -0.817800
     10 OAE         4.8780    0.0700    3.1710 o         1 NDZ     -0.817800
     11 CAR         3.8790   -2.6800    3.2680 c3        1 NDZ     -0.089400
     12 OAI         1.7750   -1.6510    3.7380 os        1 NDZ     -0.443600
     13 CAH         1.9350   -2.6500    4.7450 c3        1 NDZ      0.093100
     14 CAQ         3.3280   -3.2850    4.5680 c3        1 NDZ      0.120100
     15 OAP         4.2900   -3.0080    5.5800 os        1 NDZ     -0.401600
     16 CAO         3.7640   -2.9720    6.8950 c3        1 NDZ      0.095400
     17 CAF         2.7580   -1.8370    7.0660 c3        1 NDZ      0.095100
     18 OAB         3.3720   -0.5750    6.9470 oh        1 NDZ     -0.597800
     19 CAG         1.5760   -2.0190    6.1030 c3        1 NDZ      0.120100
     20 OAC         0.9020   -0.7960    5.9120 oh        1 NDZ     -0.610800
     21 HA          2.8730    0.7670    1.0690 hx        1 NDZ      0.097700
     22 HN          0.5350   -0.2210    2.5570 hn        1 NDZ      0.455800
     23 HNA         1.6040    0.9930    2.9530 hn        1 NDZ      0.455800
     24 HB          3.5090   -1.4950    0.8810 hc        1 NDZ      0.076200
     25 HBA         1.8590   -2.1400    1.2730 hc        1 NDZ      0.076200
     26 HAR         3.8060   -3.4260    2.4410 hc        1 NDZ      0.077700
     27 HARA        4.9480   -2.3680    3.3890 hc        1 NDZ      0.077700
     28 HAH         1.1550   -3.4310    4.5110 h1        1 NDZ      0.044700
     29 HAQ         3.2270   -4.4030    4.5010 h1        1 NDZ      0.035700
     30 HAO         3.2900   -3.9540    7.1540 h1        1 NDZ      0.045200
     31 HAOA        4.6680   -2.7930    7.5370 h1        1 NDZ      0.045200
     32 HAF         2.3680   -1.8470    8.1250 h1        1 NDZ      0.063700
     33 HOAB        3.6070   -0.4320    6.0130 ho        1 NDZ      0.451000
     34 HAG         0.8150   -2.6840    6.6040 h1        1 NDZ      0.052700
     35 HOAC        1.5110   -0.1960    5.4400 ho        1 NDZ      0.456000
     36 HN3         0.4540    1.2110    1.6980 hn        1 NDZ      0.455800
@<TRIPOS>BOND
     1    1    2 1   
     2    2    3 1   
     3    2    4 1   
     4    4    5 1   
     5    4    6 1   
     6    4   21 1   
     7    5   22 1   
     8    5   23 1   
     9    5   36 1   
    10    6    7 1   
    11    6   24 1   
    12    6   25 1   
    13    7    8 1   
    14    7   11 1   
    15    7   12 1   
    16    8    9 1   
    17    8   10 1   
    18   11   14 1   
    19   11   26 1   
    20   11   27 1   
    21   12   13 1   
    22   13   14 1   
    23   13   19 1   
    24   13   28 1   
    25   14   15 1   
    26   14   29 1   
    27   15   16 1   
    28   16   17 1   
    29   16   30 1   
    30   16   31 1   
    31   17   18 1   
    32   17   19 1   
    33   17   32 1   
    34   18   33 1   
    35   19   20 1   
    36   19   34 1   
    37   20   35 1   
@<TRIPOS>SUBSTRUCTURE
     1 NDZ         1 TEMP              0 ****  ****    0 ROOT
