@<TRIPOS>MOLECULE
NDZ
   35    35     1     0     0
SMALL
bcc


@<TRIPOS>ATOM
      1 O           0.5990   -3.8180   -3.1150 o         1 NDZ     -0.620000
      2 C           1.3560   -2.9650   -2.6490 c1        1 NDZ      0.306000
      3 OXT         2.5080   -3.2890   -2.2750 os        1 NDZ     -0.574000
      4 CA          0.8500   -1.5540   -2.4050 c3        1 NDZ     -0.126000
      5 N           0.6240   -0.9030   -3.6620 n3        1 NDZ     -0.326000
      6 CB         -0.4360   -1.6130   -1.6340 c3        1 NDZ     -0.133000
      7 CAJ        -0.3890   -0.5900   -0.4590 c3        1 NDZ      0.019000
      8 CAD         0.2390   -1.4850    0.5600 c2        1 NDZ      0.339000
      9 OAA         1.4980   -1.5650    0.6410 o         1 NDZ     -0.579500
     10 OAE        -0.4920   -2.1440    1.3620 o         1 NDZ     -0.579500
     11 CAR        -1.9970    0.0860    0.0180 c3        1 NDZ     -0.183000
     12 OAI         0.2150    0.4010   -0.6880 os        1 NDZ     -0.268000
     13 CAH        -0.4670    1.5400    0.1620 c3        1 NDZ     -0.025000
     14 CAQ        -1.7660    1.0240    0.6980 c3        1 NDZ      0.017000
     15 OAP        -1.5830    0.3080    2.0860 os        1 NDZ     -0.304000
     16 CAO        -0.8290    1.0950    3.0620 c3        1 NDZ     -0.072000
     17 CAF         0.5730    1.6250    2.4670 c3        1 NDZ      0.002000
     18 OAB         1.4180    0.5120    2.2350 oh        1 NDZ     -0.371000
     19 CAG         0.4040    2.3410    1.2380 c3        1 NDZ      0.007000
     20 OAC         1.6970    2.6090    0.6790 oh        1 NDZ     -0.343000
     21 HA          1.5120   -1.0550   -1.8950 h1        1 NDZ      0.091000
     22 HN          0.2940   -1.5030   -4.2580 hn        1 NDZ      0.115500
     23 HNA         1.3970   -0.5700   -3.9700 hn        1 NDZ      0.115500
     24 HB         -1.1840   -1.3910   -2.2300 hc        1 NDZ      0.100500
     25 HBA        -0.5580   -2.4960   -1.2840 hc        1 NDZ      0.100500
     26 HAR        -2.4960    0.3560   -0.7710 hc        1 NDZ      0.092000
     27 HARA       -2.5160   -0.5950    0.5380 hc        1 NDZ      0.092000
     28 HAH        -0.7240    2.2320   -0.5090 h1        1 NDZ      0.109000
     29 HAQ        -2.4820    1.6850    0.6940 h1        1 NDZ      0.108000
     30 HAO        -0.6540    0.5550    3.8290 h1        1 NDZ      0.110500
     31 HAOA       -1.3700    1.8640    3.3340 h1        1 NDZ      0.110500
     32 HAF         1.0110    2.2370    3.1480 h1        1 NDZ      0.072000
     33 HOAB        1.9380    0.3860    2.9350 ho        1 NDZ      0.277000
     34 HAG        -0.0380    3.1910    1.4290 h1        1 NDZ      0.090000
     35 HOAC        1.8510    3.4870    0.6910 ho        1 NDZ      0.228000
@<TRIPOS>BOND
     1    1    2 1   
     2    2    4 1   
     3    4    5 1   
     4    4    6 1   
     5    4   21 1   
     6    5   22 1   
     7    5   23 1   
     8    6    7 1   
     9    6   24 1   
    10    6   25 1   
    11    7    8 1   
    12    7   11 1   
    13    7   12 1   
    14    8    9 1   
    15    8   10 1   
    16   11   14 1   
    17   11   26 1   
    18   11   27 1   
    19   12   13 1   
    20   13   14 1   
    21   13   19 1   
    22   13   28 1   
    23   14   15 1   
    24   14   29 1   
    25   15   16 1   
    26   16   17 1   
    27   16   30 1   
    28   16   31 1   
    29   17   18 1   
    30   17   19 1   
    31   17   32 1   
    32   18   33 1   
    33   19   20 1   
    34   19   34 1   
    35   20   35 1   
@<TRIPOS>SUBSTRUCTURE
     1 NDZ         1 TEMP              0 ****  ****    0 ROOT
