@<TRIPOS>MOLECULE
NE1
   23    18     1     0     0
SMALL
bcc


@<TRIPOS>ATOM
      1 CL18       -5.4500   -0.0320   -0.0050 cl        1 NE1      0.021000
      2 C10        -3.7070   -0.0520   -0.0270 c2        1 NE1     -0.052000
      3 C9         -3.0050   -0.4850    1.0870 c2        1 NE1     -0.064000
      4 CL17       -3.8660   -1.0200    2.5060 cl        1 NE1      0.037000
      5 C8         -1.6190   -0.4690    1.0820 c1        1 NE1     -0.044000
      6 CL16       -0.7360   -0.9980    2.4900 cl        1 NE1      0.025000
      7 C11        -3.0230    0.3960   -1.1460 c1        1 NE1     -0.118000
      8 C12        -1.6370    0.4120   -1.1510 c1        1 NE1     -0.104000
      9 C7         -0.9350   -0.0210   -0.0370 c1        1 NE1     -0.024000
     10 C4          0.4500    0.0080   -0.0370 c1        1 NE1     -0.070000
     11 C3          1.1670   -1.1230   -0.3950 c1        1 NE1     -0.067000
     12 C2          2.5520   -1.1010   -0.3760 c1        1 NE1     -0.090000
     13 CL14        3.4530   -2.5400   -0.7740 cl        1 NE1      0.025000
     14 C5          1.1190    1.1610    0.3420 c1        1 NE1     -0.067000
     15 C6          2.5050    1.1840    0.3610 c1        1 NE1     -0.149000
     16 CL13        3.3460    2.6320    0.8440 cl        1 NE1     -0.004000
     17 C1          3.2210    0.0530    0.0030 c2        1 NE1      0.109000
     18 O15         4.6270    0.0900   -0.0210 oh        1 NE1     -0.226000
     19 H11        -3.5170    0.7000   -1.9310 ha        1 NE1      0.157000
     20 H12        -1.1550    0.7270   -1.9390 ha        1 NE1      0.151000
     21 H3          0.6960   -1.9290   -0.6810 ha        1 NE1      0.162000
     22 H5          0.6140    1.9580    0.5920 ha        1 NE1      0.157000
     23 HO15        4.9020    0.4470   -0.7870 ho        1 NE1      0.235000
@<TRIPOS>BOND
     1    1    2 1   
     2    2    3 1   
     3    2    7 1   
     4    3    4 1   
     5    3    5 1   
     6    5    9 1   
     7    7   19 1   
     8    8    9 1   
     9    8   20 1   
    10   10   14 1   
    11   11   12 1   
    12   11   21 1   
    13   12   17 1   
    14   14   22 1   
    15   15   16 1   
    16   15   17 1   
    17   17   18 1   
    18   18   23 1   
@<TRIPOS>SUBSTRUCTURE
     1 NE1         1 TEMP              0 ****  ****    0 ROOT
