@<TRIPOS>MOLECULE
NE1
   23    24     1     0     0
SMALL
bcc


@<TRIPOS>ATOM
      1 CL18        0.0240    0.1400   -0.1190 cl        1 NE1     -0.057400
      2 C10         1.7150    0.0720   -0.0270 ca        1 NE1      0.026400
      3 C9          2.3650   -0.0880    1.2060 ca        1 NE1      0.014400
      4 CL17        1.4620   -0.2210    2.6320 cl        1 NE1     -0.042400
      5 C8          3.7710   -0.1380    1.2480 ca        1 NE1      0.034400
      6 CL16        4.5540   -0.3530    2.7380 cl        1 NE1     -0.052400
      7 C11         2.4600    0.1750   -1.2060 ca        1 NE1     -0.118000
      8 C12         3.8480    0.1250   -1.1560 ca        1 NE1     -0.104000
      9 C7          4.5190   -0.0240    0.0650 cp        1 NE1     -0.023000
     10 C4          5.9830   -0.0640    0.0620 cp        1 NE1     -0.070000
     11 C3          6.6450   -1.0630   -0.6610 ca        1 NE1     -0.067000
     12 C2          8.0390   -1.1100   -0.6990 ca        1 NE1     -0.041100
     13 CL14        8.7900   -2.3460   -1.5850 cl        1 NE1     -0.068900
     14 C5          6.7250    0.9020    0.7490 ca        1 NE1     -0.067000
     15 C6          8.1190    0.8670    0.7150 ca        1 NE1     -0.041100
     16 CL13        8.9940    2.0590    1.5590 cl        1 NE1     -0.068900
     17 C1          8.7930   -0.1380   -0.0060 ca        1 NE1      0.154100
     18 O15        10.1590   -0.2270   -0.0780 oh        1 NE1     -0.473100
     19 H11         1.9470    0.2970   -2.1730 ha        1 NE1      0.158000
     20 H12         4.4340    0.2070   -2.0860 ha        1 NE1      0.152000
     21 H3          6.0580   -1.8240   -1.2020 ha        1 NE1      0.159500
     22 H5          6.2070    1.6910    1.3190 ha        1 NE1      0.159500
     23 HO15       10.5410    0.4920    0.4520 ho        1 NE1      0.436000
@<TRIPOS>BOND
     1    1    2 1   
     2    2    3 ar  
     3    2    7 ar  
     4    3    4 1   
     5    3    5 ar  
     6    5    6 1   
     7    5    9 ar  
     8    7    8 ar  
     9    7   19 1   
    10    8    9 ar  
    11    8   20 1   
    12    9   10 1   
    13   10   11 ar  
    14   10   14 ar  
    15   11   12 ar  
    16   11   21 1   
    17   12   13 1   
    18   12   17 ar  
    19   14   15 ar  
    20   14   22 1   
    21   15   16 1   
    22   15   17 ar  
    23   17   18 1   
    24   18   23 1   
@<TRIPOS>SUBSTRUCTURE
     1 NE1         1 TEMP              0 ****  ****    0 ROOT
