@<TRIPOS>MOLECULE
NE1
   23    24     1     0     0
SMALL
bcc


@<TRIPOS>ATOM
      1 CL18       -5.1020   -1.1510   -0.7550 cl        1 NE1     -0.057400
      2 C10        -3.4380   -0.8960   -0.5520 ca        1 NE1      0.026400
      3 C9         -2.9610    0.1570    0.2420 ca        1 NE1      0.014400
      4 CL17       -4.0480    1.1950    1.0210 cl        1 NE1     -0.042400
      5 C8         -1.5740    0.3430    0.3880 ca        1 NE1      0.034400
      6 CL16       -0.9980    1.6040    1.3670 cl        1 NE1     -0.052400
      7 C11        -2.5400   -1.7580   -1.1900 ca        1 NE1     -0.118000
      8 C12        -1.1720   -1.5680   -1.0420 ca        1 NE1     -0.104000
      9 C7         -0.6720   -0.5160   -0.2610 cp        1 NE1     -0.023000
     10 C4          0.7790   -0.3570   -0.1440 cp        1 NE1     -0.070000
     11 C3          1.5470   -1.3970    0.3940 ca        1 NE1     -0.067000
     12 C2          2.9340   -1.2790    0.4950 ca        1 NE1     -0.041100
     13 CL14        3.8150   -2.5670    1.1600 cl        1 NE1     -0.068900
     14 C5          1.4070    0.8100   -0.5900 ca        1 NE1     -0.067000
     15 C6          2.7930    0.9370   -0.4960 ca        1 NE1     -0.041100
     16 CL13        3.5290    2.3690   -1.0500 cl        1 NE1     -0.068900
     17 C1          3.5730   -0.1030    0.0480 ca        1 NE1      0.154100
     18 O15         4.9360   -0.0390    0.1680 oh        1 NE1     -0.473100
     19 H11        -2.9180   -2.5860   -1.8100 ha        1 NE1      0.158000
     20 H12        -0.4660   -2.2470   -1.5450 ha        1 NE1      0.152000
     21 H3          1.0490   -2.3160    0.7440 ha        1 NE1      0.159500
     22 H5          0.8060    1.6310   -1.0140 ha        1 NE1      0.159500
     23 HO15        5.2340    0.8250   -0.1650 ho        1 NE1      0.436000
@<TRIPOS>BOND
     1    1    2 1   
     2    2    3 ar  
     3    2    7 ar  
     4    3    4 1   
     5    3    5 ar  
     6    5    6 1   
     7    5    9 ar  
     8    7    8 ar  
     9    7   19 1   
    10    8    9 ar  
    11    8   20 1   
    12    9   10 1   
    13   10   11 ar  
    14   10   14 ar  
    15   11   12 ar  
    16   11   21 1   
    17   12   13 1   
    18   12   17 ar  
    19   14   15 ar  
    20   14   22 1   
    21   15   16 1   
    22   15   17 ar  
    23   17   18 1   
    24   18   23 1   
@<TRIPOS>SUBSTRUCTURE
     1 NE1         1 TEMP              0 ****  ****    0 ROOT
