@<TRIPOS>MOLECULE
NE1
   23    24     1     0     0
SMALL
bcc


@<TRIPOS>ATOM
      1 Cl18        0.0250    0.1530   -0.1290 cl        1 NE1     -0.057400
      2 C10         1.7150    0.0800   -0.0340 ca        1 NE1      0.026400
      3 C9          2.3630   -0.0820    1.2000 ca        1 NE1      0.014400
      4 Cl17        1.4570   -0.2150    2.6240 cl        1 NE1     -0.042400
      5 C8          3.7680   -0.1360    1.2450 ca        1 NE1      0.034400
      6 Cl16        4.5490   -0.3550    2.7360 cl        1 NE1     -0.052400
      7 C11         2.4630    0.1840   -1.2110 ca        1 NE1     -0.118000
      8 C12         3.8510    0.1300   -1.1590 ca        1 NE1     -0.104000
      9 C7          4.5190   -0.0220    0.0640 cp        1 NE1     -0.023000
     10 C4          5.9830   -0.0650    0.0630 cp        1 NE1     -0.070000
     11 C3          6.6440   -1.0650   -0.6610 ca        1 NE1     -0.067000
     12 C2          8.0380   -1.1150   -0.6960 ca        1 NE1     -0.041100
     13 Cl14        8.7880   -2.3510   -1.5830 cl        1 NE1     -0.068900
     14 C5          6.7260    0.8980    0.7530 ca        1 NE1     -0.067000
     15 C6          8.1200    0.8600    0.7210 ca        1 NE1     -0.041100
     16 Cl13        8.9960    2.0490    1.5690 cl        1 NE1     -0.068900
     17 C1          8.7930   -0.1460   -0.0000 ca        1 NE1      0.154100
     18 O15        10.1580   -0.2380   -0.0700 oh        1 NE1     -0.473100
     19 H11         1.9520    0.3080   -2.1790 ha        1 NE1      0.158000
     20 H12         4.4380    0.2120   -2.0870 ha        1 NE1      0.152000
     21 H3          6.0560   -1.8230   -1.2040 ha        1 NE1      0.159500
     22 H5          6.2090    1.6870    1.3230 ha        1 NE1      0.159500
     23 HO15       10.5420    0.4800    0.4620 ho        1 NE1      0.436000
@<TRIPOS>BOND
     1    1    2 1   
     2    2    3 ar  
     3    2    7 ar  
     4    3    4 1   
     5    3    5 ar  
     6    5    6 1   
     7    5    9 ar  
     8    7    8 ar  
     9    7   19 1   
    10    8    9 ar  
    11    8   20 1   
    12    9   10 1   
    13   10   11 ar  
    14   10   14 ar  
    15   11   12 ar  
    16   11   21 1   
    17   12   13 1   
    18   12   17 ar  
    19   14   15 ar  
    20   14   22 1   
    21   15   16 1   
    22   15   17 ar  
    23   17   18 1   
    24   18   23 1   
@<TRIPOS>SUBSTRUCTURE
     1 NE1         1 TEMP              0 ****  ****    0 ROOT
