@<TRIPOS>MOLECULE
NE2
   23    24     1     0     0
SMALL
bcc


@<TRIPOS>ATOM
      1 Cl17        0.0240    0.0530   -0.0290 cl        1 NE2     -0.065400
      2 C9          1.7190    0.0270   -0.0350 ca        1 NE2      0.018400
      3 C8          2.4000    0.0260    1.1860 ca        1 NE2     -0.108000
      4 C10         2.4390    0.0040   -1.2390 ca        1 NE2      0.019400
      5 Cl16        1.6460    0.0050   -2.7370 cl        1 NE2     -0.064400
      6 C11         3.8380   -0.0200   -1.2080 ca        1 NE2     -0.116000
      7 C12         4.5120   -0.0210    0.0090 ca        1 NE2     -0.112000
      8 C7          3.7990    0.0020    1.2160 cp        1 NE2     -0.026000
      9 C3          4.5080    0.0020    2.4940 cp        1 NE2     -0.062000
     10 C2          5.6290   -0.8150    2.6780 ca        1 NE2     -0.076000
     11 C4          4.0710    0.8200    3.5440 ca        1 NE2     -0.076000
     12 C5          4.7400    0.8300    4.7680 ca        1 NE2     -0.038600
     13 Cl14        4.1680    1.8430    6.0030 cl        1 NE2     -0.069400
     14 C6          5.8700    0.0060    4.9580 ca        1 NE2      0.151100
     15 O15         6.4900    0.0520    6.1790 oh        1 NE2     -0.472100
     16 C1          6.3040   -0.8150    3.8980 ca        1 NE2     -0.038600
     17 Cl13        7.6620   -1.8250    4.0880 cl        1 NE2     -0.069400
     18 H8          1.8310    0.0370    2.1300 ha        1 NE2      0.156000
     19 H11         4.4070   -0.0350   -2.1510 ha        1 NE2      0.154000
     20 H12         5.6130   -0.0330    0.0230 ha        1 NE2      0.145000
     21 H2          5.9740   -1.4670    1.8590 ha        1 NE2      0.157000
     22 H4          3.1920    1.4700    3.3990 ha        1 NE2      0.157000
     23 HO15        7.2420   -0.5630    6.1650 ho        1 NE2      0.436000
@<TRIPOS>BOND
     1    1    2 1   
     2    2    3 ar  
     3    2    4 ar  
     4    3    8 ar  
     5    3   18 1   
     6    4    5 1   
     7    4    6 ar  
     8    6    7 ar  
     9    6   19 1   
    10    7    8 ar  
    11    7   20 1   
    12    8    9 1   
    13    9   10 ar  
    14    9   11 ar  
    15   10   16 ar  
    16   10   21 1   
    17   11   12 ar  
    18   11   22 1   
    19   12   13 1   
    20   12   14 ar  
    21   14   15 1   
    22   14   16 ar  
    23   15   23 1   
    24   16   17 1   
@<TRIPOS>SUBSTRUCTURE
     1 NE2         1 TEMP              0 ****  ****    0 ROOT
