@<TRIPOS>MOLECULE
NE2
   23    18     1     0     0
SMALL
bcc


@<TRIPOS>ATOM
      1 CL17       -3.8940   -1.3470   -2.2450 cl        1 NE2      0.013000
      2 C9         -2.3420   -0.5620   -2.1210 c2        1 NE2     -0.060000
      3 C8         -1.6660   -0.5510   -0.9120 c2        1 NE2     -0.109000
      4 C10        -1.7780    0.0370   -3.2370 c1        1 NE2     -0.059000
      5 CL16       -2.6040   -0.0230   -4.7710 cl        1 NE2      0.018000
      6 C11        -0.5360    0.6470   -3.1420 c2        1 NE2     -0.116000
      7 C12         0.1400    0.6570   -1.9320 c1        1 NE2     -0.112000
      8 C7         -0.4240    0.0580   -0.8170 c1        1 NE2     -0.026000
      9 C3          0.2650    0.0440    0.3850 c1        1 NE2     -0.062000
     10 C2          1.1590   -0.9780    0.6590 c1        1 NE2     -0.072000
     11 C4          0.0610    1.0540    1.3130 c1        1 NE2     -0.080000
     12 C5          0.7530    1.0410    2.5140 c1        1 NE2     -0.088000
     13 CL14        0.5270    2.3320    3.6630 cl        1 NE2      0.018000
     14 C6          1.6480    0.0190    2.7880 c2        1 NE2      0.106000
     15 O15         2.3630    0.0160    3.9990 oh        1 NE2     -0.227000
     16 C1          1.8510   -0.9910    1.8600 c1        1 NE2     -0.146000
     17 CL13        2.9960   -2.2630    2.1940 cl        1 NE2     -0.004000
     18 H8         -2.0630   -0.9730   -0.1260 ha        1 NE2      0.155000
     19 H11        -0.1390    1.0690   -3.9270 ha        1 NE2      0.154000
     20 H12         1.0140    1.0870   -1.8660 ha        1 NE2      0.146000
     21 H2          1.3030   -1.6900    0.0060 ha        1 NE2      0.157000
     22 H4         -0.5560    1.7830    1.1130 ha        1 NE2      0.157000
     23 HO15        1.9220   -0.4660    4.6030 ho        1 NE2      0.235000
@<TRIPOS>BOND
     1    1    2 1   
     2    2    3 1   
     3    2    4 1   
     4    3    8 1   
     5    3   18 1   
     6    4    6 1   
     7    6    7 1   
     8    6   19 1   
     9    7   20 1   
    10    9   10 1   
    11   10   21 1   
    12   11   12 1   
    13   11   22 1   
    14   12   14 1   
    15   14   15 1   
    16   14   16 1   
    17   15   23 1   
    18   16   17 1   
@<TRIPOS>SUBSTRUCTURE
     1 NE2         1 TEMP              0 ****  ****    0 ROOT
