@<TRIPOS>MOLECULE
NE2
   23    24     1     0     0
SMALL
bcc


@<TRIPOS>ATOM
      1 CL17        0.0280    0.0290   -0.0390 cl        1 NE2     -0.065400
      2 C9          1.7240    0.0180   -0.0410 ca        1 NE2      0.018400
      3 C8          2.4010    0.0150    1.1820 ca        1 NE2     -0.108000
      4 C10         2.4470    0.0100   -1.2440 ca        1 NE2      0.019400
      5 CL16        1.6580    0.0150   -2.7430 cl        1 NE2     -0.064400
      6 C11         3.8460   -0.0010   -1.2090 ca        1 NE2     -0.116000
      7 C12         4.5170   -0.0050    0.0090 ca        1 NE2     -0.112000
      8 C7          3.8010    0.0040    1.2150 cp        1 NE2     -0.026000
      9 C3          4.5060    0.0010    2.4950 cp        1 NE2     -0.062000
     10 C2          5.6350   -0.8060    2.6760 ca        1 NE2     -0.076000
     11 C4          4.0590    0.8070    3.5500 ca        1 NE2     -0.076000
     12 C5          4.7250    0.8150    4.7750 ca        1 NE2     -0.038600
     13 CL14        4.1400    1.8130    6.0160 cl        1 NE2     -0.069400
     14 C6          5.8630   -0.0000    4.9620 ca        1 NE2      0.151100
     15 O15         6.4790    0.0430    6.1850 oh        1 NE2     -0.472100
     16 C1          6.3070   -0.8090    3.8970 ca        1 NE2     -0.038600
     17 CL13        7.6740   -1.8070    4.0830 cl        1 NE2     -0.069400
     18 H8          1.8300    0.0140    2.1240 ha        1 NE2      0.156000
     19 H11         4.4180   -0.0040   -2.1510 ha        1 NE2      0.154000
     20 H12         5.6180   -0.0060    0.0260 ha        1 NE2      0.145000
     21 H2          5.9880   -1.4490    1.8530 ha        1 NE2      0.157000
     22 H4          3.1740    1.4500    3.4070 ha        1 NE2      0.157000
     23 HO15        7.2370   -0.5640    6.1680 ho        1 NE2      0.436000
@<TRIPOS>BOND
     1    1    2 1   
     2    2    3 ar  
     3    2    4 ar  
     4    3    8 ar  
     5    3   18 1   
     6    4    5 1   
     7    4    6 ar  
     8    6    7 ar  
     9    6   19 1   
    10    7    8 ar  
    11    7   20 1   
    12    8    9 1   
    13    9   10 ar  
    14    9   11 ar  
    15   10   16 ar  
    16   10   21 1   
    17   11   12 ar  
    18   11   22 1   
    19   12   13 1   
    20   12   14 ar  
    21   14   15 1   
    22   14   16 ar  
    23   15   23 1   
    24   16   17 1   
@<TRIPOS>SUBSTRUCTURE
     1 NE2         1 TEMP              0 ****  ****    0 ROOT
