@<TRIPOS>MOLECULE
NE2
   23    24     1     0     0
SMALL
bcc


@<TRIPOS>ATOM
      1 CL17       -3.9950    1.6600    0.9950 cl        1 NE2     -0.065400
      2 C9         -3.0060    0.4710    0.2990 ca        1 NE2      0.018400
      3 C8         -1.6180    0.6030    0.4000 ca        1 NE2     -0.109000
      4 C10        -3.5590   -0.6330   -0.3680 ca        1 NE2      0.019400
      5 CL16       -5.2380   -0.8230   -0.5090 cl        1 NE2     -0.064400
      6 C11        -2.7140   -1.5970   -0.9280 ca        1 NE2     -0.116000
      7 C12        -1.3330   -1.4630   -0.8250 ca        1 NE2     -0.112000
      8 C7         -0.7730   -0.3620   -0.1610 cp        1 NE2     -0.026000
      9 C3          0.6770   -0.2210   -0.0550 cp        1 NE2     -0.062000
     10 C2          1.4760   -1.3380    0.2210 ca        1 NE2     -0.076000
     11 C4          1.2800    1.0300   -0.2310 ca        1 NE2     -0.076000
     12 C5          2.6650    1.1620   -0.1320 ca        1 NE2     -0.038600
     13 CL14        3.3640    2.6980   -0.3550 cl        1 NE2     -0.069400
     14 C6          3.4730    0.0420    0.1460 ca        1 NE2      0.151100
     15 O15         4.8370    0.1050    0.2560 oh        1 NE2     -0.473100
     16 C1          2.8620   -1.2180    0.3240 ca        1 NE2     -0.038600
     17 CL13        3.7780   -2.6040    0.6640 cl        1 NE2     -0.069400
     18 H8         -1.1880    1.4670    0.9310 ha        1 NE2      0.155000
     19 H11        -3.1440   -2.4630   -1.4540 ha        1 NE2      0.154000
     20 H12        -0.6760   -2.2230   -1.2760 ha        1 NE2      0.146000
     21 H2          1.0030   -2.3230    0.3670 ha        1 NE2      0.157000
     22 H4          0.6580    1.9130   -0.4550 ha        1 NE2      0.157000
     23 HO15        5.1150    1.0260    0.1140 ho        1 NE2      0.436000
@<TRIPOS>BOND
     1    1    2 1   
     2    2    3 ar  
     3    2    4 ar  
     4    3    8 ar  
     5    3   18 1   
     6    4    5 1   
     7    4    6 ar  
     8    6    7 ar  
     9    6   19 1   
    10    7    8 ar  
    11    7   20 1   
    12    8    9 1   
    13    9   10 ar  
    14    9   11 ar  
    15   10   16 ar  
    16   10   21 1   
    17   11   12 ar  
    18   11   22 1   
    19   12   13 1   
    20   12   14 ar  
    21   14   15 1   
    22   14   16 ar  
    23   15   23 1   
    24   16   17 1   
@<TRIPOS>SUBSTRUCTURE
     1 NE2         1 TEMP              0 ****  ****    0 ROOT
