@<TRIPOS>MOLECULE
NE6
   61    61     1     0     0
SMALL
bcc


@<TRIPOS>ATOM
      1 O1         -0.2920    0.0250   -0.9330 os        1 NE6     -0.329200
      2 C2          0.9360   -0.5890   -0.7400 c         1 NE6      0.736600
      3 C3          1.5000   -0.8340    0.6260 c3        1 NE6     -0.357700
      4 O2          1.4590   -0.8830   -1.8120 o         1 NE6     -0.547500
      5 C4          0.8450   -0.0140    1.7240 c         1 NE6      0.597300
      6 C5         -0.4530    0.5620    1.4040 ce        1 NE6     -0.342200
      7 C6         -0.9670    0.5390    0.1580 c2        1 NE6      0.171900
      8 C7         -2.3130    1.0820   -0.2290 c3        1 NE6     -0.023500
      9 C8         -3.2390   -0.0640   -0.5920 c3        1 NE6     -0.096100
     10 C9         -2.1680    2.0760   -1.3750 c3        1 NE6     -0.079400
     11 C10        -3.3950    2.9520   -1.5160 c3        1 NE6     -0.077400
     12 C11        -3.2160    3.9320   -2.6540 c3        1 NE6     -0.142700
     13 C12        -4.3690    4.8560   -2.8920 c2        1 NE6      0.512200
     14 C13        -6.5080    5.7450   -2.4510 c         1 NE6      0.760500
     15 C14        -7.1820    8.0080   -2.7760 c3        1 NE6      0.134700
     16 C15         1.4090   -2.3230    0.9660 c         1 NE6      0.601300
     17 C16         2.6850   -3.0640    0.9940 ce        1 NE6     -0.208400
     18 C17         3.7070   -2.7120   -0.0170 c3        1 NE6     -0.064900
     19 C18         2.8470   -4.0270    1.9290 cf        1 NE6     -0.038000
     20 C19         4.0480   -4.8060    2.1050 cf        1 NE6     -0.179000
     21 C20         4.1760   -5.8000    3.0080 c2        1 NE6     -0.056400
     22 C21         3.0840   -6.2100    3.9220 c3        1 NE6     -0.075900
     23 C22         5.4520   -6.5650    3.1200 c3        1 NE6     -0.054200
     24 C23         6.2010   -6.2250    4.3960 c3        1 NE6     -0.076400
     25 C24         7.4630   -7.0390    4.5200 c3        1 NE6     -0.094100
     26 N12        -5.4480    4.8450   -2.1880 ne        1 NE6     -0.609100
     27 O14        -6.1250    7.0550   -2.6700 os        1 NE6     -0.461900
     28 O13        -7.7180    5.4960   -2.4330 o         1 NE6     -0.515000
     29 O4          1.4100    0.1350    2.8110 o         1 NE6     -0.510100
     30 O15         0.3190   -2.8410    1.2240 o         1 NE6     -0.510100
     31 H3          2.5930   -0.5400    0.5900 hc        1 NE6      0.133700
     32 H5         -1.0080    1.0140    2.2410 ha        1 NE6      0.176000
     33 H7         -2.7300    1.6190    0.6710 hc        1 NE6      0.073700
     34 H8         -2.8380   -0.6230   -1.4720 hc        1 NE6      0.051033
     35 H8A        -4.2520    0.3310   -0.8460 hc        1 NE6      0.051033
     36 H8B        -3.3360   -0.7710    0.2660 hc        1 NE6      0.051033
     37 H9         -1.2690    2.7230   -1.1890 hc        1 NE6      0.053700
     38 H9A        -1.9800    1.5130   -2.3270 hc        1 NE6      0.053700
     39 H10        -4.3000    2.3150   -1.7040 hc        1 NE6      0.060700
     40 H10A       -3.5760    3.5090   -0.5590 hc        1 NE6      0.060700
     41 H11        -2.3120    4.5750   -2.4630 hc        1 NE6      0.069700
     42 H11A       -3.0340    3.3700   -3.6120 hc        1 NE6      0.069700
     43 H12        -4.2000    5.5500   -3.7480 h4        1 NE6     -0.010200
     44 H14        -6.6470    8.9790   -2.9190 h1        1 NE6      0.052700
     45 H14A       -7.8280    7.7630   -3.6540 h1        1 NE6      0.052700
     46 H14B       -7.7910    8.0090   -1.8410 h1        1 NE6      0.052700
     47 H17         3.2480   -2.1830   -0.8920 hc        1 NE6      0.053700
     48 H17A        4.2110   -3.6340   -0.4020 hc        1 NE6      0.053700
     49 H17B        4.4890   -2.0480    0.4310 hc        1 NE6      0.053700
     50 H18         2.0120   -4.2420    2.6250 ha        1 NE6      0.140000
     51 H19         4.9000   -4.5490    1.4510 ha        1 NE6      0.131000
     52 H21         2.1890   -6.5410    3.3380 hc        1 NE6      0.051367
     53 H21A        3.4020   -7.0540    4.5830 hc        1 NE6      0.051367
     54 H21B        2.7770   -5.3530    4.5740 hc        1 NE6      0.051367
     55 H22         5.2200   -7.6640    3.1050 hc        1 NE6      0.051200
     56 H22A        6.1150   -6.3550    2.2380 hc        1 NE6      0.051200
     57 H23         6.4530   -5.1320    4.4000 hc        1 NE6      0.044200
     58 H23A        5.5380   -6.4150    5.2810 hc        1 NE6      0.044200
     59 H24         7.2280   -8.1310    4.5440 hc        1 NE6      0.035033
     60 H24A        8.1440   -6.8460    3.6560 hc        1 NE6      0.035033
     61 H24B        8.0020   -6.7730    5.4610 hc        1 NE6      0.035033
@<TRIPOS>BOND
     1    1    2 1   
     2    1    7 1   
     3    2    3 1   
     4    2    4 2   
     5    3    5 1   
     6    3   16 1   
     7    3   31 1   
     8    5    6 1   
     9    5   29 2   
    10    6    7 2   
    11    6   32 1   
    12    7    8 1   
    13    8    9 1   
    14    8   10 1   
    15    8   33 1   
    16    9   34 1   
    17    9   35 1   
    18    9   36 1   
    19   10   11 1   
    20   10   37 1   
    21   10   38 1   
    22   11   12 1   
    23   11   39 1   
    24   11   40 1   
    25   12   13 1   
    26   12   41 1   
    27   12   42 1   
    28   13   26 2   
    29   13   43 1   
    30   14   26 1   
    31   14   27 1   
    32   14   28 2   
    33   15   27 1   
    34   15   44 1   
    35   15   45 1   
    36   15   46 1   
    37   16   17 1   
    38   16   30 2   
    39   17   18 1   
    40   17   19 2   
    41   18   47 1   
    42   18   48 1   
    43   18   49 1   
    44   19   20 1   
    45   19   50 1   
    46   20   21 2   
    47   20   51 1   
    48   21   22 1   
    49   21   23 1   
    50   22   52 1   
    51   22   53 1   
    52   22   54 1   
    53   23   24 1   
    54   23   55 1   
    55   23   56 1   
    56   24   25 1   
    57   24   57 1   
    58   24   58 1   
    59   25   59 1   
    60   25   60 1   
    61   25   61 1   
@<TRIPOS>SUBSTRUCTURE
     1 NE6         1 TEMP              0 ****  ****    0 ROOT
