@<TRIPOS>MOLECULE
NE6
   61    58     1     0     0
SMALL
bcc


@<TRIPOS>ATOM
      1 O1         -1.2010    0.1940    0.4250 os        1 NE6     -0.199000
      2 C2          0.1730    0.1800    0.5120 c2        1 NE6      0.321000
      3 C3          0.8150    0.1890    1.9070 c3        1 NE6     -0.250000
      4 O2          0.8420    0.4240   -0.4620 o         1 NE6     -0.270000
      5 C4          0.3020   -0.8690    2.7660 c2        1 NE6      0.288000
      6 C5         -1.1490   -1.2540    2.6260 c2        1 NE6     -0.320000
      7 C6         -1.9660   -0.6020    1.4130 c2        1 NE6      0.132000
      8 C7         -3.4860   -0.4410    1.5120 c3        1 NE6     -0.073000
      9 C8         -4.0020   -1.2620    2.6480 c3        1 NE6     -0.213000
     10 C9         -4.1300   -0.9070    0.2210 c3        1 NE6     -0.155000
     11 C10        -5.5330   -0.2920    0.0990 c3        1 NE6     -0.153000
     12 C11        -6.0180   -0.4030   -1.3560 c3        1 NE6     -0.196000
     13 C12        -7.5410   -0.6430   -1.3730 c2        1 NE6      0.021000
     14 C13        -7.5800    0.1030   -3.6440 c1        1 NE6      0.339000
     15 C14        -8.6910    1.2890   -5.3790 c3        1 NE6     -0.057000
     16 C15         2.4480    0.1420    1.8120 c2        1 NE6      0.302000
     17 C16         3.2570    1.4220    1.9780 c2        1 NE6     -0.188000
     18 C17         2.6830    2.5810    2.7460 c3        1 NE6     -0.187000
     19 C18         4.5200    1.5190    1.4220 c1        1 NE6     -0.036000
     20 C19         5.1080    0.3350    0.6360 c1        1 NE6     -0.179000
     21 C20         6.4750    0.2460    0.4390 c1        1 NE6     -0.052000
     22 C21         7.3900    1.3120    0.9960 c2        1 NE6     -0.196000
     23 C22         7.0640   -0.9410   -0.3460 c3        1 NE6     -0.136000
     24 C23         7.6870   -0.4380   -1.6340 c3        1 NE6     -0.155000
     25 C24         8.4620   -1.5680   -2.2980 c3        1 NE6     -0.212000
     26 N12        -8.2400   -0.3910   -2.4730 n1        1 NE6     -0.175000
     27 O14        -7.9380    1.3660   -4.1800 os        1 NE6     -0.290000
     28 O13        -6.7580   -0.5820   -4.2090 o         1 NE6     -0.337000
     29 O4          0.9810   -1.3240    3.6640 o         1 NE6     -0.269000
     30 O15         3.0160   -0.9210    1.6730 o         1 NE6     -0.268000
     31 H3          0.6810    1.0620    2.3330 hc        1 NE6      0.173000
     32 H5         -1.4820   -2.0590    3.0590 ha        1 NE6      0.176000
     33 H7         -3.7040    0.4940    1.6630 hc        1 NE6      0.124000
     34 H8         -3.7230   -2.1940    2.5310 hc        1 NE6      0.086000
     35 H8A        -4.9760   -1.2140    2.6680 hc        1 NE6      0.086000
     36 H8B        -3.6420   -0.9190    3.4870 hc        1 NE6      0.086000
     37 H9         -4.2010   -1.8830    0.2250 hc        1 NE6      0.098000
     38 H9A        -3.5860   -0.6240   -0.5320 hc        1 NE6      0.098000
     39 H10        -6.1550   -0.7740    0.6890 hc        1 NE6      0.088500
     40 H10A       -5.5000    0.6540    0.3610 hc        1 NE6      0.088500
     41 H11        -5.5670   -1.1500   -1.7930 hc        1 NE6      0.118500
     42 H11A       -5.8130    0.4270   -1.8310 hc        1 NE6      0.118500
     43 H12        -7.9900   -0.9780   -0.5780 h4        1 NE6      0.158000
     44 H14        -9.2250    0.4630   -5.3780 h1        1 NE6      0.092000
     45 H14A       -8.0820    1.2830   -6.1480 h1        1 NE6      0.092000
     46 H14B       -9.2890    2.0660   -5.4410 h1        1 NE6      0.092000
     47 H17         2.3060    2.2570    3.5910 hc        1 NE6      0.093000
     48 H17A        3.3930    3.2330    2.9330 hc        1 NE6      0.093000
     49 H17B        1.9810    3.0060    2.2180 hc        1 NE6      0.093000
     50 H18         5.0350    2.3340    1.5270 ha        1 NE6      0.129000
     51 H19         4.5160   -0.3550    0.2760 ha        1 NE6      0.147000
     52 H21         7.2230    1.4170    1.9550 ha        1 NE6      0.087333
     53 H21A        8.3230    1.0490    0.8530 ha        1 NE6      0.087333
     54 H21B        7.2170    2.1620    0.5390 ha        1 NE6      0.087333
     55 H22         6.3550   -1.5750   -0.5550 hc        1 NE6      0.091500
     56 H22A        7.7520   -1.3860    0.1990 hc        1 NE6      0.091500
     57 H23         8.2950    0.3000   -1.4350 hc        1 NE6      0.083000
     58 H23A        6.9850   -0.1280   -2.2350 hc        1 NE6      0.083000
     59 H24         8.7200   -1.2980   -3.2050 hc        1 NE6      0.074000
     60 H24A        7.8970   -2.3680   -2.3430 hc        1 NE6      0.074000
     61 H24B        9.2670   -1.7650   -1.7730 hc        1 NE6      0.074000
@<TRIPOS>BOND
     1    1    2 1   
     2    1    7 1   
     3    2    3 1   
     4    2    4 1   
     5    3    5 1   
     6    3   16 1   
     7    3   31 1   
     8    5    6 1   
     9    5   29 1   
    10    6    7 1   
    11    6   32 1   
    12    7    8 1   
    13    8    9 1   
    14    8   10 1   
    15    8   33 1   
    16    9   34 1   
    17    9   35 1   
    18    9   36 1   
    19   10   11 1   
    20   10   37 1   
    21   10   38 1   
    22   11   12 1   
    23   11   39 1   
    24   11   40 1   
    25   12   13 1   
    26   12   41 1   
    27   12   42 1   
    28   13   26 1   
    29   13   43 1   
    30   14   27 1   
    31   14   28 1   
    32   15   27 1   
    33   15   44 1   
    34   15   45 1   
    35   15   46 1   
    36   16   17 1   
    37   16   30 1   
    38   17   18 1   
    39   17   19 1   
    40   18   47 1   
    41   18   48 1   
    42   18   49 1   
    43   19   50 1   
    44   20   21 1   
    45   20   51 1   
    46   21   23 1   
    47   22   52 1   
    48   22   53 1   
    49   22   54 1   
    50   23   24 1   
    51   23   55 1   
    52   23   56 1   
    53   24   25 1   
    54   24   57 1   
    55   24   58 1   
    56   25   59 1   
    57   25   60 1   
    58   25   61 1   
@<TRIPOS>SUBSTRUCTURE
     1 NE6         1 TEMP              0 ****  ****    0 ROOT
