@<TRIPOS>MOLECULE
NE6
   61    61     1     0     0
SMALL
bcc


@<TRIPOS>ATOM
      1 O1         -0.2730    0.1440   -0.7370 os        1 NE6     -0.330200
      2 C2          0.9670   -0.4490   -0.5490 c         1 NE6      0.736600
      3 C3          1.4860   -0.8000    0.8120 c3        1 NE6     -0.357700
      4 O2          1.5390   -0.6290   -1.6210 o         1 NE6     -0.545500
      5 C4          0.7610   -0.1060    1.9510 c         1 NE6      0.596300
      6 C5         -0.5440    0.4580    1.6310 ce        1 NE6     -0.339200
      7 C6         -1.0060    0.5340    0.3680 c2        1 NE6      0.169900
      8 C7         -2.3540    1.0680   -0.0260 c3        1 NE6     -0.023500
      9 C8         -3.2040   -0.0560   -0.5870 c3        1 NE6     -0.095100
     10 C9         -2.1910    2.2100   -1.0220 c3        1 NE6     -0.077400
     11 C10        -3.4650    3.0130   -1.1740 c3        1 NE6     -0.079400
     12 C11        -3.2450    4.1790   -2.1170 c3        1 NE6     -0.149700
     13 C12        -4.5260    4.9320   -2.3230 c2        1 NE6      0.512200
     14 C13        -5.7870    6.9160   -2.5180 c         1 NE6      0.759500
     15 C14        -7.6490    7.2790   -3.9600 c3        1 NE6      0.134700
     16 C15         1.4340   -2.3160    1.0110 c         1 NE6      0.601300
     17 C16         2.7330   -3.0160    1.0240 ce        1 NE6     -0.208400
     18 C17         3.7820   -2.5380    0.0960 c3        1 NE6     -0.064900
     19 C18         2.8900   -4.0590    1.8700 cf        1 NE6     -0.037000
     20 C19         4.1100   -4.8140    2.0240 cf        1 NE6     -0.180000
     21 C20         4.2360   -5.8860    2.8330 c2        1 NE6     -0.055400
     22 C21         3.1220   -6.4150    3.6560 c3        1 NE6     -0.075900
     23 C22         5.5320   -6.6180    2.9280 c3        1 NE6     -0.054200
     24 C23         6.2150   -6.3800    4.2620 c3        1 NE6     -0.076400
     25 C24         7.4980   -7.1630    4.3640 c3        1 NE6     -0.094100
     26 N12        -4.5760    6.2180   -2.2930 ne        1 NE6     -0.605100
     27 O14        -6.5160    6.4850   -3.6110 os        1 NE6     -0.460900
     28 O13        -6.2110    7.8930   -1.8930 o         1 NE6     -0.516000
     29 O4          1.2750   -0.0420    3.0710 o         1 NE6     -0.508100
     30 O15         0.3540   -2.8890    1.1750 o         1 NE6     -0.511100
     31 H3          2.5680   -0.4690    0.8490 hc        1 NE6      0.134700
     32 H5         -1.1460    0.8130    2.4820 ha        1 NE6      0.176000
     33 H7         -2.8440    1.4670    0.9090 hc        1 NE6      0.070700
     34 H8         -4.2250    0.3230   -0.8320 hc        1 NE6      0.050033
     35 H8A        -3.2990   -0.8810    0.1600 hc        1 NE6      0.050033
     36 H8B        -2.7380   -0.4680   -1.5150 hc        1 NE6      0.050033
     37 H9         -1.3660    2.8860   -0.6730 hc        1 NE6      0.059200
     38 H9A        -1.8780    1.7890   -2.0150 hc        1 NE6      0.059200
     39 H10        -4.2840    2.3550   -1.5670 hc        1 NE6      0.048700
     40 H10A       -3.7940    3.3960   -0.1720 hc        1 NE6      0.048700
     41 H11        -2.4290    4.8410   -1.7200 hc        1 NE6      0.078200
     42 H11A       -2.9120    3.8030   -3.1240 hc        1 NE6      0.078200
     43 H12        -5.4100    4.2790   -2.5040 h4        1 NE6     -0.009200
     44 H14        -8.0550    6.7720   -4.8700 h1        1 NE6      0.052367
     45 H14A       -8.3890    7.2750   -3.1230 h1        1 NE6      0.052367
     46 H14B       -7.3290    8.3260   -4.1820 h1        1 NE6      0.052367
     47 H17         3.3400   -1.9450   -0.7460 hc        1 NE6      0.054033
     48 H17A        4.5190   -1.8930    0.6370 hc        1 NE6      0.054033
     49 H17B        4.3350   -3.4020   -0.3500 hc        1 NE6      0.054033
     50 H18         2.0360   -4.3650    2.5060 ha        1 NE6      0.140000
     51 H19         4.9780   -4.4700    1.4350 ha        1 NE6      0.132000
     52 H21         2.7600   -5.6350    4.3730 hc        1 NE6      0.051367
     53 H21A        2.2630   -6.7150    3.0050 hc        1 NE6      0.051367
     54 H21B        3.4420   -7.3090    4.2460 hc        1 NE6      0.051367
     55 H22         6.2220   -6.3040    2.1000 hc        1 NE6      0.051200
     56 H22A        5.3390   -7.7180    2.7990 hc        1 NE6      0.051200
     57 H23         5.5240   -6.6750    5.0950 hc        1 NE6      0.044200
     58 H23A        6.4300   -5.2850    4.3800 hc        1 NE6      0.044200
     59 H24         8.2080   -6.8670    3.5530 hc        1 NE6      0.035033
     60 H24A        7.9890   -6.9730    5.3490 hc        1 NE6      0.035033
     61 H24B        7.3010   -8.2590    4.2740 hc        1 NE6      0.035033
@<TRIPOS>BOND
     1    1    2 1   
     2    1    7 1   
     3    2    3 1   
     4    2    4 2   
     5    3    5 1   
     6    3   16 1   
     7    3   31 1   
     8    5    6 1   
     9    5   29 2   
    10    6    7 2   
    11    6   32 1   
    12    7    8 1   
    13    8    9 1   
    14    8   10 1   
    15    8   33 1   
    16    9   34 1   
    17    9   35 1   
    18    9   36 1   
    19   10   11 1   
    20   10   37 1   
    21   10   38 1   
    22   11   12 1   
    23   11   39 1   
    24   11   40 1   
    25   12   13 1   
    26   12   41 1   
    27   12   42 1   
    28   13   26 2   
    29   13   43 1   
    30   14   26 1   
    31   14   27 1   
    32   14   28 2   
    33   15   27 1   
    34   15   44 1   
    35   15   45 1   
    36   15   46 1   
    37   16   17 1   
    38   16   30 2   
    39   17   18 1   
    40   17   19 2   
    41   18   47 1   
    42   18   48 1   
    43   18   49 1   
    44   19   20 1   
    45   19   50 1   
    46   20   21 2   
    47   20   51 1   
    48   21   22 1   
    49   21   23 1   
    50   22   52 1   
    51   22   53 1   
    52   22   54 1   
    53   23   24 1   
    54   23   55 1   
    55   23   56 1   
    56   24   25 1   
    57   24   57 1   
    58   24   58 1   
    59   25   59 1   
    60   25   60 1   
    61   25   61 1   
@<TRIPOS>SUBSTRUCTURE
     1 NE6         1 TEMP              0 ****  ****    0 ROOT
