@<TRIPOS>MOLECULE
NE6
   61    61     1     0     0
SMALL
bcc


@<TRIPOS>ATOM
      1 O1         -0.5770   -0.6370   -0.7940 os        1 NE6     -0.329200
      2 C2          0.6860   -0.3690   -1.3020 c         1 NE6      0.736600
      3 C3          1.7310    0.3480   -0.5030 c3        1 NE6     -0.357700
      4 O2          0.8010   -0.7920   -2.4490 o         1 NE6     -0.544500
      5 C4          1.1850    1.1030    0.6960 c         1 NE6      0.597300
      6 C5         -0.1430    0.7130    1.1480 ce        1 NE6     -0.341200
      7 C6         -0.9280   -0.1240    0.4400 c2        1 NE6      0.170900
      8 C7         -2.2900   -0.5930    0.8670 c3        1 NE6     -0.023500
      9 C8         -2.2510   -2.0830    1.1520 c3        1 NE6     -0.096100
     10 C9         -3.3210   -0.2500   -0.2030 c3        1 NE6     -0.077400
     11 C10        -4.7320   -0.3000    0.3410 c3        1 NE6     -0.080400
     12 C11        -5.7300    0.0580   -0.7420 c3        1 NE6     -0.149700
     13 C12        -7.1230    0.0680   -0.1870 c2        1 NE6      0.512200
     14 C13        -9.4340   -0.3910   -0.3050 c         1 NE6      0.759500
     15 C14       -11.1960    0.9550    0.5690 c3        1 NE6      0.134700
     16 C15         2.8070   -0.6400   -0.0480 c         1 NE6      0.601300
     17 C16         4.1210   -0.5240   -0.7090 ce        1 NE6     -0.208400
     18 C17         4.1390   -0.1870   -2.1500 c3        1 NE6     -0.064900
     19 C18         5.2310   -0.7430    0.0310 cf        1 NE6     -0.037000
     20 C19         6.5820   -0.6290   -0.4630 cf        1 NE6     -0.180000
     21 C20         7.6790   -0.9070    0.2710 c2        1 NE6     -0.055400
     22 C21         7.6160   -1.3720    1.6780 c3        1 NE6     -0.075900
     23 C22         9.0420   -0.7720   -0.3180 c3        1 NE6     -0.054200
     24 C23         9.7880    0.4180    0.2580 c3        1 NE6     -0.076400
     25 C24        11.1800    0.5150   -0.3100 c3        1 NE6     -0.094100
     26 N12        -8.1190   -0.4340   -0.8300 ne        1 NE6     -0.605100
     27 O14        -9.8240    0.8390    0.1940 os        1 NE6     -0.460900
     28 O13       -10.2710   -1.2980   -0.3150 o         1 NE6     -0.515000
     29 O4          1.8550    1.9900    1.2330 o         1 NE6     -0.509100
     30 O15         2.5660   -1.4600    0.8430 o         1 NE6     -0.511100
     31 H3          2.2100    1.1080   -1.1920 hc        1 NE6      0.134700
     32 H5         -0.4750    1.1280    2.1110 ha        1 NE6      0.175000
     33 H7         -2.5510   -0.0440    1.8170 hc        1 NE6      0.069700
     34 H8         -1.9720   -2.6470    0.2300 hc        1 NE6      0.051367
     35 H8A        -1.5000   -2.3060    1.9480 hc        1 NE6      0.051367
     36 H8B        -3.2530   -2.4310    1.4990 hc        1 NE6      0.051367
     37 H9         -3.1120    0.7800   -0.5990 hc        1 NE6      0.058700
     38 H9A        -3.2110   -0.9640   -1.0620 hc        1 NE6      0.058700
     39 H10        -4.9550   -1.3280    0.7300 hc        1 NE6      0.048200
     40 H10A       -4.8310    0.4130    1.2030 hc        1 NE6      0.048200
     41 H11        -5.5190    1.0910   -1.1350 hc        1 NE6      0.078200
     42 H11A       -5.6270   -0.6550   -1.6040 hc        1 NE6      0.078200
     43 H12        -7.2090    0.5480    0.8150 h4        1 NE6     -0.010200
     44 H14       -11.2860    2.0180    0.9040 h1        1 NE6      0.052033
     45 H14A      -11.8520    0.7460   -0.3100 h1        1 NE6      0.052033
     46 H14B      -11.4260    0.2420    1.3970 h1        1 NE6      0.052033
     47 H17         4.3580    0.9020   -2.2940 hc        1 NE6      0.054033
     48 H17A        4.9300   -0.7750   -2.6800 hc        1 NE6      0.054033
     49 H17B        3.1570   -0.4210   -2.6350 hc        1 NE6      0.054033
     50 H18         5.1160   -1.0240    1.0970 ha        1 NE6      0.140000
     51 H19         6.6950   -0.2870   -1.5070 ha        1 NE6      0.132000
     52 H21         7.0410   -2.3300    1.7470 hc        1 NE6      0.051367
     53 H21A        8.6390   -1.5480    2.0940 hc        1 NE6      0.051367
     54 H21B        7.1040   -0.6110    2.3190 hc        1 NE6      0.051367
     55 H22         9.6230   -1.7120   -0.1120 hc        1 NE6      0.051200
     56 H22A        8.9780   -0.6600   -1.4340 hc        1 NE6      0.051200
     57 H23         9.2200    1.3590    0.0320 hc        1 NE6      0.044200
     58 H23A        9.8400    0.3220    1.3750 hc        1 NE6      0.044200
     59 H24        11.7120    1.3970    0.1210 hc        1 NE6      0.035033
     60 H24A       11.7690   -0.4040   -0.0720 hc        1 NE6      0.035033
     61 H24B       11.1470    0.6320   -1.4200 hc        1 NE6      0.035033
@<TRIPOS>BOND
     1    1    2 1   
     2    1    7 1   
     3    2    3 1   
     4    2    4 2   
     5    3    5 1   
     6    3   16 1   
     7    3   31 1   
     8    5    6 1   
     9    5   29 2   
    10    6    7 2   
    11    6   32 1   
    12    7    8 1   
    13    8    9 1   
    14    8   10 1   
    15    8   33 1   
    16    9   34 1   
    17    9   35 1   
    18    9   36 1   
    19   10   11 1   
    20   10   37 1   
    21   10   38 1   
    22   11   12 1   
    23   11   39 1   
    24   11   40 1   
    25   12   13 1   
    26   12   41 1   
    27   12   42 1   
    28   13   26 2   
    29   13   43 1   
    30   14   26 1   
    31   14   27 1   
    32   14   28 2   
    33   15   27 1   
    34   15   44 1   
    35   15   45 1   
    36   15   46 1   
    37   16   17 1   
    38   16   30 2   
    39   17   18 1   
    40   17   19 2   
    41   18   47 1   
    42   18   48 1   
    43   18   49 1   
    44   19   20 1   
    45   19   50 1   
    46   20   21 2   
    47   20   51 1   
    48   21   22 1   
    49   21   23 1   
    50   22   52 1   
    51   22   53 1   
    52   22   54 1   
    53   23   24 1   
    54   23   55 1   
    55   23   56 1   
    56   24   25 1   
    57   24   57 1   
    58   24   58 1   
    59   25   59 1   
    60   25   60 1   
    61   25   61 1   
@<TRIPOS>SUBSTRUCTURE
     1 NE6         1 TEMP              0 ****  ****    0 ROOT
