@<TRIPOS>MOLECULE
NE6
   61    61     1     0     0
SMALL
bcc


@<TRIPOS>ATOM
      1 O1         -0.2950    0.0290   -0.9310 os        1 NE6     -0.329200
      2 C2          0.9330   -0.5870   -0.7430 c         1 NE6      0.736600
      3 C3          1.5040   -0.8290    0.6220 c3        1 NE6     -0.357700
      4 O2          1.4500   -0.8850   -1.8160 o         1 NE6     -0.547500
      5 C4          0.8580   -0.0040    1.7200 c         1 NE6      0.597300
      6 C5         -0.4420    0.5740    1.4060 ce        1 NE6     -0.342200
      7 C6         -0.9630    0.5470    0.1630 c2        1 NE6      0.171900
      8 C7         -2.3100    1.0910   -0.2190 c3        1 NE6     -0.023500
      9 C8         -3.2400   -0.0550   -0.5710 c3        1 NE6     -0.096100
     10 C9         -2.1700    2.0800   -1.3700 c3        1 NE6     -0.079400
     11 C10        -3.3970    2.9570   -1.5070 c3        1 NE6     -0.077400
     12 C11        -3.2230    3.9310   -2.6510 c3        1 NE6     -0.142700
     13 C12        -4.3770    4.8550   -2.8870 c2        1 NE6      0.512200
     14 C13        -6.5120    5.7500   -2.4380 c         1 NE6      0.760500
     15 C14        -7.1850    8.0120   -2.7710 c3        1 NE6      0.134700
     16 C15         1.4110   -2.3170    0.9670 c         1 NE6      0.601300
     17 C16         2.6850   -3.0610    0.9900 ce        1 NE6     -0.208400
     18 C17         3.7020   -2.7140   -0.0280 c3        1 NE6     -0.064900
     19 C18         2.8480   -4.0230    1.9260 cf        1 NE6     -0.038000
     20 C19         4.0480   -4.8060    2.0970 cf        1 NE6     -0.179000
     21 C20         4.1770   -5.8010    2.9980 c2        1 NE6     -0.056400
     22 C21         3.0860   -6.2090    3.9160 c3        1 NE6     -0.075900
     23 C22         5.4500   -6.5690    3.1060 c3        1 NE6     -0.054200
     24 C23         6.2030   -6.2340    4.3800 c3        1 NE6     -0.076400
     25 C24         7.4630   -7.0510    4.5000 c3        1 NE6     -0.094100
     26 N12        -5.4510    4.8490   -2.1770 ne        1 NE6     -0.609100
     27 O14        -6.1280    7.0580   -2.6650 os        1 NE6     -0.461900
     28 O13        -7.7220    5.5020   -2.4110 o         1 NE6     -0.515000
     29 O4          1.4290    0.1490    2.8030 o         1 NE6     -0.510100
     30 O15         0.3210   -2.8310    1.2330 o         1 NE6     -0.510100
     31 H3          2.5970   -0.5380    0.5780 hc        1 NE6      0.133700
     32 H5         -0.9910    1.0300    2.2440 ha        1 NE6      0.176000
     33 H7         -2.7210    1.6330    0.6810 hc        1 NE6      0.073700
     34 H8         -2.8460   -0.6190   -1.4510 hc        1 NE6      0.051033
     35 H8A        -4.2540    0.3410   -0.8200 hc        1 NE6      0.051033
     36 H8B        -3.3330   -0.7580    0.2910 hc        1 NE6      0.051033
     37 H9         -1.9890    1.5120   -2.3210 hc        1 NE6      0.053700
     38 H9A        -1.2700    2.7260   -1.1920 hc        1 NE6      0.053700
     39 H10        -3.5720    3.5190   -0.5520 hc        1 NE6      0.060700
     40 H10A       -4.3040    2.3200   -1.6880 hc        1 NE6      0.060700
     41 H11        -3.0470    3.3650   -3.6070 hc        1 NE6      0.069700
     42 H11A       -2.3180    4.5740   -2.4690 hc        1 NE6      0.069700
     43 H12        -4.2120    5.5460   -3.7470 h4        1 NE6     -0.010200
     44 H14        -7.8370    7.7630   -3.6420 h1        1 NE6      0.052700
     45 H14A       -7.7880    8.0190   -1.8310 h1        1 NE6      0.052700
     46 H14B       -6.6490    8.9820   -2.9220 h1        1 NE6      0.052700
     47 H17         4.2030   -3.6380   -0.4120 hc        1 NE6      0.053700
     48 H17A        3.2400   -2.1870   -0.9020 hc        1 NE6      0.053700
     49 H17B        4.4880   -2.0500    0.4150 hc        1 NE6      0.053700
     50 H18         2.0160   -4.2340    2.6260 ha        1 NE6      0.140000
     51 H19         4.8990   -4.5500    1.4400 ha        1 NE6      0.131000
     52 H21         2.1870   -6.5350    3.3340 hc        1 NE6      0.051367
     53 H21A        2.7850   -5.3530    4.5710 hc        1 NE6      0.051367
     54 H21B        3.4030   -7.0560    4.5730 hc        1 NE6      0.051367
     55 H22         6.1110   -6.3590    2.2220 hc        1 NE6      0.051200
     56 H22A        5.2160   -7.6680    3.0890 hc        1 NE6      0.051200
     57 H23         5.5420   -6.4240    5.2670 hc        1 NE6      0.044200
     58 H23A        6.4590   -5.1410    4.3860 hc        1 NE6      0.044200
     59 H24         7.2260   -8.1420    4.5220 hc        1 NE6      0.035033
     60 H24A        8.1430   -6.8580    3.6350 hc        1 NE6      0.035033
     61 H24B        8.0060   -6.7890    5.4400 hc        1 NE6      0.035033
@<TRIPOS>BOND
     1    1    2 1   
     2    1    7 1   
     3    2    3 1   
     4    2    4 2   
     5    3    5 1   
     6    3   16 1   
     7    3   31 1   
     8    5    6 1   
     9    5   29 2   
    10    6    7 2   
    11    6   32 1   
    12    7    8 1   
    13    8    9 1   
    14    8   10 1   
    15    8   33 1   
    16    9   34 1   
    17    9   35 1   
    18    9   36 1   
    19   10   11 1   
    20   10   37 1   
    21   10   38 1   
    22   11   12 1   
    23   11   39 1   
    24   11   40 1   
    25   12   13 1   
    26   12   41 1   
    27   12   42 1   
    28   13   26 2   
    29   13   43 1   
    30   14   26 1   
    31   14   27 1   
    32   14   28 2   
    33   15   27 1   
    34   15   44 1   
    35   15   45 1   
    36   15   46 1   
    37   16   17 1   
    38   16   30 2   
    39   17   18 1   
    40   17   19 2   
    41   18   47 1   
    42   18   48 1   
    43   18   49 1   
    44   19   20 1   
    45   19   50 1   
    46   20   21 2   
    47   20   51 1   
    48   21   22 1   
    49   21   23 1   
    50   22   52 1   
    51   22   53 1   
    52   22   54 1   
    53   23   24 1   
    54   23   55 1   
    55   23   56 1   
    56   24   25 1   
    57   24   57 1   
    58   24   58 1   
    59   25   59 1   
    60   25   60 1   
    61   25   61 1   
@<TRIPOS>SUBSTRUCTURE
     1 NE6         1 TEMP              0 ****  ****    0 ROOT
