@<TRIPOS>MOLECULE
NE8
   38    32     1     0     0
SMALL
bcc


@<TRIPOS>ATOM
      1 C15        -1.1800    0.4850   -0.8380 c3        1 NE8     -0.117000
      2 C14         0.3180    0.2240   -0.8230 c3        1 NE8     -0.108000
      3 C5          0.8260    0.1840    0.6530 c2        1 NE8     -0.009000
      4 C4          1.0040   -0.9790    1.4540 c2        1 NE8      0.045000
      5 N10         0.7850   -2.2190    0.9210 n1        1 NE8     -0.244000
      6 C9          0.9860   -3.3440    1.6860 c1        1 NE8      0.205000
      7 N23         0.8040   -4.6410    1.1060 n3        1 NE8     -0.319000
      8 N8          1.4080   -3.2240    2.9890 n2        1 NE8     -0.344000
      9 C7          1.6260   -2.0000    3.5200 c1        1 NE8      0.354000
     10 O22         1.9340   -1.8930    4.6950 o         1 NE8     -0.353000
     11 C3          1.4230   -0.8600    2.7470 c1        1 NE8     -0.160000
     12 C2          1.6810    0.4260    3.2930 c1        1 NE8     -0.063000
     13 C1          1.5040    1.5830    2.4970 c1        1 NE8     -0.051000
     14 N11         1.6020    2.9100    2.7860 n1        1 NE8     -0.251000
     15 C12         1.2450    3.6120    1.6720 c1        1 NE8     -0.014000
     16 N13         0.9240    2.7160    0.6910 n2        1 NE8     -0.150000
     17 C6          1.0830    1.4630    1.1980 c1        1 NE8     -0.035000
     18 C16        -1.6540    0.6860   -2.2960 c2        1 NE8     -0.067000
     19 C17        -1.6890    1.9610   -2.8460 c2        1 NE8     -0.127000
     20 C18        -2.1720    2.1490   -4.1380 c1        1 NE8     -0.130000
     21 C19        -2.6190    1.0640   -4.8770 c1        1 NE8     -0.133500
     22 C20        -2.5850   -0.2120   -4.3270 c1        1 NE8     -0.133500
     23 C21        -2.1010   -0.4000   -3.0360 c1        1 NE8     -0.128000
     24 H151       -1.6460   -0.2750   -0.4470 hc        1 NE8      0.093000
     25 H152       -1.3760    1.2890   -0.3180 hc        1 NE8      0.093000
     26 H141        0.5040   -0.6330   -1.2540 hc        1 NE8      0.105500
     27 H142        0.7780    0.9400   -1.3070 hc        1 NE8      0.105500
     28 H231        0.7610   -4.7330    0.1960 hn        1 NE8      0.204500
     29 H232        0.7030   -5.3720    1.6460 hn        1 NE8      0.204500
     30 HN8         1.5420   -3.9780    3.5000 hn        1 NE8      0.251000
     31 H2          1.9970    0.5120    4.2190 ha        1 NE8      0.163000
     32 H11         1.8630    3.2690    3.5880 DU        1 NE8      0.230500
     33 H12         1.2310    4.5890    1.5870 DU        1 NE8      0.230500
     34 H17        -1.3750    2.7240   -2.3280 ha        1 NE8      0.138000
     35 H18        -2.1960    3.0470   -4.5240 ha        1 NE8      0.129000
     36 H19        -2.9600    1.1970   -5.7870 ha        1 NE8      0.127500
     37 H20        -2.9010   -0.9780   -4.8490 ha        1 NE8      0.127500
     38 H21        -2.0770   -1.2930   -2.6510 ha        1 NE8      0.129000
@<TRIPOS>BOND
     1    1    2 1   
     2    1   18 1   
     3    1   24 1   
     4    1   25 1   
     5    2    3 1   
     6    2   26 1   
     7    2   27 1   
     8    3    4 1   
     9    3   17 1   
    10    4    5 1   
    11    4   11 1   
    12    6    7 1   
    13    6    8 1   
    14    7   28 1   
    15    7   29 1   
    16    8   30 1   
    17    9   10 1   
    18    9   11 1   
    19   12   13 1   
    20   12   31 1   
    21   14   15 1   
    22   15   16 1   
    23   16   17 1   
    24   18   19 1   
    25   18   23 1   
    26   19   20 1   
    27   19   34 1   
    28   20   35 1   
    29   21   22 1   
    30   21   36 1   
    31   22   37 1   
    32   23   38 1   
@<TRIPOS>SUBSTRUCTURE
     1 NE8         1 TEMP              0 ****  ****    0 ROOT
