@<TRIPOS>MOLECULE
NE8
   38    41     1     0     0
SMALL
bcc


@<TRIPOS>ATOM
      1 C15        -0.0030   -0.1580   -0.0510 c3        1 NE8     -0.032100
      2 C14         1.5100    0.0030   -0.0050 c3        1 NE8     -0.021100
      3 C5          2.0110   -0.0020    1.3960 ca        1 NE8     -0.016300
      4 C4          2.2910   -1.2040    2.0970 ca        1 NE8      0.183400
      5 N10         2.0900   -2.4270    1.4490 nc        1 NE8     -0.670100
      6 C9          2.3290   -3.5610    2.1100 cd        1 NE8      0.651800
      7 N23         2.0050   -4.8090    1.5080 nv        1 NE8     -0.880800
      8 N8          2.8420   -3.6080    3.4280 ns        1 NE8     -0.504400
      9 C7          3.0580   -2.4220    4.1440 c         1 NE8      0.717100
     10 O22         3.4760   -2.5090    5.3140 o         1 NE8     -0.628500
     11 C3          2.7780   -1.1560    3.4410 ca        1 NE8     -0.180600
     12 C2          2.9960    0.0400    4.1250 ca        1 NE8     -0.063000
     13 C1          2.7200    1.2170    3.4430 ca        1 NE8     -0.096200
     14 N11         2.8180    2.5680    3.8060 na        1 NE8     -0.294300
     15 C12         2.3950    3.3050    2.6870 cc        1 NE8      0.441700
     16 N13         2.0370    2.5410    1.6450 nd        1 NE8     -0.577100
     17 C6          2.2250    1.2050    2.0720 ca        1 NE8      0.104400
     18 C16        -0.5150   -0.0730   -1.4470 ca        1 NE8     -0.074300
     19 C17        -0.5240    1.1560   -2.1190 ca        1 NE8     -0.128000
     20 C18        -1.0140    1.2420   -3.4210 ca        1 NE8     -0.131000
     21 C19        -1.4990    0.1020   -4.0630 ca        1 NE8     -0.135000
     22 C20        -1.4930   -1.1230   -3.3990 ca        1 NE8     -0.131000
     23 C21        -1.0030   -1.2120   -2.0970 ca        1 NE8     -0.128000
     24 H151       -0.2860   -1.1430    0.4060 hc        1 NE8      0.055700
     25 H152       -0.4800    0.6510    0.5660 hc        1 NE8      0.055700
     26 H141        1.9910   -0.8220   -0.5950 hc        1 NE8      0.065200
     27 H142        1.7900    0.9690   -0.5080 hc        1 NE8      0.065200
     28 H231        2.7040   -5.5100    1.6300 hn        1 NE8      0.409300
     29 H232        1.7060   -4.7240    0.5580 hn        1 NE8      0.409300
     30 HN8         2.9530   -4.4760    3.9030 hn        1 NE8      0.336500
     31 H2          3.3710    0.0240    5.1600 ha        1 NE8      0.163000
     32 H11         3.1210    2.9160    4.6740 hn        1 NE8      0.310700
     33 H12         2.3700    4.4030    2.6980 h5        1 NE8      0.070800
     34 H17        -0.1410    2.0540   -1.6120 ha        1 NE8      0.134500
     35 H18        -1.0180    2.2100   -3.9420 ha        1 NE8      0.128000
     36 H19        -1.8860    0.1720   -5.0900 ha        1 NE8      0.128000
     37 H20        -1.8760   -2.0230   -3.9020 ha        1 NE8      0.128000
     38 H21        -1.0000   -2.1810   -1.5760 ha        1 NE8      0.134500
@<TRIPOS>BOND
     1    1    2 1   
     2    1   18 1   
     3    1   24 1   
     4    1   25 1   
     5    2    3 1   
     6    2   26 1   
     7    2   27 1   
     8    3    4 ar  
     9    3   17 ar  
    10    4    5 1   
    11    4   11 ar  
    12    5    6 2   
    13    6    7 1   
    14    6    8 1   
    15    7   28 1   
    16    7   29 1   
    17    8    9 1   
    18    8   30 1   
    19    9   10 2   
    20    9   11 1   
    21   11   12 ar  
    22   12   13 ar  
    23   12   31 1   
    24   13   14 1   
    25   13   17 ar  
    26   14   15 1   
    27   14   32 1   
    28   15   16 2   
    29   15   33 1   
    30   16   17 1   
    31   18   19 ar  
    32   18   23 ar  
    33   19   20 ar  
    34   19   34 1   
    35   20   21 ar  
    36   20   35 1   
    37   21   22 ar  
    38   21   36 1   
    39   22   23 ar  
    40   22   37 1   
    41   23   38 1   
@<TRIPOS>SUBSTRUCTURE
     1 NE8         1 TEMP              0 ****  ****    0 ROOT
