@<TRIPOS>MOLECULE
NE8
   39    42     1     0     0
SMALL
bcc


@<TRIPOS>ATOM
      1 C15        -0.0130    0.0030   -0.0470 c3        1 NE8     -0.024100
      2 C14         1.5090    0.0390    0.0080 c3        1 NE8     -0.045100
      3 C5          1.9970    0.0090    1.4130 ca        1 NE8      0.070700
      4 C4          2.2930   -1.1900    2.1040 ca        1 NE8      0.092400
      5 N10         2.1230   -2.4120    1.4410 nc        1 NE8     -0.525100
      6 C9          2.4040   -3.5220    2.0900 cd        1 NE8      0.486800
      7 N23         2.2050   -4.7990    1.3250 n4        1 NE8     -0.795600
      8 N8          2.8630   -3.6330    3.4090 n         1 NE8     -0.512400
      9 C7          3.0620   -2.4390    4.1510 c         1 NE8      0.726100
     10 O22         3.4690   -2.5630    5.3110 o         1 NE8     -0.551500
     11 C3          2.7620   -1.1670    3.4620 ca        1 NE8     -0.142600
     12 C2          2.9480    0.0140    4.1670 ca        1 NE8     -0.053000
     13 C1          2.6570    1.2060    3.4970 ca        1 NE8     -0.057200
     14 N11         2.7240    2.5440    3.8820 na        1 NE8     -0.266300
     15 C12         2.3020    3.2990    2.7700 cc        1 NE8      0.461700
     16 N13         1.9730    2.5430    1.7100 nd        1 NE8     -0.550100
     17 C6          2.1810    1.2090    2.1190 ca        1 NE8      0.082400
     18 C16        -0.5000   -0.0070   -1.4530 ca        1 NE8     -0.093300
     19 C17        -0.3040    1.1110   -2.2740 ca        1 NE8     -0.128000
     20 C18        -0.7750    1.1100   -3.5850 ca        1 NE8     -0.123500
     21 C19        -1.4500   -0.0040   -4.0870 ca        1 NE8     -0.120000
     22 C20        -1.6530   -1.1170   -3.2720 ca        1 NE8     -0.123500
     23 C21        -1.1800   -1.1190   -1.9610 ca        1 NE8     -0.128000
     24 H151       -0.4220    0.9060    0.4810 hc        1 NE8      0.053700
     25 H152       -0.3850   -0.9040    0.4990 hc        1 NE8      0.053700
     26 H141        1.9270   -0.8200   -0.5800 hc        1 NE8      0.076700
     27 H142        1.8690    0.9790   -0.4960 hc        1 NE8      0.076700
     28 H231        1.8660   -4.5820    0.3750 hn        1 NE8      0.478133
     29 H232        1.5110   -5.3820    1.8060 hn        1 NE8      0.478133
     30 HN8         3.0550   -4.5080    3.8450 hn        1 NE8      0.348500
     31 H2          3.3090   -0.0030    5.2080 ha        1 NE8      0.182000
     32 H11         3.0110    2.8870    4.7630 hn        1 NE8      0.328700
     33 H12         2.2570    4.3980    2.8010 h5        1 NE8      0.095800
     34 H17         0.2190    1.9940   -1.8770 ha        1 NE8      0.128000
     35 H18        -0.6190    1.9930   -4.2240 ha        1 NE8      0.137500
     36 H19        -1.8250   -0.0010   -5.1220 ha        1 NE8      0.141000
     37 H20        -2.1930   -1.9920   -3.6630 ha        1 NE8      0.137500
     38 H21        -1.3550   -1.9950   -1.3200 ha        1 NE8      0.128000
     39 H233        3.0980   -5.2990    1.2580 hn        1 NE8      0.478133
@<TRIPOS>BOND
     1    1    2 1   
     2    1   18 1   
     3    1   24 1   
     4    1   25 1   
     5    2    3 1   
     6    2   26 1   
     7    2   27 1   
     8    3    4 ar  
     9    3   17 ar  
    10    4    5 1   
    11    4   11 ar  
    12    5    6 2   
    13    6    7 1   
    14    6    8 1   
    15    7   28 1   
    16    7   29 1   
    17    7   39 1   
    18    8    9 1   
    19    8   30 1   
    20    9   10 2   
    21    9   11 1   
    22   11   12 ar  
    23   12   13 ar  
    24   12   31 1   
    25   13   14 1   
    26   13   17 ar  
    27   14   15 1   
    28   14   32 1   
    29   15   16 2   
    30   15   33 1   
    31   16   17 1   
    32   18   19 ar  
    33   18   23 ar  
    34   19   20 ar  
    35   19   34 1   
    36   20   21 ar  
    37   20   35 1   
    38   21   22 ar  
    39   21   36 1   
    40   22   23 ar  
    41   22   37 1   
    42   23   38 1   
@<TRIPOS>SUBSTRUCTURE
     1 NE8         1 TEMP              0 ****  ****    0 ROOT
