@<TRIPOS>MOLECULE
NE8
   38    41     1     0     0
SMALL
bcc


@<TRIPOS>ATOM
      1 C15        -0.0340    0.6550    1.8530 c3        1 NE8     -0.032100
      2 C14        -0.3220   -0.6250    1.0810 c3        1 NE8     -0.021100
      3 C5         -0.5930   -0.3400   -0.3540 ca        1 NE8     -0.016300
      4 C4          0.4480   -0.2020   -1.3100 ca        1 NE8      0.183400
      5 N10         1.7740   -0.3410   -0.8890 nc        1 NE8     -0.670100
      6 C9          2.7590   -0.1900   -1.7780 cd        1 NE8      0.651800
      7 N23         4.1110   -0.1980   -1.3390 nh        1 NE8     -0.880800
      8 N8          2.5410    0.0430   -3.1570 n         1 NE8     -0.504400
      9 C7          1.2380    0.2040   -3.6500 c         1 NE8      0.717100
     10 O22         1.0930    0.4430   -4.8630 o         1 NE8     -0.628500
     11 C3          0.1360    0.0640   -2.6800 ca        1 NE8     -0.180600
     12 C2         -1.1720    0.2060   -3.1450 ca        1 NE8     -0.063000
     13 C1         -2.1920    0.0760   -2.2120 ca        1 NE8     -0.096200
     14 N11        -3.5880    0.1540   -2.3160 na        1 NE8     -0.294300
     15 C12        -4.0900   -0.0650   -1.0220 cc        1 NE8      0.441700
     16 N13        -3.1350   -0.2770   -0.1050 nd        1 NE8     -0.577100
     17 C6         -1.9090   -0.1990   -0.8080 ca        1 NE8      0.104400
     18 C16         0.1590    0.3810    3.3030 ca        1 NE8     -0.074300
     19 C17        -0.9330    0.0240    4.1040 ca        1 NE8     -0.128000
     20 C18        -0.7590   -0.2220    5.4640 ca        1 NE8     -0.131000
     21 C19         0.5080   -0.1120    6.0390 ca        1 NE8     -0.135000
     22 C20         1.5990    0.2450    5.2480 ca        1 NE8     -0.131000
     23 C21         1.4270    0.4900    3.8860 ca        1 NE8     -0.128000
     24 H151        0.8790    1.1490    1.4260 hc        1 NE8      0.055700
     25 H152       -0.8940    1.3660    1.7240 hc        1 NE8      0.055700
     26 H141       -1.2080   -1.1390    1.5430 hc        1 NE8      0.065200
     27 H142        0.5490   -1.3250    1.1820 hc        1 NE8      0.065200
     28 H231        4.2120   -0.4270   -0.3710 hn        1 NE8      0.409300
     29 H232        4.7230   -0.7250   -1.9250 hn        1 NE8      0.409300
     30 HN8         3.3050    0.2050   -3.7750 hn        1 NE8      0.336500
     31 H2         -1.3610    0.4130   -4.2090 ha        1 NE8      0.163000
     32 H11        -4.1000    0.3320   -3.1360 hn        1 NE8      0.310700
     33 H12        -5.1680   -0.0570   -0.8160 h5        1 NE8      0.070800
     34 H17        -1.9320   -0.0630    3.6500 ha        1 NE8      0.134500
     35 H18        -1.6220   -0.5020    6.0850 ha        1 NE8      0.128000
     36 H19         0.6440   -0.3040    7.1120 ha        1 NE8      0.128000
     37 H20         2.5990    0.3330    5.6980 ha        1 NE8      0.128000
     38 H21         2.2910    0.7710    3.2650 ha        1 NE8      0.134500
@<TRIPOS>BOND
     1    1    2 1   
     2    1   18 1   
     3    1   24 1   
     4    1   25 1   
     5    2    3 1   
     6    2   26 1   
     7    2   27 1   
     8    3    4 ar  
     9    3   17 ar  
    10    4    5 1   
    11    4   11 ar  
    12    5    6 2   
    13    6    7 1   
    14    6    8 1   
    15    7   28 1   
    16    7   29 1   
    17    8    9 1   
    18    8   30 1   
    19    9   10 2   
    20    9   11 1   
    21   11   12 ar  
    22   12   13 ar  
    23   12   31 1   
    24   13   14 1   
    25   13   17 ar  
    26   14   15 1   
    27   14   32 1   
    28   15   16 2   
    29   15   33 1   
    30   16   17 1   
    31   18   19 ar  
    32   18   23 ar  
    33   19   20 ar  
    34   19   34 1   
    35   20   21 ar  
    36   20   35 1   
    37   21   22 ar  
    38   21   36 1   
    39   22   23 ar  
    40   22   37 1   
    41   23   38 1   
@<TRIPOS>SUBSTRUCTURE
     1 NE8         1 TEMP              0 ****  ****    0 ROOT
