@<TRIPOS>MOLECULE
NEA
   42    44     1     0     0
SMALL
bcc


@<TRIPOS>ATOM
      1 N           0.7550   -2.0020    2.1520 n4        1 NEA     -0.840600
      2 CB          1.4500   -0.9630    1.3320 c3        1 NEA      0.119800
      3 CG          1.9140    0.2230    2.1550 c3        1 NEA     -0.096300
      4 SD          2.5280    1.3930    0.9830 ss        1 NEA     -0.183200
      5 C5'         3.8610    2.2060    1.7900 c3        1 NEA     -0.046300
      6 C4'         5.1040    1.3570    1.9650 c3        1 NEA      0.105100
      7 O4'         6.2510    2.1870    1.6970 os        1 NEA     -0.408600
      8 C3'         5.2660    0.7590    3.3790 c3        1 NEA      0.118100
      9 O3'         4.8720   -0.5910    3.4050 oh        1 NEA     -0.606800
     10 C2'         6.7450    0.9990    3.7580 c3        1 NEA      0.090100
     11 O2'         7.4380   -0.2210    3.6250 oh        1 NEA     -0.589800
     12 C1'         7.2840    1.9780    2.6630 c3        1 NEA      0.225800
     13 N9          7.7070    3.2750    3.1690 na        1 NEA     -0.277000
     14 C8          7.4330    4.5420    2.6040 cc        1 NEA      0.520700
     15 N7          8.1340    5.5510    3.1550 nd        1 NEA     -0.574100
     16 C5          8.9420    4.9440    4.1210 ca        1 NEA     -0.132200
     17 C6          9.9140    5.4080    5.0260 ca        1 NEA      0.532200
     18 N6         10.2340    6.8470    5.0470 n4        1 NEA     -0.817300
     19 N1         10.5670    4.5690    5.8680 nb        1 NEA     -0.667000
     20 C2         10.2420    3.2450    5.7970 ca        1 NEA      0.682900
     21 N3          9.3380    2.6360    4.9840 nb        1 NEA     -0.646000
     22 C4          8.6930    3.4840    4.1460 ca        1 NEA      0.450800
     23 HN1         0.4700   -2.7860    1.5540 hn        1 NEA      0.464800
     24 HN2        -0.0790   -1.6030    2.5980 hn        1 NEA      0.464800
     25 HB1         0.7260   -0.6220    0.5320 hx        1 NEA      0.125700
     26 HB2         2.3340   -1.4580    0.8320 hx        1 NEA      0.125700
     27 HG1         2.7120   -0.0710    2.8850 h1        1 NEA      0.101700
     28 HG2         1.0670    0.6770    2.7280 h1        1 NEA      0.101700
     29 H5'1        3.5390    2.6490    2.7630 h1        1 NEA      0.106700
     30 H5'2        4.0930    3.0580    1.0890 h1        1 NEA      0.106700
     31 H4'         5.1310    0.5380    1.1900 h1        1 NEA      0.095700
     32 H3'         4.5920    1.2710    4.1220 h1        1 NEA      0.092700
     33 H3T         5.6110   -1.1420    3.1040 ho        1 NEA      0.447000
     34 H2'         6.8270    1.4150    4.7950 h1        1 NEA      0.091700
     35 HO'2        8.1300   -0.2460    4.3000 ho        1 NEA      0.448000
     36 H1'         8.1600    1.5100    2.1120 h2        1 NEA      0.123700
     37 H8          6.7010    4.6470    1.7830 h5        1 NEA      0.118800
     38 H61         9.3570    7.3790    5.1200 hn        1 NEA      0.483467
     39 H62        10.7040    7.0910    4.1640 hn        1 NEA      0.483467
     40 H2         10.8010    2.5820    6.5010 h5        1 NEA      0.106100
     41 HN3         1.3810   -2.3510    2.8850 hn        1 NEA      0.464800
     42 H63        10.8500    7.0820    5.8380 hn        1 NEA      0.483467
@<TRIPOS>BOND
     1    1    2 1   
     2    1   23 1   
     3    1   24 1   
     4    1   41 1   
     5    2    3 1   
     6    2   25 1   
     7    2   26 1   
     8    3    4 1   
     9    3   27 1   
    10    3   28 1   
    11    4    5 1   
    12    5    6 1   
    13    5   29 1   
    14    5   30 1   
    15    6    7 1   
    16    6    8 1   
    17    6   31 1   
    18    7   12 1   
    19    8    9 1   
    20    8   10 1   
    21    8   32 1   
    22    9   33 1   
    23   10   11 1   
    24   10   12 1   
    25   10   34 1   
    26   11   35 1   
    27   12   13 1   
    28   12   36 1   
    29   13   14 1   
    30   13   22 1   
    31   14   15 2   
    32   14   37 1   
    33   15   16 1   
    34   16   17 ar  
    35   16   22 ar  
    36   17   18 1   
    37   17   19 ar  
    38   18   38 1   
    39   18   39 1   
    40   18   42 1   
    41   19   20 ar  
    42   20   21 ar  
    43   20   40 1   
    44   21   22 ar  
@<TRIPOS>SUBSTRUCTURE
     1 NEA         1 TEMP              0 ****  ****    0 ROOT
