@<TRIPOS>MOLECULE
NEA
   40    42     1     0     0
SMALL
bcc


@<TRIPOS>ATOM
      1 N           2.7400   -0.7570    6.4580 n3        1 NEA     -0.914800
      2 CB          1.9810    0.1320    5.6080 c3        1 NEA      0.168800
      3 CG          1.1520   -0.6110    4.5690 c3        1 NEA     -0.019300
      4 SD          0.2200    0.6170    3.6990 ss        1 NEA     -0.286200
      5 C5'        -0.4830   -0.3500    2.3940 c3        1 NEA     -0.037300
      6 C4'        -1.6290    0.4240    1.7750 c3        1 NEA      0.108100
      7 O4'        -1.1400    1.3730    0.8140 os        1 NEA     -0.399600
      8 C3'        -2.6310   -0.5060    1.0490 c3        1 NEA      0.130100
      9 O3'        -3.9470   -0.2890    1.4900 oh        1 NEA     -0.572800
     10 C2'        -2.4230   -0.2320   -0.4570 c3        1 NEA      0.082100
     11 O2'        -3.6390    0.2340   -1.0000 oh        1 NEA     -0.591800
     12 C1'        -1.3650    0.9200   -0.5220 c3        1 NEA      0.222800
     13 N9         -0.1190    0.5300   -1.1420 na        1 NEA     -0.294000
     14 C8          1.2010    0.7130   -0.6590 cc        1 NEA      0.422700
     15 N7          2.1450    0.3340   -1.5330 nd        1 NEA     -0.547100
     16 C5          1.4430   -0.1140   -2.6620 ca        1 NEA     -0.228200
     17 C6          1.8630   -0.6370   -3.9320 ca        1 NEA      0.765200
     18 N6          3.1940   -0.8080   -4.2010 nh        1 NEA     -0.957500
     19 N1          0.9030   -0.9770   -4.8590 nb        1 NEA     -0.795000
     20 C2         -0.3990   -0.8050   -4.5100 ca        1 NEA      0.690900
     21 N3         -0.9410   -0.3360   -3.3610 nb        1 NEA     -0.761000
     22 C4          0.0080    0.0090   -2.4380 ca        1 NEA      0.449800
     23 HN1         3.2620   -0.2300    7.1290 hn        1 NEA      0.352300
     24 HN2         2.1400   -1.3990    6.9350 hn        1 NEA      0.352300
     25 HB1         1.2840    0.8040    6.1950 h1        1 NEA      0.041200
     26 HB2         2.7180    0.7990    5.0750 h1        1 NEA      0.041200
     27 HG1         1.8130   -1.1750    3.8690 h1        1 NEA      0.067200
     28 HG2         0.4620   -1.3450    5.0520 h1        1 NEA      0.067200
     29 H5'1        0.2930   -0.5770    1.6220 h1        1 NEA      0.072700
     30 H5'2       -0.8560   -1.3190    2.8080 h1        1 NEA      0.072700
     31 H4'        -2.1540    1.0490    2.5530 h1        1 NEA      0.110700
     32 H3'        -2.4310   -1.5880    1.2830 h1        1 NEA      0.093700
     33 H3T        -4.2690    0.5330    1.0940 ho        1 NEA      0.425000
     34 H2'        -2.0810   -1.1610   -0.9830 h1        1 NEA      0.085700
     35 HO'2       -3.5640    0.1540   -1.9610 ho        1 NEA      0.435000
     36 H1'        -1.7820    1.8140   -1.0790 h2        1 NEA      0.104700
     37 H8          1.3750    1.1360    0.3410 h5        1 NEA      0.092800
     38 H61         3.4950   -1.1170   -5.0910 hn        1 NEA      0.450300
     39 H62         3.8590   -0.4930   -3.5380 hn        1 NEA      0.450300
     40 H2         -1.1290   -1.0960   -5.2960 h5        1 NEA      0.051100
@<TRIPOS>BOND
     1    1    2 1   
     2    1   23 1   
     3    1   24 1   
     4    2    3 1   
     5    2   25 1   
     6    2   26 1   
     7    3    4 1   
     8    3   27 1   
     9    3   28 1   
    10    4    5 1   
    11    5    6 1   
    12    5   29 1   
    13    5   30 1   
    14    6    7 1   
    15    6    8 1   
    16    6   31 1   
    17    7   12 1   
    18    8    9 1   
    19    8   10 1   
    20    8   32 1   
    21    9   33 1   
    22   10   11 1   
    23   10   12 1   
    24   10   34 1   
    25   11   35 1   
    26   12   13 1   
    27   12   36 1   
    28   13   14 1   
    29   13   22 1   
    30   14   15 2   
    31   14   37 1   
    32   15   16 1   
    33   16   17 ar  
    34   16   22 ar  
    35   17   18 1   
    36   17   19 ar  
    37   18   38 1   
    38   18   39 1   
    39   19   20 ar  
    40   20   21 ar  
    41   20   40 1   
    42   21   22 ar  
@<TRIPOS>SUBSTRUCTURE
     1 NEA         1 TEMP              0 ****  ****    0 ROOT
