@<TRIPOS>MOLECULE
NEA
   41    43     1     0     0
SMALL
bcc


@<TRIPOS>ATOM
      1 N           3.9620    2.9800    0.7550 nz        1 NEA     -0.840600
      2 CB          3.7530    1.6780    1.4610 c3        1 NEA      0.096800
      3 CG          2.9500    1.8150    2.7410 c3        1 NEA     -0.077300
      4 SD          2.9010    0.2830    3.5950 ss        1 NEA     -0.170200
      5 C5'         4.2970    0.3310    4.6750 c3        1 NEA     -0.061300
      6 C4'         5.4650   -0.5450    4.2660 c3        1 NEA      0.112100
      7 O4'         6.0160   -0.1290    3.0080 os        1 NEA     -0.451600
      8 C3'         6.5930   -0.5000    5.3230 c3        1 NEA      0.093100
      9 O3'         6.8540   -1.7670    5.8710 oh        1 NEA     -0.570800
     10 C2'         7.8320    0.0700    4.5960 c3        1 NEA      0.092100
     11 O2'         8.8450   -0.9140    4.5000 oh        1 NEA     -0.593800
     12 C1'         7.3740    0.3250    3.1350 c3        1 NEA      0.238800
     13 N9          7.4540    1.6940    2.6710 na        1 NEA     -0.263000
     14 C8          7.4400    1.9960    1.2770 cc        1 NEA      0.425700
     15 N7          7.0180    3.2320    0.9890 nd        1 NEA     -0.587100
     16 C5          6.6990    3.8110    2.2310 ca        1 NEA     -0.280200
     17 C6          6.2570    5.1200    2.6040 ca        1 NEA      0.703200
     18 N6          5.9090    6.0350    1.6150 nv        1 NEA     -0.928500
     19 N1          6.0760    5.3990    3.9340 nb        1 NEA     -0.749000
     20 C2          6.3320    4.4110    4.8320 ca        1 NEA      0.693900
     21 N3          6.7510    3.1370    4.6210 nb        1 NEA     -0.721000
     22 C4          6.9540    2.8510    3.3060 ca        1 NEA      0.459800
     23 HN1         4.5650    2.8440   -0.0640 hn        1 NEA      0.462133
     24 HN2         4.4160    3.6560    1.3850 hn        1 NEA      0.462133
     25 HB1         4.7750    1.2450    1.6950 hx        1 NEA      0.124200
     26 HB2         3.2270    0.9800    0.7470 hx        1 NEA      0.124200
     27 HG1         3.3580    2.6280    3.3910 h1        1 NEA      0.096700
     28 HG2         1.8800    2.0630    2.5110 h1        1 NEA      0.096700
     29 H5'1        4.6370    1.3810    4.8430 h1        1 NEA      0.100200
     30 H5'2        3.9090   -0.0660    5.6530 h1        1 NEA      0.100200
     31 H4'         5.1150   -1.6040    4.0970 h1        1 NEA      0.103700
     32 H3'         6.3090    0.1390    6.2050 h1        1 NEA      0.112700
     33 H3T         7.1830   -2.3420    5.1630 ho        1 NEA      0.423000
     34 H2'         8.2250    0.9880    5.1060 h1        1 NEA      0.102700
     35 HO'2        9.1820   -1.0600    5.3960 ho        1 NEA      0.440000
     36 H1'         7.9840   -0.3070    2.4160 h2        1 NEA      0.127700
     37 H8          7.8120    1.2650    0.5420 h5        1 NEA      0.095800
     38 H61         5.7370    6.9710    1.9250 hn        1 NEA      0.432300
     39 H62         6.4750    5.9810    0.7930 hn        1 NEA      0.432300
     40 H2          6.1820    4.6960    5.8990 h5        1 NEA      0.080100
     41 HN3         3.0660    3.3680    0.4520 hn        1 NEA      0.462133
@<TRIPOS>BOND
     1    1    2 1   
     2    1   23 1   
     3    1   24 1   
     4    1   41 1   
     5    2    3 1   
     6    2   25 1   
     7    2   26 1   
     8    3    4 1   
     9    3   27 1   
    10    3   28 1   
    11    4    5 1   
    12    5    6 1   
    13    5   29 1   
    14    5   30 1   
    15    6    7 1   
    16    6    8 1   
    17    6   31 1   
    18    7   12 1   
    19    8    9 1   
    20    8   10 1   
    21    8   32 1   
    22    9   33 1   
    23   10   11 1   
    24   10   12 1   
    25   10   34 1   
    26   11   35 1   
    27   12   13 1   
    28   12   36 1   
    29   13   14 1   
    30   13   22 1   
    31   14   15 2   
    32   14   37 1   
    33   15   16 1   
    34   16   17 ar  
    35   16   22 ar  
    36   17   18 1   
    37   17   19 ar  
    38   18   38 1   
    39   18   39 1   
    40   19   20 ar  
    41   20   21 ar  
    42   20   40 1   
    43   21   22 ar  
@<TRIPOS>SUBSTRUCTURE
     1 NEA         1 TEMP              0 ****  ****    0 ROOT
