@<TRIPOS>MOLECULE
NEA
   40    38     1     0     0
SMALL
bcc


@<TRIPOS>ATOM
      1 N          -6.5960   -2.8790   -2.0460 n3        1 NEA     -0.916800
      2 CB         -5.1740   -2.9090   -2.1370 c3        1 NEA      0.159800
      3 CG         -4.5760   -1.9930   -1.0680 c3        1 NEA     -0.016300
      4 SD         -2.8010   -1.9020   -1.2840 ss        1 NEA     -0.306200
      5 C5'        -2.0840   -1.0230    0.0810 c3        1 NEA     -0.045300
      6 C4'        -0.5490   -1.2280    0.0810 c3        1 NEA      0.101100
      7 O4'         0.0490   -0.1630   -0.3690 os        1 NEA     -0.404600
      8 C3'        -0.0360   -1.3970    1.5170 c3        1 NEA      0.081100
      9 O3'         0.3670   -2.6660    1.7230 oh        1 NEA     -0.589800
     10 C2'         1.1670   -0.4210    1.6460 c3        1 NEA      0.128100
     11 O2'         2.3400   -1.1250    2.2280 oh        1 NEA     -0.564800
     12 C1'         1.4240   -0.0480    0.4420 c3        1 NEA      0.208800
     13 N9          1.8900    1.3140    0.4350 n3        1 NEA     -0.124400
     14 C8          1.0060    2.3280    0.3010 c1        1 NEA      0.159400
     15 N7          1.7050    3.4620    0.0390 ne        1 NEA     -0.380400
     16 C5          3.0320    3.1450    0.0130 cg        1 NEA     -0.197000
     17 C6          4.1710    3.9120   -0.2130 c1        1 NEA      0.626600
     18 N6          4.5120    5.2570   -0.4930 n3        1 NEA     -0.824400
     19 N1          5.3850    3.3360   -0.1890 n1        1 NEA     -0.594800
     20 C2          5.5020    1.9980    0.0580 c1        1 NEA      0.411300
     21 N3          4.3850    1.2420    0.2800 n1        1 NEA     -0.531800
     22 C4          3.1490    1.8240    0.2560 c1        1 NEA      0.031700
     23 HN1        -6.9510   -2.7240   -2.8750 hn        1 NEA      0.354300
     24 HN2        -6.9000   -3.6880   -1.7290 hn        1 NEA      0.354300
     25 HB1        -4.8970   -2.6010   -3.0220 h1        1 NEA      0.032200
     26 HB2        -4.8560   -3.8250   -1.9960 h1        1 NEA      0.032200
     27 HG1        -4.7800   -2.3520   -0.1770 h1        1 NEA      0.084700
     28 HG2        -4.9620   -1.0940   -1.1550 h1        1 NEA      0.084700
     29 H5'1       -2.2830   -0.0790   -0.0020 h1        1 NEA      0.090700
     30 H5'2       -2.4580   -1.3620    0.9200 h1        1 NEA      0.090700
     31 H4'        -0.3090   -2.0100   -0.4620 h1        1 NEA      0.086700
     32 H3'        -0.7390   -1.1550    2.1590 h1        1 NEA      0.066700
     33 H3T        -0.1360   -3.0390    2.3630 ho        1 NEA      0.424000
     34 H2'         0.9220    0.3500    2.1980 h1        1 NEA      0.100700
     35 HO'2        2.3110   -1.0660    3.1150 ho        1 NEA      0.426000
     36 H1'         2.0980   -0.6360    0.0450 h2        1 NEA      0.135700
     37 H8          0.0350    2.2630    0.4140 DU        1 NEA      0.196000
     38 H61         4.2450    5.6420   -1.2740 hn        1 NEA      0.449800
     39 H62         5.0040    5.7330    0.1010 hn        1 NEA      0.449800
     40 H2          6.3880    1.5790    0.0750 ha        1 NEA      0.132500
@<TRIPOS>BOND
     1    1    2 1   
     2    1   23 1   
     3    1   24 1   
     4    2    3 1   
     5    2   25 1   
     6    2   26 1   
     7    3    4 1   
     8    3   27 1   
     9    3   28 1   
    10    4    5 1   
    11    5    6 1   
    12    5   29 1   
    13    5   30 1   
    14    6    7 1   
    15    6    8 1   
    16    6   31 1   
    17    7   12 1   
    18    8    9 1   
    19    8   10 1   
    20    8   32 1   
    21    9   33 1   
    22   10   11 1   
    23   10   12 1   
    24   10   34 1   
    25   11   35 1   
    26   12   13 1   
    27   12   36 1   
    28   13   14 2   
    29   13   22 1   
    30   14   15 2   
    31   15   16 1   
    32   16   22 3   
    33   17   18 1   
    34   17   19 3   
    35   18   38 1   
    36   18   39 1   
    37   20   21 3   
    38   20   40 1   
@<TRIPOS>SUBSTRUCTURE
     1 NEA         1 TEMP              0 ****  ****    0 ROOT
