@<TRIPOS>MOLECULE
NEA
   41    43     1     0     0
SMALL
bcc


@<TRIPOS>ATOM
      1 N           4.0240    2.9270    0.6950 n4        1 NEA     -0.840600
      2 CB          3.7990    1.6420    1.4260 c3        1 NEA      0.096800
      3 CG          2.9660    1.8090    2.6840 c3        1 NEA     -0.077300
      4 SD          2.8990    0.2980    3.5730 ss        1 NEA     -0.170200
      5 C5'         4.2700    0.3720    4.6830 c3        1 NEA     -0.061300
      6 C4'         5.4470   -0.5120    4.3220 c3        1 NEA      0.112100
      7 O4'         6.0260   -0.1250    3.0670 os        1 NEA     -0.451600
      8 C3'         6.5500   -0.4400    5.4030 c3        1 NEA      0.093100
      9 O3'         6.8000   -1.6940    5.9870 oh        1 NEA     -0.570800
     10 C2'         7.8060    0.1140    4.6910 c3        1 NEA      0.092100
     11 O2'         8.8210   -0.8720    4.6410 oh        1 NEA     -0.593800
     12 C1'         7.3810    0.3330    3.2140 c3        1 NEA      0.238800
     13 N9          7.4710    1.6900    2.7190 na        1 NEA     -0.263000
     14 C8          7.4890    1.9590    1.3190 cc        1 NEA      0.425700
     15 N7          7.0740    3.1870    0.9910 nd        1 NEA     -0.587100
     16 C5          6.7260    3.7950    2.2120 ca        1 NEA     -0.280200
     17 C6          6.2750    5.1130    2.5430 ca        1 NEA      0.703200
     18 N6          5.9500    6.0040    1.5240 nh        1 NEA     -0.928500
     19 N1          6.0630    5.4230    3.8610 nb        1 NEA     -0.749000
     20 C2          6.2990    4.4570    4.7880 ca        1 NEA      0.693900
     21 N3          6.7230    3.1790    4.6180 nb        1 NEA     -0.721000
     22 C4          6.9560    2.8620    3.3150 ca        1 NEA      0.459800
     23 HN1         4.4630    3.6190    1.3190 hn        1 NEA      0.462133
     24 HN2         4.6450    2.7720   -0.1070 hn        1 NEA      0.462133
     25 HB1         4.8150    1.2160    1.6940 hx        1 NEA      0.124200
     26 HB2         3.2890    0.9270    0.7170 hx        1 NEA      0.124200
     27 HG1         1.9020    2.0500    2.4240 h1        1 NEA      0.096700
     28 HG2         3.3600    2.6380    3.3240 h1        1 NEA      0.096700
     29 H5'1        3.8600   -0.0010    5.6620 h1        1 NEA      0.100200
     30 H5'2        4.6050    1.4260    4.8340 h1        1 NEA      0.100200
     31 H4'         5.1020   -1.5750    4.1700 h1        1 NEA      0.103700
     32 H3'         6.2470    0.2190    6.2620 h1        1 NEA      0.112700
     33 H3T         7.1450   -2.2850    5.3010 ho        1 NEA      0.423000
     34 H2'         8.1870    1.0440    5.1880 h1        1 NEA      0.102700
     35 HO'2        9.1380   -0.9970    5.5480 ho        1 NEA      0.440000
     36 H1'         8.0070   -0.3160    2.5240 h2        1 NEA      0.127700
     37 H8          7.8780    1.2110    0.6110 h5        1 NEA      0.095800
     38 H61         5.7710    6.9470    1.8080 hn        1 NEA      0.432300
     39 H62         6.5350    5.9300    0.7170 hn        1 NEA      0.432300
     40 H2          6.1240    4.7680    5.8450 h5        1 NEA      0.080100
     41 HN3         3.1350    3.3070    0.3620 hn        1 NEA      0.462133
@<TRIPOS>BOND
     1    1    2 1   
     2    1   23 1   
     3    1   24 1   
     4    1   41 1   
     5    2    3 1   
     6    2   25 1   
     7    2   26 1   
     8    3    4 1   
     9    3   27 1   
    10    3   28 1   
    11    4    5 1   
    12    5    6 1   
    13    5   29 1   
    14    5   30 1   
    15    6    7 1   
    16    6    8 1   
    17    6   31 1   
    18    7   12 1   
    19    8    9 1   
    20    8   10 1   
    21    8   32 1   
    22    9   33 1   
    23   10   11 1   
    24   10   12 1   
    25   10   34 1   
    26   11   35 1   
    27   12   13 1   
    28   12   36 1   
    29   13   14 1   
    30   13   22 1   
    31   14   15 2   
    32   14   37 1   
    33   15   16 1   
    34   16   17 ar  
    35   16   22 ar  
    36   17   18 1   
    37   17   19 ar  
    38   18   38 1   
    39   18   39 1   
    40   19   20 ar  
    41   20   21 ar  
    42   20   40 1   
    43   21   22 ar  
@<TRIPOS>SUBSTRUCTURE
     1 NEA         1 TEMP              0 ****  ****    0 ROOT
