@<TRIPOS>MOLECULE
NEB
   27    27     1     0     0
SMALL
bcc


@<TRIPOS>ATOM
      1 C1          0.0420   -0.0450   -0.0550 c3        1 NEB      0.122500
      2 N1         -0.5460    0.0360   -1.4330 nz        1 NEB     -0.834600
      3 C2          1.5760   -0.0590   -0.0650 c3        1 NEB     -0.131400
      4 C3          2.0750   -0.0410    1.3860 c3        1 NEB      0.122500
      5 N3          3.5690    0.0460    1.4830 nz        1 NEB     -0.834600
      6 C4          1.5590   -1.2980    2.1350 c3        1 NEB      0.112100
      7 O4          2.0720   -1.1990    3.4470 oh        1 NEB     -0.613800
      8 C5          0.0180   -1.2800    2.1370 c3        1 NEB      0.090100
      9 O5         -0.4060   -2.4850    2.7390 oh        1 NEB     -0.577800
     10 C6         -0.4910   -1.3030    0.6830 c3        1 NEB      0.112100
     11 O6         -1.8990   -1.2080    0.6340 oh        1 NEB     -0.613800
     12 H1         -0.3330    0.8740    0.4970 hx        1 NEB      0.136700
     13 H11        -0.3240    0.9370   -1.8690 hn        1 NEB      0.481800
     14 H12        -1.5740   -0.0610   -1.3460 hn        1 NEB      0.481800
     15 H13        -0.1970   -0.7250   -2.0250 hn        1 NEB      0.481800
     16 H21         1.9630    0.8420   -0.6150 hc        1 NEB      0.095700
     17 H22         1.9510   -0.9790   -0.5910 hc        1 NEB      0.095700
     18 H3          1.6750    0.8780    1.9210 hx        1 NEB      0.136700
     19 H31         3.8290   -0.0480    2.4820 hn        1 NEB      0.481800
     20 H32         4.0150   -0.7150    0.9590 hn        1 NEB      0.481800
     21 H4          1.9260   -2.2440    1.6450 h1        1 NEB      0.090700
     22 HO4         1.7310   -1.9530    3.9590 ho        1 NEB      0.480000
     23 H5         -0.3700   -0.3770    2.6820 h1        1 NEB      0.095700
     24 HO5        -0.9510   -2.2690    3.5110 ho        1 NEB      0.457000
     25 H6         -0.1470   -2.2490    0.1760 h1        1 NEB      0.090700
     26 HO6        -2.2660   -1.9610    1.1270 ho        1 NEB      0.480000
     27 H33         3.9050    0.9470    1.1280 hn        1 NEB      0.481800
@<TRIPOS>BOND
     1    1    2 1   
     2    1    3 1   
     3    1   10 1   
     4    1   12 1   
     5    2   13 1   
     6    2   14 1   
     7    2   15 1   
     8    3    4 1   
     9    3   16 1   
    10    3   17 1   
    11    4    5 1   
    12    4    6 1   
    13    4   18 1   
    14    5   19 1   
    15    5   20 1   
    16    5   27 1   
    17    6    7 1   
    18    6    8 1   
    19    6   21 1   
    20    7   22 1   
    21    8    9 1   
    22    8   10 1   
    23    8   23 1   
    24    9   24 1   
    25   10   11 1   
    26   10   25 1   
    27   11   26 1   
@<TRIPOS>SUBSTRUCTURE
     1 NEB         1 TEMP              0 ****  ****    0 ROOT
