@<TRIPOS>MOLECULE
NEB
   27    27     1     0     0
SMALL
bcc


@<TRIPOS>ATOM
      1 C1          0.0420   -0.0420   -0.0540 c3        1 NEB      0.122500
      2 N1         -0.5460    0.0420   -1.4310 n4        1 NEB     -0.834600
      3 C2          1.5760   -0.0570   -0.0650 c3        1 NEB     -0.131400
      4 C3          2.0760   -0.0420    1.3850 c3        1 NEB      0.122500
      5 N3          3.5710    0.0430    1.4810 n4        1 NEB     -0.834600
      6 C4          1.5600   -1.3000    2.1330 c3        1 NEB      0.112100
      7 O4          2.0740   -1.2040    3.4450 oh        1 NEB     -0.613800
      8 C5          0.0190   -1.2820    2.1360 c3        1 NEB      0.090100
      9 O5         -0.4050   -2.4870    2.7360 oh        1 NEB     -0.577800
     10 C6         -0.4910   -1.3010    0.6820 c3        1 NEB      0.112100
     11 O6         -1.8990   -1.2050    0.6340 oh        1 NEB     -0.613800
     12 H1         -0.3320    0.8760    0.5000 hx        1 NEB      0.136700
     13 H11        -0.1990   -0.7180   -2.0260 hn        1 NEB      0.481800
     14 H12        -1.5750   -0.0540   -1.3440 hn        1 NEB      0.481800
     15 H13        -0.3250    0.9430   -1.8660 hn        1 NEB      0.481800
     16 H21         1.9500   -0.9760   -0.5940 hc        1 NEB      0.095700
     17 H22         1.9640    0.8440   -0.6140 hc        1 NEB      0.095700
     18 H3          1.6780    0.8760    1.9220 hx        1 NEB      0.136700
     19 H31         3.8310   -0.0530    2.4800 hn        1 NEB      0.481800
     20 H32         4.0160   -0.7170    0.9560 hn        1 NEB      0.481800
     21 H4          1.9260   -2.2460    1.6400 h1        1 NEB      0.090700
     22 HO4         1.7330   -1.9580    3.9550 ho        1 NEB      0.480000
     23 H5         -0.3680   -0.3790    2.6830 h1        1 NEB      0.095700
     24 HO5        -0.9510   -2.2720    3.5080 ho        1 NEB      0.457000
     25 H6         -0.1480   -2.2470    0.1730 h1        1 NEB      0.090700
     26 HO6        -2.2660   -1.9590    1.1260 ho        1 NEB      0.480000
     27 H33         3.9070    0.9440    1.1270 hn        1 NEB      0.481800
@<TRIPOS>BOND
     1    1    2 1   
     2    1    3 1   
     3    1   10 1   
     4    1   12 1   
     5    2   13 1   
     6    2   14 1   
     7    2   15 1   
     8    3    4 1   
     9    3   16 1   
    10    3   17 1   
    11    4    5 1   
    12    4    6 1   
    13    4   18 1   
    14    5   19 1   
    15    5   20 1   
    16    5   27 1   
    17    6    7 1   
    18    6    8 1   
    19    6   21 1   
    20    7   22 1   
    21    8    9 1   
    22    8   10 1   
    23    8   23 1   
    24    9   24 1   
    25   10   11 1   
    26   10   25 1   
    27   11   26 1   
@<TRIPOS>SUBSTRUCTURE
     1 NEB         1 TEMP              0 ****  ****    0 ROOT
