@<TRIPOS>MOLECULE
NEB
   26    26     1     0     0
SMALL
bcc


@<TRIPOS>ATOM
      1 C1         -1.2720    0.9180    0.2680 c3        1 NEB      0.116500
      2 N1         -2.5840    1.5650   -0.0800 n4        1 NEB     -0.835600
      3 C2         -0.0820    1.7190   -0.2530 c3        1 NEB     -0.113400
      4 C3          1.2240    1.0770    0.2610 c3        1 NEB      0.191500
      5 N3          2.3610    1.9050   -0.0580 n3        1 NEB     -0.897800
      6 C4          1.2940   -0.3780   -0.2800 c3        1 NEB      0.065100
      7 O4          2.4710   -0.9530    0.2580 oh        1 NEB     -0.585800
      8 C5          0.0770   -1.1790    0.2070 c3        1 NEB      0.085100
      9 O5          0.0720   -2.4810   -0.3530 oh        1 NEB     -0.599800
     10 C6         -1.2190   -0.5220   -0.2940 c3        1 NEB      0.132100
     11 O6         -2.3720   -1.1880    0.1850 oh        1 NEB     -0.633800
     12 H1         -1.2420    0.8660    1.4000 hx        1 NEB      0.124700
     13 H11        -2.6470    1.7110   -1.0910 hn        1 NEB      0.466133
     14 H12        -3.3450    0.9370    0.2140 hn        1 NEB      0.466133
     15 H13        -2.6680    2.4660    0.3980 hn        1 NEB      0.466133
     16 H21        -0.0810    1.7370   -1.3740 hc        1 NEB      0.081200
     17 H22        -0.1310    2.7790    0.1150 hc        1 NEB      0.081200
     18 H3          1.1720    1.0120    1.3910 h1        1 NEB      0.082700
     19 H31         3.1660    1.6020    0.4570 hn        1 NEB      0.377800
     20 H32         2.5620    1.8940   -1.0380 hn        1 NEB      0.377800
     21 H4          1.3250   -0.3830   -1.4050 h1        1 NEB      0.062700
     22 HO4         2.7280   -1.6790   -0.3240 ho        1 NEB      0.424000
     23 H5          0.0780   -1.2400    1.3310 h1        1 NEB      0.077700
     24 HO5         0.7540   -2.9900    0.1080 ho        1 NEB      0.438000
     25 H6         -1.2310   -0.5180   -1.4210 h1        1 NEB      0.078700
     26 HO6        -2.2240   -2.1420    0.0800 ho        1 NEB      0.471000
@<TRIPOS>BOND
     1    1    2 1   
     2    1    3 1   
     3    1   10 1   
     4    1   12 1   
     5    2   13 1   
     6    2   14 1   
     7    2   15 1   
     8    3    4 1   
     9    3   16 1   
    10    3   17 1   
    11    4    5 1   
    12    4    6 1   
    13    4   18 1   
    14    5   19 1   
    15    5   20 1   
    16    6    7 1   
    17    6    8 1   
    18    6   21 1   
    19    7   22 1   
    20    8    9 1   
    21    8   10 1   
    22    8   23 1   
    23    9   24 1   
    24   10   11 1   
    25   10   25 1   
    26   11   26 1   
@<TRIPOS>SUBSTRUCTURE
     1 NEB         1 TEMP              0 ****  ****    0 ROOT
