@<TRIPOS>MOLECULE
NEB
   26    26     1     0     0
SMALL
bcc


@<TRIPOS>ATOM
      1 C1         -0.7120    0.5180   -1.0410 c3        1 NEB      0.079500
      2 N1         -1.1750    0.3410   -2.3850 n4        1 NEB     -0.835600
      3 C2          0.8060    0.5180   -1.0410 c3        1 NEB     -0.105400
      4 C3          1.3870    0.5180    0.3630 c3        1 NEB      0.163500
      5 N3          2.8060    0.3410    0.2770 n3        1 NEB     -0.914800
      6 C4          0.8060   -0.5880    1.2340 c3        1 NEB      0.108100
      7 O4          1.2640   -0.4130    2.5630 oh        1 NEB     -0.600800
      8 C5         -0.7140   -0.5880    1.2340 c3        1 NEB      0.113100
      9 O5         -1.1720    0.5670    1.9190 oh        1 NEB     -0.623800
     10 C6         -1.2940   -0.5890   -0.1700 c3        1 NEB      0.136100
     11 O6         -2.6980   -0.4130   -0.0850 oh        1 NEB     -0.611800
     12 H1         -1.0280    1.3800   -0.7090 hx        1 NEB      0.133700
     13 H11        -0.9600   -0.4980   -2.6720 hn        1 NEB      0.463800
     14 H12        -2.0800    0.4480   -2.4110 hn        1 NEB      0.463800
     15 H13        -0.7790    0.9580   -2.9260 hn        1 NEB      0.463800
     16 H21         1.1220   -0.2760   -1.5130 hc        1 NEB      0.076200
     17 H22         1.1220    1.3120   -1.5120 hc        1 NEB      0.076200
     18 H3          1.2010    1.3800    0.7820 h1        1 NEB      0.047700
     19 H31         3.1330    0.8400   -0.4130 hn        1 NEB      0.374800
     20 H32         3.1940    0.6100    1.0570 hn        1 NEB      0.374800
     21 H4          1.1210   -1.4500    0.9020 h1        1 NEB      0.075700
     22 HO4         1.5270   -1.1940    2.8910 ho        1 NEB      0.436000
     23 H5         -1.0290   -1.3820    1.7060 h1        1 NEB      0.090700
     24 HO5        -1.6410    0.3210    2.6320 ho        1 NEB      0.460000
     25 H6         -1.1080   -1.4510   -0.5880 h1        1 NEB      0.096700
     26 HO6        -3.0960   -1.2070   -0.0960 ho        1 NEB      0.457000
@<TRIPOS>BOND
     1    1    2 1   
     2    1    3 1   
     3    1   10 1   
     4    1   12 1   
     5    2   13 1   
     6    2   14 1   
     7    2   15 1   
     8    3    4 1   
     9    3   16 1   
    10    3   17 1   
    11    4    5 1   
    12    4    6 1   
    13    4   18 1   
    14    5   19 1   
    15    5   20 1   
    16    6    7 1   
    17    6    8 1   
    18    6   21 1   
    19    7   22 1   
    20    8    9 1   
    21    8   10 1   
    22    8   23 1   
    23    9   24 1   
    24   10   11 1   
    25   10   25 1   
    26   11   26 1   
@<TRIPOS>SUBSTRUCTURE
     1 NEB         1 TEMP              0 ****  ****    0 ROOT
