@<TRIPOS>MOLECULE
NEB
   27    27     1     0     0
SMALL
bcc


@<TRIPOS>ATOM
      1 C1          0.0400   -0.0440   -0.0510 c3        1 NEB      0.122500
      2 N1         -0.5460    0.0380   -1.4290 n4        1 NEB     -0.834600
      3 C2          1.5740   -0.0630   -0.0590 c3        1 NEB     -0.131400
      4 C3          2.0720   -0.0450    1.3910 c3        1 NEB      0.122500
      5 N3          3.5660    0.0360    1.4900 n4        1 NEB     -0.834600
      6 C4          1.5510   -1.3010    2.1410 c3        1 NEB      0.111600
      7 O4          2.0630   -1.2020    3.4540 oh        1 NEB     -0.613800
      8 C5          0.0100   -1.2780    2.1420 c3        1 NEB      0.090100
      9 O5         -0.4180   -2.4810    2.7440 oh        1 NEB     -0.577800
     10 C6         -0.4970   -1.2990    0.6870 c3        1 NEB      0.111600
     11 O6         -1.9050   -1.2000    0.6370 oh        1 NEB     -0.613800
     12 H1         -0.3320    0.8770    0.5000 hx        1 NEB      0.136700
     13 H11        -0.1990   -0.7240   -2.0210 hn        1 NEB      0.481800
     14 H12        -0.3210    0.9380   -1.8670 hn        1 NEB      0.481800
     15 H13        -1.5750   -0.0550   -1.3440 hn        1 NEB      0.481800
     16 H21         1.9460   -0.9840   -0.5850 hc        1 NEB      0.095700
     17 H22         1.9650    0.8370   -0.6100 hc        1 NEB      0.095700
     18 H3          1.6750    0.8750    1.9250 hx        1 NEB      0.136700
     19 H31         3.8250   -0.0590    2.4890 hn        1 NEB      0.481800
     20 H32         4.0100   -0.7270    0.9670 hn        1 NEB      0.481800
     21 H4          1.9150   -2.2480    1.6510 h1        1 NEB      0.090700
     22 HO4         1.7200   -1.9550    3.9650 ho        1 NEB      0.480000
     23 H5         -0.3750   -0.3730    2.6860 h1        1 NEB      0.095700
     24 HO5        -0.9630   -2.2620    3.5160 ho        1 NEB      0.457000
     25 H6         -0.1560   -2.2470    0.1810 h1        1 NEB      0.090700
     26 HO6        -2.2750   -1.9520    1.1300 ho        1 NEB      0.480000
     27 H33         3.9060    0.9350    1.1340 hn        1 NEB      0.481800
@<TRIPOS>BOND
     1    1    2 1   
     2    1    3 1   
     3    1   10 1   
     4    1   12 1   
     5    2   13 1   
     6    2   14 1   
     7    2   15 1   
     8    3    4 1   
     9    3   16 1   
    10    3   17 1   
    11    4    5 1   
    12    4    6 1   
    13    4   18 1   
    14    5   19 1   
    15    5   20 1   
    16    5   27 1   
    17    6    7 1   
    18    6    8 1   
    19    6   21 1   
    20    7   22 1   
    21    8    9 1   
    22    8   10 1   
    23    8   23 1   
    24    9   24 1   
    25   10   11 1   
    26   10   25 1   
    27   11   26 1   
@<TRIPOS>SUBSTRUCTURE
     1 NEB         1 TEMP              0 ****  ****    0 ROOT
