@<TRIPOS>MOLECULE
NEC
   38    35     1     0     0
SMALL
bcc


@<TRIPOS>ATOM
      1 C5'        -1.8210    0.7270   -1.4970 c1        1 NEC      0.285000
      2 O5'        -2.4260   -0.1820   -0.9720 o         1 NEC     -0.388000
      3 N5'        -2.5410    1.8510   -2.0270 n2        1 NEC     -0.356000
      4 C51        -3.8290    2.1520   -1.5400 c3        1 NEC     -0.032000
      5 C52        -4.2040    3.5670   -1.9440 c3        1 NEC     -0.229000
      6 C4'        -0.4100    0.7580   -1.4420 c3        1 NEC     -0.007000
      7 O4'        -0.0180    0.7010   -0.1870 os        1 NEC     -0.267000
      8 C3'         0.2000   -0.6650   -2.0870 c3        1 NEC     -0.029000
      9 O3'         0.3470   -0.5270   -3.5390 oh        1 NEC     -0.321000
     10 C2'         1.2910   -0.8460   -1.5800 c3        1 NEC     -0.030000
     11 O2'         2.3860   -0.2020   -2.4450 oh        1 NEC     -0.304000
     12 C1'         1.2250   -0.1490   -0.1840 c3        1 NEC      0.125000
     13 N9          1.1530   -1.0560    0.7710 n3        1 NEC     -0.208000
     14 C8          0.5260   -2.2550    0.9010 c1        1 NEC     -0.051000
     15 N7          0.7870   -2.7310    2.1460 n2        1 NEC     -0.110000
     16 C5          1.5800   -1.8200    2.7890 c1        1 NEC     -0.246000
     17 C6          2.2000   -1.8480    4.0140 c1        1 NEC      0.242000
     18 N6          2.1690   -2.7030    5.0730 n3        1 NEC     -0.357000
     19 N1          3.0320   -0.8490    4.3710 n1        1 NEC     -0.268000
     20 C2          3.2570    0.1810    3.5250 c1        1 NEC      0.027000
     21 N3          2.6410    0.2110    2.3050 n1        1 NEC     -0.212000
     22 C4          1.8050   -0.7910    1.9430 c1        1 NEC      0.081000
     23 HN5        -2.1930    2.3310   -2.6790 hn        1 NEC      0.237000
     24 H511       -4.4610    1.5350   -1.9110 h1        1 NEC      0.099000
     25 H512       -3.8350    2.0740   -0.5180 h1        1 NEC      0.099000
     26 H521       -3.4840    4.1820   -1.6870 hc        1 NEC      0.083667
     27 H522       -4.3380    3.6060   -2.9290 hc        1 NEC      0.083667
     28 H523       -5.0290    3.8270   -1.4910 hc        1 NEC      0.083667
     29 H4'        -0.2260    1.5700   -1.9220 h1        1 NEC      0.157000
     30 H3'        -0.3950   -1.4110   -1.8800 h1        1 NEC      0.142000
     31 HO3'        0.0120   -1.1600   -3.9030 ho        1 NEC      0.222000
     32 H2'         1.4650   -1.8400   -1.4690 h1        1 NEC      0.151000
     33 HO2'        2.9390   -0.8680   -2.7940 ho        1 NEC      0.221000
     34 H1'         2.0400    0.4320   -0.0500 h2        1 NEC      0.176000
     35 H8          0.0060   -2.7220    0.1930 DU        1 NEC      0.220000
     36 HN61        2.6380   -2.5090    5.8290 hn        1 NEC      0.244500
     37 HN62        1.6540   -3.4690    5.0320 hn        1 NEC      0.244500
     38 H2          3.8580    0.9020    3.7850 ha        1 NEC      0.190000
@<TRIPOS>BOND
     1    1    2 1   
     2    1    6 1   
     3    3    4 1   
     4    3   23 1   
     5    4    5 1   
     6    4   24 1   
     7    4   25 1   
     8    5   26 1   
     9    5   27 1   
    10    5   28 1   
    11    6    7 1   
    12    6    8 1   
    13    6   29 1   
    14    7   12 1   
    15    8    9 1   
    16    8   10 1   
    17    8   30 1   
    18    9   31 1   
    19   10   11 1   
    20   10   12 1   
    21   10   32 1   
    22   11   33 1   
    23   12   13 1   
    24   12   34 1   
    25   13   14 1   
    26   13   22 1   
    27   14   15 1   
    28   15   16 1   
    29   16   22 1   
    30   17   18 1   
    31   17   19 1   
    32   18   36 1   
    33   18   37 1   
    34   20   21 1   
    35   20   38 1   
@<TRIPOS>SUBSTRUCTURE
     1 NEC         1 TEMP              0 ****  ****    0 ROOT
