@<TRIPOS>MOLECULE
NEC
   40    42     1     0     0
SMALL
bcc


@<TRIPOS>ATOM
      1 C5'         0.1890    0.0160    0.1230 c         1 NEC      0.534100
      2 O5'        -0.3860   -0.0650    1.1930 o         1 NEC     -0.379100
      3 N5'        -0.6180   -0.0850   -1.1480 n4        1 NEC     -0.681800
      4 C51        -1.9160   -0.8160   -0.9710 c3        1 NEC      0.113800
      5 C52        -2.7430   -0.8290   -2.2380 c3        1 NEC     -0.141100
      6 C4'         1.6700    0.2080   -0.1350 c3        1 NEC      0.030100
      7 O4'         2.3320    0.4920    1.0930 os        1 NEC     -0.379600
      8 C3'         2.2940   -1.0750   -0.7420 c3        1 NEC      0.119100
      9 O3'         2.2000   -1.0230   -2.1360 oh        1 NEC     -0.596800
     10 C2'         3.7130   -1.1000   -0.1360 c3        1 NEC      0.098100
     11 O2'         4.5660   -0.4360   -1.0370 oh        1 NEC     -0.587800
     12 C1'         3.5910   -0.2170    1.1570 c3        1 NEC      0.229800
     13 N9          3.6360   -0.9590    2.4010 na        1 NEC     -0.294000
     14 C8          2.7950   -0.7900    3.5320 cc        1 NEC      0.517700
     15 N7          3.2390   -1.4090    4.6380 nd        1 NEC     -0.559100
     16 C5          4.4540   -1.9980    4.2650 ca        1 NEC     -0.131200
     17 C6          5.4280   -2.7590    4.9380 ca        1 NEC      0.542200
     18 N6          5.2330   -3.0670    6.3670 n4        1 NEC     -0.819300
     19 N1          6.5440   -3.2050    4.3090 nb        1 NEC     -0.661000
     20 C2          6.6870   -2.8800    2.9910 ca        1 NEC      0.691900
     21 N3          5.8470   -2.1570    2.2030 nb        1 NEC     -0.648000
     22 C4          4.7370   -1.7160    2.8420 ca        1 NEC      0.452800
     23 HN5        -0.0490   -0.5590   -1.8690 hn        1 NEC      0.474300
     24 H511       -2.4820   -0.3090   -0.1350 hx        1 NEC      0.113700
     25 H512       -1.6690   -1.8680   -0.6490 hx        1 NEC      0.113700
     26 H521       -3.6870   -1.3960   -2.0240 hc        1 NEC      0.088033
     27 H522       -3.0280    0.2030   -2.5610 hc        1 NEC      0.088033
     28 H523       -2.2140   -1.3430   -3.0780 hc        1 NEC      0.088033
     29 H4'         1.8290    1.1010   -0.8110 h1        1 NEC      0.131700
     30 H3'         1.7270   -1.9960   -0.4260 h1        1 NEC      0.099700
     31 HO3'        3.0200   -0.6520   -2.5060 ho        1 NEC      0.471000
     32 H2'         4.0480   -2.1470    0.0760 h1        1 NEC      0.111700
     33 HO2'        5.4370   -0.8590   -1.0030 ho        1 NEC      0.460000
     34 H1'         4.3940    0.5850    1.1670 h2        1 NEC      0.138700
     35 H8          1.8630   -0.1990    3.4630 h5        1 NEC      0.120800
     36 HN61        5.3630   -2.2030    6.9110 hn        1 NEC      0.486467
     37 HN62        4.2730   -3.4120    6.5040 hn        1 NEC      0.486467
     38 H2          7.6200   -3.2600    2.5060 h5        1 NEC      0.112100
     39 H5'2       -0.8200    0.8670   -1.4830 hn        1 NEC      0.474300
     40 H63         5.9070   -3.7770    6.6910 hn        1 NEC      0.486467
@<TRIPOS>BOND
     1    1    2 2   
     2    1    3 1   
     3    1    6 1   
     4    3    4 1   
     5    3   23 1   
     6    3   39 1   
     7    4    5 1   
     8    4   24 1   
     9    4   25 1   
    10    5   26 1   
    11    5   27 1   
    12    5   28 1   
    13    6    7 1   
    14    6    8 1   
    15    6   29 1   
    16    7   12 1   
    17    8    9 1   
    18    8   10 1   
    19    8   30 1   
    20    9   31 1   
    21   10   11 1   
    22   10   12 1   
    23   10   32 1   
    24   11   33 1   
    25   12   13 1   
    26   12   34 1   
    27   13   14 1   
    28   13   22 1   
    29   14   15 2   
    30   14   35 1   
    31   15   16 1   
    32   16   17 ar  
    33   16   22 ar  
    34   17   18 1   
    35   17   19 ar  
    36   18   36 1   
    37   18   37 1   
    38   18   40 1   
    39   19   20 ar  
    40   20   21 ar  
    41   20   38 1   
    42   21   22 ar  
@<TRIPOS>SUBSTRUCTURE
     1 NEC         1 TEMP              0 ****  ****    0 ROOT
