@<TRIPOS>MOLECULE
NEC
   39    41     1     0     0
SMALL
bcc


@<TRIPOS>ATOM
      1 C5'         0.4380    0.3520    0.1590 c         1 NEC      0.528100
      2 O5'        -0.0510    0.5180    1.2600 o         1 NEC     -0.381100
      3 N5'        -0.4900   -0.0830   -0.9630 n4        1 NEC     -0.689800
      4 C51        -1.4030   -1.1920   -0.5450 c3        1 NEC      0.109800
      5 C52        -2.4010   -1.5600   -1.6210 c3        1 NEC     -0.137100
      6 C4'         1.8720    0.5380   -0.2980 c3        1 NEC      0.041100
      7 O4'         2.6700    0.9600    0.7920 os        1 NEC     -0.370600
      8 C3'         2.4490   -0.7870   -0.8650 c3        1 NEC      0.117100
      9 O3'         2.3140   -0.7950   -2.2590 oh        1 NEC     -0.606800
     10 C2'         3.8810   -0.8290   -0.2960 c3        1 NEC      0.096100
     11 O2'         4.7210   -0.1830   -1.2260 oh        1 NEC     -0.600800
     12 C1'         3.7790    0.0450    1.0020 c3        1 NEC      0.239800
     13 N9          3.5500   -0.7250    2.1940 na        1 NEC     -0.328000
     14 C8          2.6950   -0.3780    3.2850 cc        1 NEC      0.406700
     15 N7          2.9350   -1.0830    4.3910 nd        1 NEC     -0.510100
     16 C5          4.0280   -1.9110    4.0790 ca        1 NEC     -0.238200
     17 C6          4.7670   -2.8800    4.8420 ca        1 NEC      0.777200
     18 N6          4.4160   -3.1670    6.1270 nh        1 NEC     -0.938500
     19 N1          5.8300   -3.5210    4.2330 nb        1 NEC     -0.777000
     20 C2          6.1110   -3.2020    2.9500 ca        1 NEC      0.709900
     21 N3          5.5000   -2.3190    2.1130 nb        1 NEC     -0.779000
     22 C4          4.4540   -1.6810    2.7080 ca        1 NEC      0.464800
     23 HN5        -1.0580    0.7220   -1.2540 hn        1 NEC      0.466800
     24 H511       -0.7560   -2.0800   -0.2890 hx        1 NEC      0.111700
     25 H512       -1.9390   -0.8570    0.3920 hx        1 NEC      0.111700
     26 H521       -1.8970   -1.9130   -2.5540 hc        1 NEC      0.082033
     27 H522       -3.0350   -2.3980   -1.2300 hc        1 NEC      0.082033
     28 H523       -3.0750   -0.7050   -1.8720 hc        1 NEC      0.082033
     29 H4'         1.9030    1.3690   -1.0640 h1        1 NEC      0.127700
     30 H3'         1.8730   -1.6800   -0.4920 h1        1 NEC      0.089700
     31 HO3'        3.1320   -0.4560   -2.6600 ho        1 NEC      0.466000
     32 H2'         4.2130   -1.8810   -0.0970 h1        1 NEC      0.126700
     33 HO2'        5.6190   -0.5220   -1.0950 ho        1 NEC      0.454000
     34 H1'         4.6800    0.7220    1.1120 h2        1 NEC      0.128700
     35 H8          1.9190    0.3890    3.1610 h5        1 NEC      0.085800
     36 HN61        3.6860   -2.6510    6.5550 hn        1 NEC      0.459800
     37 HN62        4.9440   -3.8100    6.6660 hn        1 NEC      0.459800
     38 H2          6.9800   -3.7450    2.5130 h5        1 NEC      0.064100
     39 H5'2        0.0730   -0.3880   -1.7710 hn        1 NEC      0.466800
@<TRIPOS>BOND
     1    1    2 2   
     2    1    3 1   
     3    1    6 1   
     4    3    4 1   
     5    3   23 1   
     6    3   39 1   
     7    4    5 1   
     8    4   24 1   
     9    4   25 1   
    10    5   26 1   
    11    5   27 1   
    12    5   28 1   
    13    6    7 1   
    14    6    8 1   
    15    6   29 1   
    16    7   12 1   
    17    8    9 1   
    18    8   10 1   
    19    8   30 1   
    20    9   31 1   
    21   10   11 1   
    22   10   12 1   
    23   10   32 1   
    24   11   33 1   
    25   12   13 1   
    26   12   34 1   
    27   13   14 1   
    28   13   22 1   
    29   14   15 2   
    30   14   35 1   
    31   15   16 1   
    32   16   17 ar  
    33   16   22 ar  
    34   17   18 1   
    35   17   19 ar  
    36   18   36 1   
    37   18   37 1   
    38   19   20 ar  
    39   20   21 ar  
    40   20   38 1   
    41   21   22 ar  
@<TRIPOS>SUBSTRUCTURE
     1 NEC         1 TEMP              0 ****  ****    0 ROOT
