@<TRIPOS>MOLECULE
NEC
   39    41     1     0     0
SMALL
bcc


@<TRIPOS>ATOM
      1 C5'         0.4480    0.3710    0.1670 c         1 NEC      0.528100
      2 O5'        -0.0310    0.5460    1.2710 o         1 NEC     -0.381100
      3 N5'        -0.4920   -0.0580   -0.9470 ny        1 NEC     -0.689800
      4 C51        -1.4130   -1.1570   -0.5190 c3        1 NEC      0.109800
      5 C52        -2.4220   -1.5190   -1.5870 c3        1 NEC     -0.137100
      6 C4'         1.8820    0.5400   -0.3000 c3        1 NEC      0.041100
      7 O4'         2.6910    0.9560    0.7830 os        1 NEC     -0.370600
      8 C3'         2.4390   -0.7930   -0.8670 c3        1 NEC      0.117100
      9 O3'         2.2950   -0.8040   -2.2600 oh        1 NEC     -0.606800
     10 C2'         3.8750   -0.8500   -0.3080 c3        1 NEC      0.096100
     11 O2'         4.7160   -0.2150   -1.2440 oh        1 NEC     -0.600800
     12 C1'         3.7910    0.0290    0.9880 c3        1 NEC      0.239800
     13 N9          3.5620   -0.7340    2.1840 na        1 NEC     -0.328000
     14 C8          2.7180   -0.3750    3.2800 cc        1 NEC      0.406700
     15 N7          2.9570   -1.0790    4.3860 nd        1 NEC     -0.510100
     16 C5          4.0380   -1.9200    4.0700 ca        1 NEC     -0.238200
     17 C6          4.7710   -2.8950    4.8300 ca        1 NEC      0.777200
     18 N6          4.4250   -3.1750    6.1180 nv        1 NEC     -0.938500
     19 N1          5.8230   -3.5500    4.2170 nb        1 NEC     -0.777000
     20 C2          6.0990   -3.2390    2.9300 ca        1 NEC      0.709900
     21 N3          5.4930   -2.3510    2.0950 nb        1 NEC     -0.779000
     22 C4          4.4580   -1.6990    2.6950 ca        1 NEC      0.464800
     23 HN5         0.0630   -0.3710   -1.7580 hn        1 NEC      0.466800
     24 H511       -0.7730   -2.0510   -0.2650 hx        1 NEC      0.111700
     25 H512       -1.9390   -0.8150    0.4200 hx        1 NEC      0.111700
     26 H521       -1.9270   -1.8790   -2.5220 hc        1 NEC      0.082033
     27 H522       -3.0610   -2.3490   -1.1900 hc        1 NEC      0.082033
     28 H523       -3.0890   -0.6580   -1.8360 hc        1 NEC      0.082033
     29 H4'         1.9160    1.3680   -1.0690 h1        1 NEC      0.127700
     30 H3'         1.8570   -1.6790   -0.4870 h1        1 NEC      0.089700
     31 HO3'        3.1140   -0.4750   -2.6680 ho        1 NEC      0.466000
     32 H2'         4.1970   -1.9050   -0.1070 h1        1 NEC      0.126700
     33 HO2'        5.6110   -0.5640   -1.1190 ho        1 NEC      0.454000
     34 H1'         4.7000    0.6970    1.0910 h2        1 NEC      0.128700
     35 H8          1.9500    0.4010    3.1590 h5        1 NEC      0.085800
     36 HN61        3.7050   -2.6500    6.5500 hn        1 NEC      0.459800
     37 HN62        4.9500   -3.8220    6.6560 hn        1 NEC      0.459800
     38 H2          6.9590   -3.7920    2.4900 h5        1 NEC      0.064100
     39 H5'2       -1.0540    0.7510   -1.2360 hn        1 NEC      0.466800
@<TRIPOS>BOND
     1    1    2 2   
     2    1    3 1   
     3    1    6 1   
     4    3    4 1   
     5    3   23 1   
     6    3   39 1   
     7    4    5 1   
     8    4   24 1   
     9    4   25 1   
    10    5   26 1   
    11    5   27 1   
    12    5   28 1   
    13    6    7 1   
    14    6    8 1   
    15    6   29 1   
    16    7   12 1   
    17    8    9 1   
    18    8   10 1   
    19    8   30 1   
    20    9   31 1   
    21   10   11 1   
    22   10   12 1   
    23   10   32 1   
    24   11   33 1   
    25   12   13 1   
    26   12   34 1   
    27   13   14 1   
    28   13   22 1   
    29   14   15 2   
    30   14   35 1   
    31   15   16 1   
    32   16   17 ar  
    33   16   22 ar  
    34   17   18 1   
    35   17   19 ar  
    36   18   36 1   
    37   18   37 1   
    38   19   20 ar  
    39   20   21 ar  
    40   20   38 1   
    41   21   22 ar  
@<TRIPOS>SUBSTRUCTURE
     1 NEC         1 TEMP              0 ****  ****    0 ROOT
