@<TRIPOS>MOLECULE
NEC
   38    40     1     0     0
SMALL
bcc


@<TRIPOS>ATOM
      1 C5'        -0.3080   -0.6720    3.1290 c         1 NEC      0.639100
      2 O5'        -0.3230   -1.7110    3.8270 o         1 NEC     -0.635100
      3 N5'         0.7970    0.1240    3.0080 n         1 NEC     -0.545900
      4 C51         2.0300   -0.1310    3.7050 c3        1 NEC      0.086000
      5 C52         2.5300    1.0470    4.5290 c3        1 NEC     -0.116100
      6 C4'        -1.5950   -0.2620    2.4070 c3        1 NEC      0.026100
      7 O4'        -1.3620    0.6460    1.3320 os        1 NEC     -0.409600
      8 C3'        -2.3310   -1.5000    1.8510 c3        1 NEC      0.093100
      9 O3'        -3.5270   -1.7520    2.5570 oh        1 NEC     -0.597800
     10 C2'        -2.6840   -1.1410    0.3930 c3        1 NEC      0.124100
     11 O2'        -4.0050   -0.6850    0.2030 oh        1 NEC     -0.583800
     12 C1'        -1.7660    0.0830    0.0680 c3        1 NEC      0.246800
     13 N9         -0.6230   -0.2560   -0.7370 na        1 NEC     -0.289000
     14 C8          0.2460   -1.3730   -0.6020 cc        1 NEC      0.402700
     15 N7          1.3000   -1.3410   -1.4260 nd        1 NEC     -0.534100
     16 C5          1.1670   -0.1400   -2.1420 ca        1 NEC     -0.239200
     17 C6          1.9620    0.4750   -3.1670 ca        1 NEC      0.764200
     18 N6          3.1150   -0.1240   -3.6000 nh        1 NEC     -0.958500
     19 N1          1.5520    1.6820   -3.6860 nb        1 NEC     -0.794000
     20 C2          0.4120    2.2260   -3.1870 ca        1 NEC      0.690900
     21 N3         -0.4300    1.7680   -2.2290 nb        1 NEC     -0.733000
     22 C4         -0.0320    0.5690   -1.7120 ca        1 NEC      0.475800
     23 HN5         0.7400    0.9420    2.4460 hn        1 NEC      0.330500
     24 H511        2.8170   -0.3970    2.9400 h1        1 NEC      0.061200
     25 H512        1.8870   -1.0240    4.3800 h1        1 NEC      0.061200
     26 H521        3.5010    0.7640    5.0010 hc        1 NEC      0.043700
     27 H522        2.6940    1.9480    3.8910 hc        1 NEC      0.043700
     28 H523        1.8060    1.3110    5.3360 hc        1 NEC      0.043700
     29 H4'        -2.2410    0.2910    3.1470 h1        1 NEC      0.107700
     30 H3'        -1.6640   -2.4050    1.8870 h1        1 NEC      0.076700
     31 HO3'       -3.2690   -2.0850    3.4280 ho        1 NEC      0.436000
     32 H2'        -2.5000   -2.0160   -0.2870 h1        1 NEC      0.072700
     33 HO2'       -4.5850   -1.2020    0.7800 ho        1 NEC      0.438000
     34 H1'        -2.3470    0.9090   -0.4460 h2        1 NEC      0.148700
     35 H8          0.0270   -2.1750    0.1150 h5        1 NEC      0.071800
     36 HN61        3.6340    0.2640   -4.3480 hn        1 NEC      0.449300
     37 HN62        3.3430   -1.0230   -3.2570 hn        1 NEC      0.449300
     38 H2          0.1280    3.2020   -3.6390 h5        1 NEC      0.054100
@<TRIPOS>BOND
     1    1    2 2   
     2    1    3 1   
     3    1    6 1   
     4    3    4 1   
     5    3   23 1   
     6    4    5 1   
     7    4   24 1   
     8    4   25 1   
     9    5   26 1   
    10    5   27 1   
    11    5   28 1   
    12    6    7 1   
    13    6    8 1   
    14    6   29 1   
    15    7   12 1   
    16    8    9 1   
    17    8   10 1   
    18    8   30 1   
    19    9   31 1   
    20   10   11 1   
    21   10   12 1   
    22   10   32 1   
    23   11   33 1   
    24   12   13 1   
    25   12   34 1   
    26   13   14 1   
    27   13   22 1   
    28   14   15 2   
    29   14   35 1   
    30   15   16 1   
    31   16   17 ar  
    32   16   22 ar  
    33   17   18 1   
    34   17   19 ar  
    35   18   36 1   
    36   18   37 1   
    37   19   20 ar  
    38   20   21 ar  
    39   20   38 1   
    40   21   22 ar  
@<TRIPOS>SUBSTRUCTURE
     1 NEC         1 TEMP              0 ****  ****    0 ROOT
