@<TRIPOS>MOLECULE
NED
   28    28     1     0     0
SMALL
bcc


@<TRIPOS>ATOM
      1 C1         -0.7290   -1.1930    0.5800 c3        1 NED      0.345900
      2 O1         -1.0570   -2.4240    0.0130 oh        1 NED     -0.595800
      3 C2         -1.7380   -0.1300    0.0600 c3        1 NED      0.064500
      4 N2         -1.9920   -0.2730   -1.4030 n4        1 NED     -0.826600
      5 C3         -1.1890    1.2730    0.4420 c3        1 NED      0.115100
      6 O3         -1.1400    1.3150    1.8510 oh        1 NED     -0.582800
      7 C4          0.2620    1.4660   -0.0590 c3        1 NED      0.101100
      8 O4          0.2580    1.4890   -1.4760 oh        1 NED     -0.634800
      9 C5          1.1390    0.2900    0.4170 c3        1 NED      0.123100
     10 O5          0.5810   -0.9700    0.0470 os        1 NED     -0.481600
     11 C6          2.5190    0.3650   -0.2580 c3        1 NED      0.100800
     12 N6          3.4110   -0.7690    0.1040 n4        1 NED     -0.831600
     13 H1         -0.7180   -1.1730    1.7060 h2        1 NED      0.120700
     14 HO1        -0.5770   -3.1260    0.4800 ho        1 NED      0.473000
     15 H2         -2.7200   -0.3020    0.6000 hx        1 NED      0.146700
     16 H21        -2.2570   -1.2500   -1.6000 hn        1 NED      0.479133
     17 H22        -2.7460    0.3550   -1.6980 hn        1 NED      0.479133
     18 H23        -1.1340   -0.0490   -1.9290 hn        1 NED      0.479133
     19 H3         -1.8440    2.0790    0.0110 h1        1 NED      0.090700
     20 HO3        -1.8530    1.8880    2.1720 ho        1 NED      0.462000
     21 H4          0.6690    2.4220    0.3750 h1        1 NED      0.111700
     22 HO4         0.2860    2.4130   -1.7650 ho        1 NED      0.460000
     23 H5          1.2150    0.3500    1.5420 h1        1 NED      0.105700
     24 H61         3.0200    1.3300    0.0450 hx        1 NED      0.135200
     25 H62         2.3780    0.3550   -1.3810 hx        1 NED      0.135200
     26 HN61        3.6290   -0.7550    1.1070 hn        1 NED      0.475467
     27 HN62        4.2890   -0.7050   -0.4280 hn        1 NED      0.475467
     28 H63         2.9460   -1.6590   -0.1200 hn        1 NED      0.475467
@<TRIPOS>BOND
     1    1    2 1   
     2    1    3 1   
     3    1   10 1   
     4    1   13 1   
     5    2   14 1   
     6    3    4 1   
     7    3    5 1   
     8    3   15 1   
     9    4   16 1   
    10    4   17 1   
    11    4   18 1   
    12    5    6 1   
    13    5    7 1   
    14    5   19 1   
    15    6   20 1   
    16    7    8 1   
    17    7    9 1   
    18    7   21 1   
    19    8   22 1   
    20    9   10 1   
    21    9   11 1   
    22    9   23 1   
    23   11   12 1   
    24   11   24 1   
    25   11   25 1   
    26   12   26 1   
    27   12   27 1   
    28   12   28 1   
@<TRIPOS>SUBSTRUCTURE
     1 NED         1 TEMP              0 ****  ****    0 ROOT
