@<TRIPOS>MOLECULE
NED
   28    28     1     0     0
SMALL
bcc


@<TRIPOS>ATOM
      1 C1         -0.6120    0.9360   -1.4160 c3        1 NED      0.345900
      2 O1         -1.0590    0.7650   -2.7090 oh        1 NED     -0.595800
      3 C2          0.8990    0.9360   -1.4160 c3        1 NED      0.064500
      4 N2          1.3700   -0.2510   -2.1180 n4        1 NED     -0.826600
      5 C3          1.4610    0.9360   -0.0460 c3        1 NED      0.115100
      6 O3          1.1790    2.2150    0.5760 oh        1 NED     -0.582800
      7 C4          0.8830   -0.1520    0.8040 c3        1 NED      0.101100
      8 O4          1.3470   -1.4150    0.3160 oh        1 NED     -0.634800
      9 C5         -0.6340   -0.1490    0.7920 c3        1 NED      0.123100
     10 O5         -1.1830   -0.1450   -0.5610 os        1 NED     -0.481600
     11 C6         -1.1280   -1.3720    1.5140 c3        1 NED      0.100800
     12 N6         -2.3590   -1.0640    2.1940 n4        1 NED     -0.831600
     13 H1         -0.9270    1.7990   -1.0850 h2        1 NED      0.120700
     14 HO1        -1.8220    1.2040   -2.8200 ho        1 NED      0.473000
     15 H2          1.2160    1.7300   -1.8870 hx        1 NED      0.146700
     16 H21         1.3480   -0.1010   -3.0170 hn        1 NED      0.479133
     17 H22         0.8320   -0.9580   -1.9150 hn        1 NED      0.479133
     18 H23         2.2250   -0.4360   -1.8620 hn        1 NED      0.479133
     19 H3          2.4280    0.8160   -0.1000 h1        1 NED      0.090700
     20 HO3         1.9390    2.5860    0.8480 ho        1 NED      0.462000
     21 H4          1.1930   -0.0350    1.7220 h1        1 NED      0.111700
     22 HO4         1.9530   -1.7430    0.8750 ho        1 NED      0.460000
     23 H5         -0.9510    0.6450    1.2640 h1        1 NED      0.105700
     24 H61        -0.4590   -1.6590    2.1650 hx        1 NED      0.135200
     25 H62        -1.2830   -2.0890    0.8700 hx        1 NED      0.135200
     26 HN61       -2.9690   -0.7520    1.5920 hn        1 NED      0.475467
     27 HN62       -2.2040   -0.4270    2.8280 hn        1 NED      0.475467
     28 H63        -2.6830   -1.8170    2.5920 hn        1 NED      0.475467
@<TRIPOS>BOND
     1    1    2 1   
     2    1    3 1   
     3    1   10 1   
     4    1   13 1   
     5    2   14 1   
     6    3    4 1   
     7    3    5 1   
     8    3   15 1   
     9    4   16 1   
    10    4   17 1   
    11    4   18 1   
    12    5    6 1   
    13    5    7 1   
    14    5   19 1   
    15    6   20 1   
    16    7    8 1   
    17    7    9 1   
    18    7   21 1   
    19    8   22 1   
    20    9   10 1   
    21    9   11 1   
    22    9   23 1   
    23   11   12 1   
    24   11   24 1   
    25   11   25 1   
    26   12   26 1   
    27   12   27 1   
    28   12   28 1   
@<TRIPOS>SUBSTRUCTURE
     1 NED         1 TEMP              0 ****  ****    0 ROOT
