@<TRIPOS>MOLECULE
NEE
   39    41     1     0     0
SMALL
bcc


@<TRIPOS>ATOM
      1 CAA        -0.1530   -0.4640    0.0030 c3        1 NEE     -0.058800
      2 CAP         1.3050   -0.2020    0.0070 ca        1 NEE     -0.039800
      3 CAJ         1.9170    0.2760    1.1690 ca        1 NEE     -0.159000
      4 CAU         2.0880   -0.4200   -1.1390 ca        1 NEE     -0.008600
      5 CL1         1.3480   -1.0030   -2.5590 cl        1 NEE     -0.093400
      6 CAQ         3.4700   -0.1640   -1.1370 ca        1 NEE     -0.039800
      7 CAB         4.2950   -0.3900   -2.3470 c3        1 NEE     -0.058800
      8 CAK         4.0750    0.3080    0.0310 ca        1 NEE     -0.159000
      9 CAT         3.2920    0.5260    1.1710 ca        1 NEE      0.111100
     10 OAO         3.9550    1.0970    2.2540 os        1 NEE     -0.246200
     11 CAS         3.5410    0.7020    3.5230 ca        1 NEE      0.106100
     12 CAL         3.1440   -0.6060    3.8200 ca        1 NEE     -0.164000
     13 CAG         3.6470    1.6790    4.5250 ca        1 NEE     -0.133000
     14 CAD         3.3510    1.3230    5.8380 ca        1 NEE     -0.107000
     15 CAF         2.9450    0.0250    6.1490 ca        1 NEE     -0.129000
     16 CAR         2.8410   -0.9400    5.1430 ca        1 NEE     -0.094300
     17 CAM         2.3670   -2.3340    5.4510 c3        1 NEE      0.087600
     18 NAV         2.9970   -2.9670    6.5710 na        1 NEE     -0.209900
     19 CAH         2.5680   -2.9180    7.9030 cc        1 NEE     -0.262600
     20 CAE         3.5250   -3.6300    8.6470 cd        1 NEE      0.293200
     21 NAN         4.5340   -4.1000    7.8050 nd        1 NEE     -0.667000
     22 CAI         4.2050   -3.6840    6.5650 cc        1 NEE      0.396400
     23 H1         -0.3540   -1.5380   -0.2410 hc        1 NEE      0.053533
     24 H2         -0.6570    0.1690   -0.7710 hc        1 NEE      0.053533
     25 H3         -0.6080   -0.2360    0.9970 hc        1 NEE      0.053533
     26 H4          1.3230    0.4570    2.0770 ha        1 NEE      0.154000
     27 H5          4.2350   -1.4620   -2.6630 hc        1 NEE      0.053533
     28 H6          5.3670   -0.1350   -2.1590 hc        1 NEE      0.053533
     29 H7          3.9240    0.2440   -3.1920 hc        1 NEE      0.053533
     30 H8          5.1540    0.5200    0.0610 ha        1 NEE      0.154000
     31 H9          3.0720   -1.3530    3.0150 ha        1 NEE      0.149000
     32 H10         3.9700    2.6970    4.2650 ha        1 NEE      0.155000
     33 H11         3.4360    2.0750    6.6380 ha        1 NEE      0.141000
     34 H12         2.7150   -0.2420    7.1920 ha        1 NEE      0.143000
     35 H13         2.5300   -2.9910    4.5470 h1        1 NEE      0.068700
     36 H14         1.2560   -2.2870    5.6540 h1        1 NEE      0.068700
     37 H15         1.6500   -2.4180    8.2020 h4        1 NEE      0.175000
     38 H16         3.5400   -3.8280    9.7170 h4        1 NEE      0.042100
     39 H17         4.7760   -3.8700    5.6500 h5        1 NEE      0.062100
@<TRIPOS>BOND
     1    1    2 1   
     2    1   23 1   
     3    1   24 1   
     4    1   25 1   
     5    2    3 ar  
     6    2    4 ar  
     7    3    9 ar  
     8    3   26 1   
     9    4    5 1   
    10    4    6 ar  
    11    6    7 1   
    12    6    8 ar  
    13    7   27 1   
    14    7   28 1   
    15    7   29 1   
    16    8    9 ar  
    17    8   30 1   
    18    9   10 1   
    19   10   11 1   
    20   11   12 ar  
    21   11   13 ar  
    22   12   16 ar  
    23   12   31 1   
    24   13   14 ar  
    25   13   32 1   
    26   14   15 ar  
    27   14   33 1   
    28   15   16 ar  
    29   15   34 1   
    30   16   17 1   
    31   17   18 1   
    32   17   35 1   
    33   17   36 1   
    34   18   19 1   
    35   18   22 1   
    36   19   20 2   
    37   19   37 1   
    38   20   21 1   
    39   20   38 1   
    40   21   22 2   
    41   22   39 1   
@<TRIPOS>SUBSTRUCTURE
     1 NEE         1 TEMP              0 ****  ****    0 ROOT
