@<TRIPOS>MOLECULE
NEE
   39    41     1     0     0
SMALL
bcc


@<TRIPOS>ATOM
      1 CAA         3.1170    2.0550   -1.6960 c3        1 NEE     -0.058800
      2 CAP         2.9840    0.9310   -0.7400 ca        1 NEE     -0.039800
      3 CAJ         1.9250    0.9220    0.1720 ca        1 NEE     -0.159000
      4 CAU         3.9080   -0.1270   -0.7270 ca        1 NEE     -0.008600
      5 CL1         5.2010   -0.1230   -1.8370 cl        1 NEE     -0.093400
      6 CAQ         3.7850   -1.1900    0.1860 ca        1 NEE     -0.039800
      7 CAB         4.7620   -2.3040    0.2020 c3        1 NEE     -0.058800
      8 CAK         2.7200   -1.1940    1.0900 ca        1 NEE     -0.159000
      9 CAT         1.8030   -0.1360    1.0770 ca        1 NEE      0.111100
     10 OAO         0.8380   -0.1660    2.0800 os        1 NEE     -0.246200
     11 CAS        -0.4210    0.3300    1.7540 ca        1 NEE      0.106100
     12 CAL        -1.0080    0.1490    0.4970 ca        1 NEE     -0.164000
     13 CAG        -1.1220    0.9390    2.8060 ca        1 NEE     -0.133000
     14 CAD        -2.4290    1.3640    2.5810 ca        1 NEE     -0.107000
     15 CAF        -3.0250    1.1980    1.3310 ca        1 NEE     -0.129000
     16 CAR        -2.3170    0.5920    0.2890 ca        1 NEE     -0.094300
     17 CAM        -2.9280    0.4390   -1.0780 c3        1 NEE      0.087600
     18 NAV        -4.2530   -0.1010   -1.1050 na        1 NEE     -0.209900
     19 CAH        -5.4490    0.6250   -1.0520 cc        1 NEE     -0.262600
     20 CAE        -6.4840   -0.3270   -1.0460 cd        1 NEE      0.293200
     21 NAN        -5.9500   -1.6150   -1.0790 nd        1 NEE     -0.667000
     22 CAI        -4.6110   -1.4600   -1.1050 cc        1 NEE      0.396400
     23 H1          4.0960    2.5770   -1.5460 hc        1 NEE      0.053533
     24 H2          3.0830    1.6760   -2.7480 hc        1 NEE      0.053533
     25 H3          2.2960    2.8010   -1.5610 hc        1 NEE      0.053533
     26 H4          1.1920    1.7430    0.1830 ha        1 NEE      0.154000
     27 H5          5.7910   -1.9140    0.4070 hc        1 NEE      0.053533
     28 H6          4.5050   -3.0550    0.9890 hc        1 NEE      0.053533
     29 H7          4.7770   -2.8210   -0.7900 hc        1 NEE      0.053533
     30 H8          2.6020   -2.0100    1.8180 ha        1 NEE      0.154000
     31 H9         -0.4370   -0.3350   -0.3100 ha        1 NEE      0.149000
     32 H10        -0.6400    1.0610    3.7870 ha        1 NEE      0.155000
     33 H11        -2.9950    1.8360    3.3980 ha        1 NEE      0.141000
     34 H12        -4.0590    1.5380    1.1670 ha        1 NEE      0.143000
     35 H13        -2.9550    1.4600   -1.5620 h1        1 NEE      0.068700
     36 H14        -2.2700   -0.2290   -1.7080 h1        1 NEE      0.068700
     37 H15        -5.4710    1.7120   -1.0380 h4        1 NEE      0.175000
     38 H16        -7.5590   -0.1570   -1.0220 h4        1 NEE      0.042100
     39 H17        -3.8690   -2.2650   -1.1330 h5        1 NEE      0.062100
@<TRIPOS>BOND
     1    1    2 1   
     2    1   23 1   
     3    1   24 1   
     4    1   25 1   
     5    2    3 ar  
     6    2    4 ar  
     7    3    9 ar  
     8    3   26 1   
     9    4    5 1   
    10    4    6 ar  
    11    6    7 1   
    12    6    8 ar  
    13    7   27 1   
    14    7   28 1   
    15    7   29 1   
    16    8    9 ar  
    17    8   30 1   
    18    9   10 1   
    19   10   11 1   
    20   11   12 ar  
    21   11   13 ar  
    22   12   16 ar  
    23   12   31 1   
    24   13   14 ar  
    25   13   32 1   
    26   14   15 ar  
    27   14   33 1   
    28   15   16 ar  
    29   15   34 1   
    30   16   17 1   
    31   17   18 1   
    32   17   35 1   
    33   17   36 1   
    34   18   19 1   
    35   18   22 1   
    36   19   20 2   
    37   19   37 1   
    38   20   21 1   
    39   20   38 1   
    40   21   22 2   
    41   22   39 1   
@<TRIPOS>SUBSTRUCTURE
     1 NEE         1 TEMP              0 ****  ****    0 ROOT
