@<TRIPOS>MOLECULE
NEE
   39    33     1     0     0
SMALL
bcc


@<TRIPOS>ATOM
      1 CAA        -0.6450    2.4850   -4.8240 c3        1 NEE     -0.184000
      2 CAP        -0.6550    2.4280   -3.2830 c2        1 NEE     -0.033000
      3 CAJ        -1.1720    1.3090   -2.6300 c2        1 NEE     -0.143000
      4 CAU        -0.1510    3.4930   -2.5430 c1        1 NEE     -0.088000
      5 CL1         0.5810    4.8490   -3.3580 cl        1 NEE     -0.015000
      6 CAQ        -0.1620    3.4420   -1.1560 c2        1 NEE     -0.030000
      7 CAB         0.2830    4.6550   -0.3480 c3        1 NEE     -0.184000
      8 CAK        -0.6820    2.3180   -0.5010 c1        1 NEE     -0.175000
      9 CAT        -1.1840    1.2570   -1.2360 c1        1 NEE      0.066000
     10 OAO        -1.8260    0.1990   -0.5820 os        1 NEE     -0.159000
     11 CAS        -0.8880   -0.8240   -0.3030 c2        1 NEE      0.060000
     12 CAL        -0.9780   -1.5360    0.8890 c2        1 NEE     -0.132000
     13 CAG         0.0030   -1.2310   -1.2880 c1        1 NEE     -0.163000
     14 CAD         0.8060   -2.3530   -1.0800 c1        1 NEE     -0.116500
     15 CAF         0.7140   -3.0630    0.1140 c1        1 NEE     -0.116500
     16 CAR        -0.1760   -2.6550    1.0950 c1        1 NEE     -0.090000
     17 CAM        -0.3300   -3.4750    2.3740 c2        1 NEE      0.020000
     18 NAV         0.4490   -2.8670    3.4340 n3        1 NEE     -0.165000
     19 CAH         1.7310   -3.1310    3.7160 c1        1 NEE     -0.172000
     20 CAE         2.0650   -2.4420    4.8350 c1        1 NEE     -0.173000
     21 NAN         0.9810   -1.7540    5.2380 n2        1 NEE     -0.141000
     22 CAI        -0.0190   -2.0130    4.3770 c1        1 NEE     -0.093000
     23 H1         -1.0770    1.6910   -5.1800 hc        1 NEE      0.093000
     24 H2          0.3000    2.5240   -5.1490 hc        1 NEE      0.093000
     25 H3         -1.1350    3.2950   -5.1320 hc        1 NEE      0.093000
     26 H4         -1.5310    0.5530   -3.1550 ha        1 NEE      0.155000
     27 H5         -0.0820    4.5960    0.5560 hc        1 NEE      0.093333
     28 H6         -0.0400    5.4670   -0.7750 hc        1 NEE      0.093333
     29 H7          1.2570    4.6750   -0.3030 hc        1 NEE      0.093333
     30 H8         -0.6900    2.2820    0.4920 ha        1 NEE      0.153000
     31 H9         -1.6040   -1.2500    1.5830 ha        1 NEE      0.152000
     32 H10         0.0670   -0.7380   -2.1160 ha        1 NEE      0.152000
     33 H11         1.4370   -2.6420   -1.7760 ha        1 NEE      0.142000
     34 H12         1.2730   -3.8440    0.2600 ha        1 NEE      0.142000
     35 H13        -0.0140   -4.3860    2.2180 h4        1 NEE      0.109000
     36 H14        -1.2690   -3.4970    2.6330 h4        1 NEE      0.109000
     37 H15         2.3330   -3.7270    3.1970 DU        1 NEE      0.184000
     38 H16         2.9640   -2.4440    5.2850 DU        1 NEE      0.184000
     39 H17        -0.9330   -1.6460    4.4240 DU        1 NEE      0.184000
@<TRIPOS>BOND
     1    1    2 1   
     2    1   23 1   
     3    1   24 1   
     4    1   25 1   
     5    2    3 1   
     6    2    4 1   
     7    3    9 1   
     8    3   26 1   
     9    4    6 1   
    10    6    7 1   
    11    6    8 1   
    12    7   27 1   
    13    7   28 1   
    14    7   29 1   
    15    8   30 1   
    16    9   10 1   
    17   10   11 1   
    18   11   12 1   
    19   11   13 1   
    20   12   16 1   
    21   12   31 1   
    22   13   32 1   
    23   14   15 1   
    24   14   33 1   
    25   15   34 1   
    26   17   18 1   
    27   17   35 1   
    28   17   36 1   
    29   18   19 1   
    30   18   22 1   
    31   19   20 1   
    32   20   21 1   
    33   21   22 1   
@<TRIPOS>SUBSTRUCTURE
     1 NEE         1 TEMP              0 ****  ****    0 ROOT
