@<TRIPOS>MOLECULE
NEE
   39    41     1     0     0
SMALL
bcc


@<TRIPOS>ATOM
      1 CAA        -0.1560   -0.4730    0.0060 c3        1 NEE     -0.058800
      2 CAP         1.3030   -0.2110    0.0070 ca        1 NEE     -0.039800
      3 CAJ         1.9170    0.2690    1.1670 ca        1 NEE     -0.159000
      4 CAU         2.0840   -0.4300   -1.1400 ca        1 NEE     -0.008600
      5 Cl1         1.3410   -1.0160   -2.5580 cl        1 NEE     -0.093400
      6 CAQ         3.4660   -0.1740   -1.1410 ca        1 NEE     -0.039800
      7 CAB         4.2880   -0.4010   -2.3520 c3        1 NEE     -0.058800
      8 CAK         4.0730    0.3000    0.0250 ca        1 NEE     -0.159000
      9 CAT         3.2920    0.5200    1.1670 ca        1 NEE      0.111100
     10 OAO         3.9570    1.0940    2.2470 os        1 NEE     -0.246200
     11 CAS         3.5430    0.7020    3.5170 ca        1 NEE      0.106100
     12 CAL         3.1470   -0.6060    3.8180 ca        1 NEE     -0.164000
     13 CAG         3.6490    1.6820    4.5170 ca        1 NEE     -0.133000
     14 CAD         3.3540    1.3300    5.8310 ca        1 NEE     -0.107000
     15 CAF         2.9490    0.0320    6.1460 ca        1 NEE     -0.129000
     16 CAR         2.8450   -0.9350    5.1420 ca        1 NEE     -0.094300
     17 CAM         2.3710   -2.3290    5.4550 c3        1 NEE      0.087600
     18 NAV         3.0000   -2.9570    6.5780 na        1 NEE     -0.209900
     19 CAH         2.5690   -2.9050    7.9090 cc        1 NEE     -0.262600
     20 CAE         3.5250   -3.6140    8.6570 cd        1 NEE      0.293200
     21 NAN         4.5360   -4.0850    7.8180 nd        1 NEE     -0.667000
     22 CAI         4.2090   -3.6740    6.5770 cc        1 NEE      0.396400
     23 H1         -0.3560   -1.5470   -0.2360 hc        1 NEE      0.053533
     24 H2         -0.6610    0.1580   -0.7680 hc        1 NEE      0.053533
     25 H3         -0.6090   -0.2440    1.0010 hc        1 NEE      0.053533
     26 H4          1.3250    0.4520    2.0760 ha        1 NEE      0.154000
     27 H5          4.2280   -1.4730   -2.6670 hc        1 NEE      0.053533
     28 H6          5.3610   -0.1460   -2.1660 hc        1 NEE      0.053533
     29 H7          3.9150    0.2320   -3.1970 hc        1 NEE      0.053533
     30 H8          5.1510    0.5130    0.0520 ha        1 NEE      0.154000
     31 H9          3.0750   -1.3550    3.0160 ha        1 NEE      0.149000
     32 H10         3.9720    2.6990    4.2540 ha        1 NEE      0.155000
     33 H11         3.4400    2.0840    6.6280 ha        1 NEE      0.141000
     34 H12         2.7190   -0.2320    7.1900 ha        1 NEE      0.143000
     35 H13         2.5360   -2.9900    4.5530 h1        1 NEE      0.068700
     36 H14         1.2600   -2.2820    5.6550 h1        1 NEE      0.068700
     37 H15         1.6510   -2.4040    8.2050 h4        1 NEE      0.175000
     38 H16         3.5390   -3.8080    9.7280 h4        1 NEE      0.042100
     39 H17         4.7810   -3.8640    5.6630 h5        1 NEE      0.062100
@<TRIPOS>BOND
     1    1    2 1   
     2    1   23 1   
     3    1   24 1   
     4    1   25 1   
     5    2    3 ar  
     6    2    4 ar  
     7    3    9 ar  
     8    3   26 1   
     9    4    5 1   
    10    4    6 ar  
    11    6    7 1   
    12    6    8 ar  
    13    7   27 1   
    14    7   28 1   
    15    7   29 1   
    16    8    9 ar  
    17    8   30 1   
    18    9   10 1   
    19   10   11 1   
    20   11   12 ar  
    21   11   13 ar  
    22   12   16 ar  
    23   12   31 1   
    24   13   14 ar  
    25   13   32 1   
    26   14   15 ar  
    27   14   33 1   
    28   15   16 ar  
    29   15   34 1   
    30   16   17 1   
    31   17   18 1   
    32   17   35 1   
    33   17   36 1   
    34   18   19 1   
    35   18   22 1   
    36   19   20 2   
    37   19   37 1   
    38   20   21 1   
    39   20   38 1   
    40   21   22 2   
    41   22   39 1   
@<TRIPOS>SUBSTRUCTURE
     1 NEE         1 TEMP              0 ****  ****    0 ROOT
