@<TRIPOS>MOLECULE
NEG
   40    39     1     0     0
SMALL
bcc


@<TRIPOS>ATOM
      1 O1          0.2850    0.3430    0.3190 o         1 NEG     -0.387000
      2 C8          1.1780   -0.3850   -0.0850 c         1 NEG      0.598100
      3 O2          1.4810   -1.5250    0.5990 oh        1 NEG     -0.657100
      4 C7          2.0040   -0.1910   -1.3350 c3        1 NEG      0.037800
      5 N3          3.4980   -0.0580   -1.1030 n4        1 NEG     -0.460400
      6 C9          4.1600    0.1300   -2.4580 c3        1 NEG      0.107100
      7 N2          4.0790   -1.1210   -0.3830 n         1 NEG     -0.444300
      8 C6          4.9020   -0.8780    0.7410 c         1 NEG      0.663100
      9 O4          5.2510    0.2780    1.0390 o         1 NEG     -0.580100
     10 C5          5.4270   -2.0980    1.4750 c3        1 NEG     -0.178400
     11 C4          6.1160   -1.7460    2.8070 c3        1 NEG      0.145500
     12 N4          7.2920   -0.8280    2.6090 n4        1 NEG     -0.854600
     13 C3          6.5170   -3.0420    3.5290 c3        1 NEG     -0.137400
     14 C2          6.5040   -2.9210    5.0600 c3        1 NEG      0.124100
     15 O3          5.1940   -2.5800    5.4780 oh        1 NEG     -0.601800
     16 C1          6.8410   -4.3160    5.6490 c3        1 NEG      0.083800
     17 N1          6.4750   -4.4700    7.0820 n4        1 NEG     -0.833600
     18 H71         1.6660    0.7700   -1.8380 hx        1 NEG      0.165700
     19 H72         1.8110   -1.0600   -2.0360 hx        1 NEG      0.165700
     20 H91         3.6870    1.0320   -2.9350 hx        1 NEG      0.127033
     21 H92         5.2600    0.3050   -2.3170 hx        1 NEG      0.127033
     22 H93         3.9960   -0.7790   -3.0970 hx        1 NEG      0.127033
     23 HN2         3.4990   -1.9540   -0.3720 hn        1 NEG      0.386500
     24 H51         6.1270   -2.6600    0.7940 hc        1 NEG      0.136200
     25 H52         4.5690   -2.7890    1.7190 hc        1 NEG      0.136200
     26 H4          5.3750   -1.1760    3.4530 hx        1 NEG      0.135700
     27 HN41        7.9730   -1.2400    1.9620 hn        1 NEG      0.479467
     28 HN42        7.7560   -0.6500    3.5060 hn        1 NEG      0.479467
     29 H31         5.7670   -3.8330    3.2420 hc        1 NEG      0.109700
     30 H32         7.5250   -3.4060    3.1970 hc        1 NEG      0.109700
     31 H2          7.2610   -2.1670    5.4090 h1        1 NEG      0.067700
     32 HO3         5.2180   -1.7260    5.9340 ho        1 NEG      0.450000
     33 H11         7.9490   -4.5080    5.5390 hx        1 NEG      0.131700
     34 H12         6.2740   -5.1080    5.0750 hx        1 NEG      0.131700
     35 HN11        6.5830   -5.4570    7.3630 hn        1 NEG      0.482467
     36 HN12        5.4930   -4.1880    7.2220 hn        1 NEG      0.482467
     37 H311        3.6570    0.8210   -0.5590 hn        1 NEG      0.482800
     38 H22         0.7880   -1.7090    1.2640 ho        1 NEG      0.501000
     39 H43         6.9650    0.0750    2.2180 hn        1 NEG      0.479467
     40 H13         7.0740   -3.8930    7.6840 hn        1 NEG      0.482467
@<TRIPOS>BOND
     1    1    2 2   
     2    2    3 1   
     3    2    4 1   
     4    3   38 1   
     5    4    5 1   
     6    4   18 1   
     7    4   19 1   
     8    5    6 1   
     9    5    7 1   
    10    5   37 1   
    11    6   20 1   
    12    6   21 1   
    13    6   22 1   
    14    7    8 1   
    15    7   23 1   
    16    8    9 2   
    17    8   10 1   
    18   10   11 1   
    19   10   24 1   
    20   10   25 1   
    21   11   12 1   
    22   11   13 1   
    23   11   26 1   
    24   12   27 1   
    25   12   28 1   
    26   12   39 1   
    27   13   14 1   
    28   13   29 1   
    29   13   30 1   
    30   14   15 1   
    31   14   16 1   
    32   14   31 1   
    33   15   32 1   
    34   16   17 1   
    35   16   33 1   
    36   16   34 1   
    37   17   35 1   
    38   17   36 1   
    39   17   40 1   
@<TRIPOS>SUBSTRUCTURE
     1 NEG         1 TEMP              0 ****  ****    0 ROOT
