@<TRIPOS>MOLECULE
NEG
   36    35     1     0     0
SMALL
bcc


@<TRIPOS>ATOM
      1 O1         -1.1360    2.9570    1.2640 o         1 NEG     -0.842300
      2 C8         -1.1710    1.7000    1.2870 c         1 NEG      0.918600
      3 O2         -0.2620    0.9790    1.8040 o         1 NEG     -0.842300
      4 C7         -2.4400    1.0320    0.7000 c3        1 NEG      0.017800
      5 N3         -2.2230   -0.1280   -0.1900 n3        1 NEG     -0.482600
      6 C9         -3.5180   -0.5910   -0.7050 c3        1 NEG      0.136100
      7 N2         -1.4900   -1.1510    0.4080 n         1 NEG     -0.403300
      8 C6         -0.7980   -2.0700   -0.4020 c         1 NEG      0.636100
      9 O4         -1.1630   -2.4130   -1.5460 o         1 NEG     -0.626100
     10 C5          0.3650   -2.7970    0.2630 c3        1 NEG     -0.152400
     11 C4          1.6990   -2.1360   -0.1260 c3        1 NEG      0.172500
     12 N4          2.8250   -2.9200    0.3590 n3        1 NEG     -0.906800
     13 C3          1.6790   -0.6690    0.3250 c3        1 NEG     -0.172400
     14 C2          3.0340    0.0160    0.2850 c3        1 NEG      0.101100
     15 O3          3.8120   -0.3590   -0.8470 oh        1 NEG     -0.630800
     16 C1          2.8380    1.5470    0.3170 c3        1 NEG      0.105800
     17 N1          4.0430    2.3150    0.4940 n3        1 NEG     -0.895800
     18 H71        -3.1110    0.7820    1.5700 h1        1 NEG      0.035700
     19 H72        -2.9590    1.8000    0.0620 h1        1 NEG      0.035700
     20 H91        -3.9630    0.2620   -1.2800 h1        1 NEG      0.030033
     21 H92        -3.3540   -1.4530   -1.4050 h1        1 NEG      0.030033
     22 H93        -4.2450   -0.9040    0.0920 h1        1 NEG      0.030033
     23 HN2        -0.9120   -0.7840    1.1650 hn        1 NEG      0.344500
     24 H51         0.2560   -2.8150    1.3770 hc        1 NEG      0.062200
     25 H52         0.3530   -3.8570   -0.1040 hc        1 NEG      0.062200
     26 H4          1.7690   -2.1500   -1.2560 h1        1 NEG      0.059700
     27 HN41        3.6750   -2.5280   -0.0040 hn        1 NEG      0.344800
     28 HN42        2.8630   -2.8800    1.3600 hn        1 NEG      0.344800
     29 H31         0.9600   -0.1030   -0.3270 hc        1 NEG      0.094200
     30 H32         1.2840   -0.5810    1.3750 hc        1 NEG      0.094200
     31 H2          3.6680   -0.3170    1.1570 h1        1 NEG      0.048700
     32 HO3         3.2770   -0.1760   -1.6280 ho        1 NEG      0.402000
     33 H11         2.3760    1.8610   -0.6620 h1        1 NEG      0.090700
     34 H12         2.0920    1.7930    1.1310 h1        1 NEG      0.090700
     35 HN11        4.3890    2.2140    1.4290 hn        1 NEG      0.332800
     36 HN12        4.7520    1.9910   -0.1380 hn        1 NEG      0.332800
@<TRIPOS>BOND
     1    1    2 1   
     2    2    3 1   
     3    2    4 1   
     4    4    5 1   
     5    4   18 1   
     6    4   19 1   
     7    5    6 1   
     8    5    7 1   
     9    6   20 1   
    10    6   21 1   
    11    6   22 1   
    12    7    8 1   
    13    7   23 1   
    14    8    9 2   
    15    8   10 1   
    16   10   11 1   
    17   10   24 1   
    18   10   25 1   
    19   11   12 1   
    20   11   13 1   
    21   11   26 1   
    22   12   27 1   
    23   12   28 1   
    24   13   14 1   
    25   13   29 1   
    26   13   30 1   
    27   14   15 1   
    28   14   16 1   
    29   14   31 1   
    30   15   32 1   
    31   16   17 1   
    32   16   33 1   
    33   16   34 1   
    34   17   35 1   
    35   17   36 1   
@<TRIPOS>SUBSTRUCTURE
     1 NEG         1 TEMP              0 ****  ****    0 ROOT
