@<TRIPOS>MOLECULE
NEG
   40    39     1     0     0
SMALL
bcc


@<TRIPOS>ATOM
      1 O1          2.5140   -0.8400    1.3370 o         1 NEG     -0.598000
      2 C8          1.7780   -0.4820    0.4080 c         1 NEG      0.650100
      3 O2          0.5000   -0.1500    0.6250 oh        1 NEG     -0.521100
      4 C7          2.1540   -0.3870   -1.0550 c3        1 NEG      0.017800
      5 N3          3.6470   -0.2670   -1.2970 n4        1 NEG     -0.465400
      6 C9          3.8830   -0.2850   -2.7980 c3        1 NEG      0.108100
      7 N2          4.4490   -1.2180   -0.6370 n         1 NEG     -0.427300
      8 C6          5.0790   -0.8900    0.5990 c         1 NEG      0.681100
      9 O4          5.1980    0.2960    0.9470 o         1 NEG     -0.570100
     10 C5          5.7080   -2.0350    1.3670 c3        1 NEG     -0.175400
     11 C4          6.0620   -1.6550    2.8170 c3        1 NEG      0.146500
     12 N4          7.0440   -0.5160    2.8800 n4        1 NEG     -0.854600
     13 C3          6.5840   -2.8990    3.5540 c3        1 NEG     -0.150400
     14 C2          6.2440   -2.9250    5.0500 c3        1 NEG      0.126100
     15 O3          4.8510   -3.1080    5.2270 oh        1 NEG     -0.599800
     16 C1          6.9290   -4.1690    5.6740 c3        1 NEG      0.094800
     17 N1          6.3930   -4.5410    7.0110 n4        1 NEG     -0.832600
     18 H71         1.7560   -1.3040   -1.5880 hx        1 NEG      0.169200
     19 H72         1.6630    0.5280   -1.5130 hx        1 NEG      0.169200
     20 H91         3.5490   -1.2650   -3.2310 hx        1 NEG      0.129700
     21 H92         4.9770   -0.1280   -3.0090 hx        1 NEG      0.129700
     22 H93         3.2830    0.5610   -3.2350 hx        1 NEG      0.129700
     23 HN2         4.0770   -2.1540   -0.7210 hn        1 NEG      0.361500
     24 H51         4.9810   -2.8960    1.4250 hc        1 NEG      0.134700
     25 H52         6.6170   -2.3930    0.8070 hc        1 NEG      0.134700
     26 H4          5.1150   -1.2830    3.3230 hx        1 NEG      0.132700
     27 HN41        6.6190    0.3320    2.4620 hn        1 NEG      0.479467
     28 HN42        7.9000   -0.7440    2.3620 hn        1 NEG      0.479467
     29 H31         7.6930   -3.0160    3.4220 hc        1 NEG      0.110200
     30 H32         6.1000   -3.8030    3.0840 hc        1 NEG      0.110200
     31 H2          6.6030   -1.9900    5.5620 h1        1 NEG      0.062700
     32 HO3         4.4310   -2.2470    5.3630 ho        1 NEG      0.450000
     33 H11         8.0360   -3.9740    5.7730 hx        1 NEG      0.130200
     34 H12         6.7700   -5.0570    4.9920 hx        1 NEG      0.130200
     35 HN11        5.3640   -4.6080    6.9650 hn        1 NEG      0.482800
     36 HN12        6.7760   -5.4530    7.2980 hn        1 NEG      0.482800
     37 H311        3.9480    0.6710   -0.9450 hn        1 NEG      0.492800
     38 H22         0.2630   -0.2530    1.5720 ho        1 NEG      0.503000
     39 H43         7.2910   -0.3160    3.8540 hn        1 NEG      0.479467
     40 H13         6.6440   -3.8410    7.7190 hn        1 NEG      0.482800
@<TRIPOS>BOND
     1    1    2 2   
     2    2    3 1   
     3    2    4 1   
     4    3   38 1   
     5    4    5 1   
     6    4   18 1   
     7    4   19 1   
     8    5    6 1   
     9    5    7 1   
    10    5   37 1   
    11    6   20 1   
    12    6   21 1   
    13    6   22 1   
    14    7    8 1   
    15    7   23 1   
    16    8    9 2   
    17    8   10 1   
    18   10   11 1   
    19   10   24 1   
    20   10   25 1   
    21   11   12 1   
    22   11   13 1   
    23   11   26 1   
    24   12   27 1   
    25   12   28 1   
    26   12   39 1   
    27   13   14 1   
    28   13   29 1   
    29   13   30 1   
    30   14   15 1   
    31   14   16 1   
    32   14   31 1   
    33   15   32 1   
    34   16   17 1   
    35   16   33 1   
    36   16   34 1   
    37   17   35 1   
    38   17   36 1   
    39   17   40 1   
@<TRIPOS>SUBSTRUCTURE
     1 NEG         1 TEMP              0 ****  ****    0 ROOT
