@<TRIPOS>MOLECULE
NEG
   40    39     1     0     0
SMALL
bcc


@<TRIPOS>ATOM
      1 O1          3.0750   -0.8220    1.6050 o         1 NEG     -0.567000
      2 C8          2.1300   -0.5240    0.8600 c         1 NEG      0.661100
      3 O2          0.9600   -0.3240    1.4810 oh        1 NEG     -0.489100
      4 C7          2.2170   -0.4180   -0.6520 c3        1 NEG     -0.032200
      5 N3          3.6250   -0.3010   -1.2060 nx        1 NEG     -0.458400
      6 C9          3.5510   -0.3930   -2.7210 c3        1 NEG      0.106100
      7 N2          4.5690   -1.2000   -0.6780 ns        1 NEG     -0.426300
      8 C6          5.3250   -0.8280    0.4760 c         1 NEG      0.683100
      9 O4          5.4490    0.3720    0.7720 o         1 NEG     -0.565100
     10 C5          6.0500   -1.9260    1.2270 c3        1 NEG     -0.169400
     11 C4          6.1450   -1.6020    2.7320 c3        1 NEG      0.142500
     12 N4          6.9890   -0.3820    2.9870 nz        1 NEG     -0.853600
     13 C3          6.6710   -2.8270    3.4940 c3        1 NEG     -0.152400
     14 C2          6.0860   -2.9740    4.9040 c3        1 NEG      0.127100
     15 O3          4.7290   -3.3700    4.8360 oh        1 NEG     -0.601800
     16 C1          6.8320   -4.1330    5.6170 c3        1 NEG      0.097800
     17 N1          6.1430   -4.6250    6.8400 nz        1 NEG     -0.831600
     18 H71         1.7230   -1.3330   -1.1000 hx        1 NEG      0.156200
     19 H72         1.6560    0.5010   -1.0040 hx        1 NEG      0.156200
     20 H91         3.1650   -1.4010   -3.0300 hx        1 NEG      0.131700
     21 H92         2.8540    0.4190   -3.0680 hx        1 NEG      0.131700
     22 H93         4.5770   -0.2290   -3.1560 hx        1 NEG      0.131700
     23 HN2         4.2570   -2.1590   -0.7300 hn        1 NEG      0.359500
     24 H51         5.5070   -2.9080    1.1310 hc        1 NEG      0.132700
     25 H52         7.0680   -2.0590    0.7630 hc        1 NEG      0.132700
     26 H4          5.0970   -1.3450    3.0930 hx        1 NEG      0.137700
     27 HN41        7.9410   -0.5180    2.6290 hn        1 NEG      0.479467
     28 HN42        6.5720    0.4380    2.5080 hn        1 NEG      0.479467
     29 H31         7.7930   -2.8200    3.5540 hc        1 NEG      0.109700
     30 H32         6.3820   -3.7490    2.9130 hc        1 NEG      0.109700
     31 H2          6.2030   -2.0210    5.4910 h1        1 NEG      0.061700
     32 HO3         4.1680   -2.5820    4.8050 ho        1 NEG      0.452000
     33 H11         7.8680   -3.7890    5.9020 hx        1 NEG      0.130200
     34 H12         6.9160   -5.0080    4.9050 hx        1 NEG      0.130200
     35 HN11        6.6050   -5.4820    7.1780 hn        1 NEG      0.483133
     36 HN12        5.1570   -4.8380    6.6200 hn        1 NEG      0.483133
     37 H311        3.9750    0.6580   -0.9690 hn        1 NEG      0.496800
     38 H22         0.2390   -0.0930    0.8660 ho        1 NEG      0.482000
     39 H43         7.0360   -0.1900    3.9920 hn        1 NEG      0.479467
     40 H13         6.1670   -3.9210    7.5860 hn        1 NEG      0.483133
@<TRIPOS>BOND
     1    1    2 2   
     2    2    3 1   
     3    2    4 1   
     4    3   38 1   
     5    4    5 1   
     6    4   18 1   
     7    4   19 1   
     8    5    6 1   
     9    5    7 1   
    10    5   37 1   
    11    6   20 1   
    12    6   21 1   
    13    6   22 1   
    14    7    8 1   
    15    7   23 1   
    16    8    9 2   
    17    8   10 1   
    18   10   11 1   
    19   10   24 1   
    20   10   25 1   
    21   11   12 1   
    22   11   13 1   
    23   11   26 1   
    24   12   27 1   
    25   12   28 1   
    26   12   39 1   
    27   13   14 1   
    28   13   29 1   
    29   13   30 1   
    30   14   15 1   
    31   14   16 1   
    32   14   31 1   
    33   15   32 1   
    34   16   17 1   
    35   16   33 1   
    36   16   34 1   
    37   17   35 1   
    38   17   36 1   
    39   17   40 1   
@<TRIPOS>SUBSTRUCTURE
     1 NEG         1 TEMP              0 ****  ****    0 ROOT
