@<TRIPOS>MOLECULE
NEG
   36    35     1     0     0
SMALL
bcc


@<TRIPOS>ATOM
      1 O1         -1.2290    0.3080    5.6340 o         1 NEG     -0.827800
      2 C8         -0.2020   -0.3650    5.8750 c         1 NEG      0.932600
      3 O2          0.1620   -0.5650    7.0830 o         1 NEG     -0.827800
      4 C7          0.5810   -1.0350    4.7040 c3        1 NEG      0.002800
      5 N3          0.9010   -0.0350    3.6960 n3        1 NEG     -0.461600
      6 C9          2.1890    0.5070    3.9600 c3        1 NEG      0.114100
      7 N2          0.8960   -0.6500    2.3900 n         1 NEG     -0.398300
      8 C6          0.1600   -0.0180    1.2820 c         1 NEG      0.633100
      9 O4         -0.2500    1.1130    1.3980 o         1 NEG     -0.618100
     10 C5         -0.1090   -0.8090   -0.0250 c3        1 NEG     -0.207400
     11 C4         -0.5730    0.1450   -1.0970 c3        1 NEG      0.178500
     12 N4         -1.9660    0.3580   -0.9660 n3        1 NEG     -0.914800
     13 C3         -0.2750   -0.4470   -2.4770 c3        1 NEG     -0.077400
     14 C2         -0.4660    0.6240   -3.5350 c3        1 NEG      0.157100
     15 O3          0.6900    1.4220   -3.6090 oh        1 NEG     -0.617800
     16 C1         -0.7150   -0.0290   -4.8770 c3        1 NEG      0.115800
     17 N1         -0.8960    0.9730   -5.8640 n3        1 NEG     -0.923800
     18 H71         0.0350   -1.7320    4.3070 h1        1 NEG      0.022200
     19 H72         1.4170   -1.4300    5.0520 h1        1 NEG      0.022200
     20 H91         2.1850    0.9490    4.8350 h1        1 NEG      0.054367
     21 H92         2.4160    1.1560    3.2680 h1        1 NEG      0.054367
     22 H93         2.8560   -0.2180    3.9620 h1        1 NEG      0.054367
     23 HN2         1.3820   -1.4170    2.2410 hn        1 NEG      0.278500
     24 H51         0.7100   -1.2490   -0.3130 hc        1 NEG      0.061700
     25 H52        -0.8010   -1.4800    0.1370 hc        1 NEG      0.061700
     26 H4         -0.1010    0.9990   -0.9990 h1        1 NEG      0.072700
     27 HN41       -2.1160    1.1800   -0.5860 hn        1 NEG      0.358800
     28 HN42       -2.3260   -0.2930   -0.4370 hn        1 NEG      0.358800
     29 H31        -0.8840   -1.1900   -2.6510 hc        1 NEG      0.052700
     30 H32         0.6460   -0.7680   -2.5020 hc        1 NEG      0.052700
     31 H2         -1.2330    1.1830   -3.2960 h1        1 NEG      0.047700
     32 HO3         0.4770    2.2180   -3.9170 ho        1 NEG      0.409000
     33 H11         0.0570   -0.5890   -5.1170 h1        1 NEG      0.042700
     34 H12        -1.5200   -0.5870   -4.8250 h1        1 NEG      0.042700
     35 HN11       -0.3330    0.8060   -6.5790 hn        1 NEG      0.346800
     36 HN12       -1.7650    0.9640   -6.1520 hn        1 NEG      0.346800
@<TRIPOS>BOND
     1    1    2 1   
     2    2    3 1   
     3    2    4 1   
     4    4    5 1   
     5    4   18 1   
     6    4   19 1   
     7    5    6 1   
     8    5    7 1   
     9    6   20 1   
    10    6   21 1   
    11    6   22 1   
    12    7    8 1   
    13    7   23 1   
    14    8    9 2   
    15    8   10 1   
    16   10   11 1   
    17   10   24 1   
    18   10   25 1   
    19   11   12 1   
    20   11   13 1   
    21   11   26 1   
    22   12   27 1   
    23   12   28 1   
    24   13   14 1   
    25   13   29 1   
    26   13   30 1   
    27   14   15 1   
    28   14   16 1   
    29   14   31 1   
    30   15   32 1   
    31   16   17 1   
    32   16   33 1   
    33   16   34 1   
    34   17   35 1   
    35   17   36 1   
@<TRIPOS>SUBSTRUCTURE
     1 NEG         1 TEMP              0 ****  ****    0 ROOT
