@<TRIPOS>MOLECULE
NEH
   10     9     1     0     0
SMALL
bcc


@<TRIPOS>ATOM
      1 N           2.4090   -1.3750    0.7080 n3        1 NEH     -0.905800
      2 CA          1.2880   -0.9670    1.5160 c3        1 NEH      0.148800
      3 CB          0.3800    0.1080    0.9350 c3        1 NEH     -0.137100
      4 H           3.0180   -0.6010    0.5260 hn        1 NEH      0.343800
      5 HA2         0.6680   -1.8850    1.7270 h1        1 NEH      0.050700
      6 HA3         1.6940   -0.6000    2.5020 h1        1 NEH      0.050700
      7 HB1         0.9460    1.0510    0.7450 hc        1 NEH      0.036033
      8 HB2        -0.0760   -0.2290   -0.0270 hc        1 NEH      0.036033
      9 HB3        -0.4430    0.3310    1.6550 hc        1 NEH      0.036033
     10 HN1         2.1000   -1.7500   -0.1670 hn        1 NEH      0.343800
@<TRIPOS>BOND
     1    1    2 1   
     2    1    4 1   
     3    1   10 1   
     4    2    3 1   
     5    2    5 1   
     6    2    6 1   
     7    3    7 1   
     8    3    8 1   
     9    3    9 1   
@<TRIPOS>SUBSTRUCTURE
     1 NEH         1 TEMP              0 ****  ****    0 ROOT
