@<TRIPOS>MOLECULE
NEH
   11    10     1     0     0
SMALL
bcc


@<TRIPOS>ATOM
      1 N          -0.0440    0.0000   -0.0300 n4        1 NEH     -0.842600
      2 CA          1.4520    0.0010    0.0100 c3        1 NEH      0.106800
      3 CB          1.9960   -0.0010    1.4210 c3        1 NEH     -0.142100
      4 H          -0.4080   -0.8330    0.4460 hn        1 NEH      0.462133
      5 HA2         1.8040    0.9190   -0.5460 hx        1 NEH      0.114700
      6 HA3         1.8040   -0.9160   -0.5470 hx        1 NEH      0.114700
      7 HB1         3.1160   -0.0010    1.3580 hc        1 NEH      0.086700
      8 HB2         1.6830   -0.9110    1.9880 hc        1 NEH      0.086700
      9 HB3         1.6830    0.9090    1.9890 hc        1 NEH      0.086700
     10 HN1        -0.3710    0.0020   -1.0010 hn        1 NEH      0.462133
     11 HN3        -0.4080    0.8310    0.4480 hn        1 NEH      0.462133
@<TRIPOS>BOND
     1    1    2 1   
     2    1    4 1   
     3    1   10 1   
     4    1   11 1   
     5    2    3 1   
     6    2    5 1   
     7    2    6 1   
     8    3    7 1   
     9    3    8 1   
    10    3    9 1   
@<TRIPOS>SUBSTRUCTURE
     1 NEH         1 TEMP              0 ****  ****    0 ROOT
