@<TRIPOS>MOLECULE
NEH
   10     9     1     0     0
SMALL
bcc


@<TRIPOS>ATOM
      1 N          -1.2370   -0.0000   -0.4850 n3        1 NEH     -0.932800
      2 CA          0.1890   -0.0000   -0.4850 c3        1 NEH      0.168800
      3 CB          0.6940   -0.0000    0.9420 c3        1 NEH     -0.091100
      4 H          -1.5410   -0.7450   -0.9140 hn        1 NEH      0.352800
      5 HA2         0.5150    0.7970   -0.9450 h1        1 NEH      0.020700
      6 HA3         0.5150   -0.7970   -0.9450 h1        1 NEH      0.020700
      7 HB1         0.3680   -0.7970    1.4020 hc        1 NEH      0.036367
      8 HB2         1.6700   -0.0000    0.9420 hc        1 NEH      0.036367
      9 HB3         0.3680    0.7970    1.4020 hc        1 NEH      0.036367
     10 HN1        -1.5410    0.7450   -0.9140 hn        1 NEH      0.352800
@<TRIPOS>BOND
     1    1    2 1   
     2    1    4 1   
     3    1   10 1   
     4    2    3 1   
     5    2    5 1   
     6    2    6 1   
     7    3    7 1   
     8    3    8 1   
     9    3    9 1   
@<TRIPOS>SUBSTRUCTURE
     1 NEH         1 TEMP              0 ****  ****    0 ROOT
