@<TRIPOS>MOLECULE
NEH
   11    10     1     0     0
SMALL
bcc


@<TRIPOS>ATOM
      1 N          -0.0440    0.0000   -0.0300 n4        1 NEH     -0.842600
      2 CA          1.4520    0.0000    0.0100 c3        1 NEH      0.106800
      3 CB          1.9960    0.0000    1.4210 c3        1 NEH     -0.142100
      4 H          -0.4080   -0.8320    0.4460 hn        1 NEH      0.462133
      5 HA2         1.8050   -0.9180   -0.5460 hx        1 NEH      0.114700
      6 HA3         1.8050    0.9180   -0.5460 hx        1 NEH      0.114700
      7 HB1         1.6820   -0.9100    1.9890 hc        1 NEH      0.086700
      8 HB2         1.6820    0.9110    1.9890 hc        1 NEH      0.086700
      9 HB3         3.1150    0.0000    1.3590 hc        1 NEH      0.086700
     10 HN1        -0.3700   -0.0000   -1.0020 hn        1 NEH      0.462133
     11 HN3        -0.4080    0.8320    0.4460 hn        1 NEH      0.462133
@<TRIPOS>BOND
     1    1    2 1   
     2    1    4 1   
     3    1   10 1   
     4    1   11 1   
     5    2    3 1   
     6    2    5 1   
     7    2    6 1   
     8    3    7 1   
     9    3    8 1   
    10    3    9 1   
@<TRIPOS>SUBSTRUCTURE
     1 NEH         1 TEMP              0 ****  ****    0 ROOT
