@<TRIPOS>MOLECULE
NEI
   38    36     1     0     0
SMALL
bcc


@<TRIPOS>ATOM
      1 C52        -1.8190   -3.7510   -3.4910 c3        1 NEI     -0.113100
      2 C51        -2.2030   -2.2980   -3.2520 c3        1 NEI      0.085000
      3 N5'        -2.4480   -2.0900   -1.8430 n         1 NEI     -0.549900
      4 C5'        -2.0930   -0.8420   -1.2300 c         1 NEI      0.643100
      5 O5'        -2.2500    0.1960   -1.8370 o         1 NEI     -0.631100
      6 C4'        -1.6450   -0.8150    0.1300 c3        1 NEI      0.053100
      7 O4'        -0.3430   -0.6610    0.1580 os        1 NEI     -0.399600
      8 C3'        -2.1970    0.5780    0.8720 c3        1 NEI      0.136100
      9 O3'        -3.5440    0.3540    1.4170 oh        1 NEI     -0.587800
     10 C2'        -1.4130    0.8320    1.7860 c3        1 NEI      0.077100
     11 O2'        -1.8860    0.1680    3.0860 oh        1 NEI     -0.589800
     12 C1'        -0.0570    0.2340    1.3470 c3        1 NEI      0.218800
     13 N9          0.7780    1.2010    1.0000 n3        1 NEI     -0.134400
     14 C8          0.6090    2.4740    0.5760 c1        1 NEI      0.179400
     15 N7          1.8300    3.0310    0.4320 ne        1 NEI     -0.386400
     16 C5          2.7610    2.0960    0.7690 cg        1 NEI     -0.179000
     17 C4          2.1120    0.9710    1.1190 c1        1 NEI      0.340500
     18 N3          2.8160   -0.1220    1.5210 n1        1 NEI     -0.512800
     19 C2          4.1800   -0.0770    1.5710 c1        1 NEI      0.521400
     20 I2          5.5380   -1.6410    1.9830 i         1 NEI     -0.068600
     21 N1          4.8380    1.0610    1.2180 n1        1 NEI     -0.569800
     22 C6          4.1480    2.1400    0.8210 c1        1 NEI      0.298800
     23 N6          5.1460    3.0670    0.4000 n3        1 NEI     -0.819400
     24 H521       -2.5770   -4.3310   -3.2640 hc        1 NEI      0.044367
     25 H522       -1.0520   -3.9830   -2.9290 hc        1 NEI      0.044367
     26 H523       -1.5830   -3.8760   -4.4370 hc        1 NEI      0.044367
     27 H511       -1.4700   -1.7130   -3.5460 h1        1 NEI      0.060200
     28 H512       -3.0160   -2.0850   -3.7610 h1        1 NEI      0.060200
     29 HN5'       -2.8780   -2.7330   -1.3540 hn        1 NEI      0.321500
     30 H4'        -2.0010   -1.6660    0.4600 h1        1 NEI      0.117700
     31 H3'        -2.2130    1.3190    0.2270 h1        1 NEI      0.095700
     32 HO3'       -4.0240    1.1010    1.3390 ho        1 NEI      0.433000
     33 H2'        -1.3350    1.7980    1.9070 h1        1 NEI      0.074700
     34 HO2'       -1.7170    0.7080    3.7750 ho        1 NEI      0.426000
     35 H1'         0.3280   -0.2950    2.0780 h2        1 NEI      0.132700
     36 H8         -0.2510    2.9260    0.4380 DU        1 NEI      0.228000
     37 HN61        6.0300    2.8420    0.4540 hn        1 NEI      0.452800
     38 HN62        4.9000    3.8810    0.0610 hn        1 NEI      0.452800
@<TRIPOS>BOND
     1    1    2 1   
     2    1   24 1   
     3    1   25 1   
     4    1   26 1   
     5    2    3 1   
     6    2   27 1   
     7    2   28 1   
     8    3    4 1   
     9    3   29 1   
    10    4    5 2   
    11    4    6 1   
    12    6    7 1   
    13    6    8 1   
    14    6   30 1   
    15    7   12 1   
    16    8    9 1   
    17    8   10 1   
    18    8   31 1   
    19    9   32 1   
    20   10   11 1   
    21   10   12 1   
    22   10   33 1   
    23   11   34 1   
    24   12   13 1   
    25   12   35 1   
    26   13   14 2   
    27   13   17 1   
    28   14   15 2   
    29   15   16 1   
    30   16   22 3   
    31   17   18 3   
    32   19   20 1   
    33   19   21 3   
    34   22   23 1   
    35   23   37 1   
    36   23   38 1   
@<TRIPOS>SUBSTRUCTURE
     1 NEI         1 TEMP              0 ****  ****    0 ROOT
