@<TRIPOS>MOLECULE
NEI
   39    41     1     0     0
SMALL
bcc


@<TRIPOS>ATOM
      1 C52         1.0160    1.4560   -0.1170 c3        1 NEI     -0.137100
      2 C51         2.3700    1.1120    0.4640 c3        1 NEI      0.109800
      3 N5'         2.3000    0.0010    1.4640 n4        1 NEI     -0.689800
      4 C5'         3.6750   -0.4100    1.9640 c         1 NEI      0.528100
      5 O5'         4.5550   -0.5540    1.1370 o         1 NEI     -0.381100
      6 C4'         3.7240   -0.6030    3.4680 c3        1 NEI      0.041100
      7 O4'         5.0240   -1.0060    3.8560 os        1 NEI     -0.370600
      8 C3'         3.3600    0.7130    4.2060 c3        1 NEI      0.117100
      9 O3'         2.0000    0.6990    4.5390 oh        1 NEI     -0.606800
     10 C2'         4.3680    0.7640    5.3720 c3        1 NEI      0.096100
     11 O2'         3.7760    0.1080    6.4700 oh        1 NEI     -0.599800
     12 C1'         5.5700   -0.0960    4.8470 c3        1 NEI      0.238800
     13 N9          6.6220    0.6850    4.2540 na        1 NEI     -0.324000
     14 C8          7.3880    0.3510    3.0950 cc        1 NEI      0.412700
     15 N7          8.5030    1.0730    2.9710 nd        1 NEI     -0.511100
     16 C5          8.5430    1.9000    4.1080 ca        1 NEI     -0.227200
     17 C4          7.3810    1.6520    4.9460 ca        1 NEI      0.460800
     18 N3          7.1400    2.2870    6.1280 nb        1 NEI     -0.753000
     19 C2          8.1110    3.1860    6.4440 ca        1 NEI      0.798800
     20 I2          7.8280    4.1760    8.2090 i         1 NEI     -0.103800
     21 N1          9.2340    3.5200    5.7700 nb        1 NEI     -0.753000
     22 C6          9.4860    2.8820    4.5680 ca        1 NEI      0.777200
     23 N6         10.5900    3.1870    3.8330 nh        1 NEI     -0.934500
     24 H521        0.2990    1.7960    0.6700 hc        1 NEI      0.082033
     25 H522        1.1570    2.2960   -0.8460 hc        1 NEI      0.082033
     26 H523        0.5690    0.5920   -0.6680 hc        1 NEI      0.082033
     27 H511        2.8110    2.0080    0.9880 hx        1 NEI      0.111700
     28 H512        3.0790    0.7890   -0.3550 hx        1 NEI      0.111700
     29 HN5'        1.8510   -0.8110    1.0260 hn        1 NEI      0.466800
     30 H4'         3.0250   -1.4460    3.7480 h1        1 NEI      0.128700
     31 H3'         3.5090    1.6120    3.5450 h1        1 NEI      0.089700
     32 HO3'        1.8960    0.3590    5.4430 ho        1 NEI      0.467000
     33 H2'         4.6520    1.8190    5.6210 h1        1 NEI      0.127700
     34 HO2'        4.1790    0.4620    7.2760 ho        1 NEI      0.456000
     35 H1'         5.9710   -0.7770    5.6590 h2        1 NEI      0.129700
     36 H8          7.0340   -0.4200    2.3970 h5        1 NEI      0.087800
     37 HN61       10.7740    2.6780    3.0020 hn        1 NEI      0.461800
     38 HN62       11.2570    3.8430    4.1640 hn        1 NEI      0.461800
     39 H5'2        1.7220    0.2970    2.2650 hn        1 NEI      0.466800
@<TRIPOS>BOND
     1    1    2 1   
     2    1   24 1   
     3    1   25 1   
     4    1   26 1   
     5    2    3 1   
     6    2   27 1   
     7    2   28 1   
     8    3    4 1   
     9    3   29 1   
    10    3   39 1   
    11    4    5 2   
    12    4    6 1   
    13    6    7 1   
    14    6    8 1   
    15    6   30 1   
    16    7   12 1   
    17    8    9 1   
    18    8   10 1   
    19    8   31 1   
    20    9   32 1   
    21   10   11 1   
    22   10   12 1   
    23   10   33 1   
    24   11   34 1   
    25   12   13 1   
    26   12   35 1   
    27   13   14 1   
    28   13   17 1   
    29   14   15 2   
    30   14   36 1   
    31   15   16 1   
    32   16   17 ar  
    33   16   22 ar  
    34   17   18 ar  
    35   18   19 ar  
    36   19   20 1   
    37   19   21 ar  
    38   21   22 ar  
    39   22   23 1   
    40   23   37 1   
    41   23   38 1   
@<TRIPOS>SUBSTRUCTURE
     1 NEI         1 TEMP              0 ****  ****    0 ROOT
