@<TRIPOS>MOLECULE
NEI
   40    42     1     0     0
SMALL
bcc


@<TRIPOS>ATOM
      1 C52         0.3430    0.7170   -0.2260 c3        1 NEI     -0.141100
      2 C51         1.8110    0.7060    0.1360 c3        1 NEI      0.113800
      3 N5'         2.0700    0.0020    1.4350 n4        1 NEI     -0.681800
      4 C5'         3.5360   -0.0990    1.7800 c         1 NEI      0.534100
      5 O5'         4.3560   -0.0440    0.8820 o         1 NEI     -0.378100
      6 C4'         3.7800   -0.2580    3.2660 c3        1 NEI      0.030100
      7 O4'         5.1580   -0.5410    3.4920 os        1 NEI     -0.379600
      8 C3'         3.4180    1.0440    4.0270 c3        1 NEI      0.119100
      9 O3'         2.0710    1.0050    4.3990 oh        1 NEI     -0.596800
     10 C2'         4.4590    1.0920    5.1650 c3        1 NEI      0.098100
     11 O2'         3.8860    0.4590    6.2840 oh        1 NEI     -0.587800
     12 C1'         5.6340    0.1900    4.6460 c3        1 NEI      0.229800
     13 N9          6.8310    0.9140    4.2670 na        1 NEI     -0.292000
     14 C8          7.6300    0.7100    3.1130 cc        1 NEI      0.520700
     15 N7          8.8230    1.3260    3.1610 nd        1 NEI     -0.559100
     16 C5          8.8620    1.9510    4.4130 ca        1 NEI     -0.123200
     17 C4          7.6050    1.6940    5.1470 ca        1 NEI      0.450800
     18 N3          7.3570    2.1710    6.3900 nb        1 NEI     -0.628000
     19 C2          8.3730    2.9090    6.9160 ca        1 NEI      0.757800
     20 I2          8.0770    3.6540    8.7890 i         1 NEI     -0.004800
     21 N1          9.5760    3.2100    6.3450 nb        1 NEI     -0.641000
     22 C6          9.8140    2.7290    5.0990 ca        1 NEI      0.540200
     23 N6         11.1060    3.0160    4.4510 n4        1 NEI     -0.818300
     24 H521       -0.2740    1.2500    0.5390 hc        1 NEI      0.088033
     25 H522       -0.0610   -0.3160   -0.3660 hc        1 NEI      0.088033
     26 H523        0.2350    1.2640   -1.2000 hc        1 NEI      0.088033
     27 H511        2.2020    1.7580    0.2410 hx        1 NEI      0.113700
     28 H512        2.4120    0.1790   -0.6630 hx        1 NEI      0.113700
     29 HN5'        1.6830   -0.9500    1.3770 hn        1 NEI      0.474300
     30 H4'         3.1930   -1.1400    3.6600 h1        1 NEI      0.131700
     31 H3'         3.5320    1.9500    3.3660 h1        1 NEI      0.099700
     32 HO3'        1.9910    0.6570    5.3050 ho        1 NEI      0.471000
     33 H2'         4.7740    2.1440    5.3850 h1        1 NEI      0.112700
     34 HO2'        4.2080    0.9010    7.0850 ho        1 NEI      0.461000
     35 H1'         5.9010   -0.5980    5.4190 h2        1 NEI      0.138700
     36 H8          7.2630    0.0960    2.2700 h5        1 NEI      0.121800
     37 HN61       11.6680    2.1530    4.4400 hn        1 NEI      0.486800
     38 HN62       10.9320    3.3190    3.4830 hn        1 NEI      0.486800
     39 H5'2        1.5800    0.4940    2.2000 hn        1 NEI      0.474300
     40 H63        11.6230    3.7510    4.9580 hn        1 NEI      0.486800
@<TRIPOS>BOND
     1    1    2 1   
     2    1   24 1   
     3    1   25 1   
     4    1   26 1   
     5    2    3 1   
     6    2   27 1   
     7    2   28 1   
     8    3    4 1   
     9    3   29 1   
    10    3   39 1   
    11    4    5 2   
    12    4    6 1   
    13    6    7 1   
    14    6    8 1   
    15    6   30 1   
    16    7   12 1   
    17    8    9 1   
    18    8   10 1   
    19    8   31 1   
    20    9   32 1   
    21   10   11 1   
    22   10   12 1   
    23   10   33 1   
    24   11   34 1   
    25   12   13 1   
    26   12   35 1   
    27   13   14 1   
    28   13   17 1   
    29   14   15 2   
    30   14   36 1   
    31   15   16 1   
    32   16   17 ar  
    33   16   22 ar  
    34   17   18 ar  
    35   18   19 ar  
    36   19   20 1   
    37   19   21 ar  
    38   21   22 ar  
    39   22   23 1   
    40   23   37 1   
    41   23   38 1   
    42   23   40 1   
@<TRIPOS>SUBSTRUCTURE
     1 NEI         1 TEMP              0 ****  ****    0 ROOT
