@<TRIPOS>MOLECULE
NEI
   39    41     1     0     0
SMALL
bcc


@<TRIPOS>ATOM
      1 C52         1.0070    1.4040   -0.1090 c3        1 NEI     -0.137100
      2 C51         2.3600    1.0620    0.4760 c3        1 NEI      0.109800
      3 N5'         2.2850   -0.0250    1.5000 ny        1 NEI     -0.689800
      4 C5'         3.6580   -0.4360    2.0050 c         1 NEI      0.528100
      5 O5'         4.5340   -0.6070    1.1790 o         1 NEI     -0.381100
      6 C4'         3.7110   -0.5940    3.5130 c3        1 NEI      0.041100
      7 O4'         5.0090   -0.9980    3.9050 os        1 NEI     -0.370600
      8 C3'         3.3600    0.7420    4.2210 c3        1 NEI      0.117100
      9 O3'         2.0010    0.7460    4.5590 oh        1 NEI     -0.606800
     10 C2'         4.3730    0.8120    5.3810 c3        1 NEI      0.096100
     11 O2'         3.7800    0.1870    6.4970 oh        1 NEI     -0.599800
     12 C1'         5.5670   -0.0690    4.8730 c3        1 NEI      0.238800
     13 N9          6.6210    0.6900    4.2580 na        1 NEI     -0.324000
     14 C8          7.3800    0.3240    3.1040 cc        1 NEI      0.412700
     15 N7          8.5010    1.0340    2.9590 nd        1 NEI     -0.511100
     16 C5          8.5510    1.8880    4.0750 ca        1 NEI     -0.227200
     17 C4          7.3910    1.6690    4.9240 ca        1 NEI      0.460800
     18 N3          7.1580    2.3340    6.0900 nb        1 NEI     -0.753000
     19 C2          8.1370    3.2320    6.3810 ca        1 NEI      0.798800
     20 I2          7.8680    4.2660    8.1230 i         1 NEI     -0.103800
     21 N1          9.2600    3.5420    5.6960 nb        1 NEI     -0.753000
     22 C6          9.5020    2.8740    4.5080 ca        1 NEI      0.777200
     23 N6         10.6060    3.1520    3.7620 nv        1 NEI     -0.934500
     24 H521        1.1520    2.2270   -0.8550 hc        1 NEI      0.082033
     25 H522        0.5520    0.5320   -0.6400 hc        1 NEI      0.082033
     26 H523        0.2950    1.7660    0.6730 hc        1 NEI      0.082033
     27 H511        2.8090    1.9660    0.9790 hx        1 NEI      0.111700
     28 H512        3.0640    0.7170   -0.3370 hx        1 NEI      0.111700
     29 HN5'        1.7110    0.2920    2.2960 hn        1 NEI      0.466800
     30 H4'         3.0070   -1.4250    3.8150 h1        1 NEI      0.128700
     31 H3'         3.5130    1.6240    3.5380 h1        1 NEI      0.089700
     32 HO3'        1.8980    0.4270    5.4720 ho        1 NEI      0.467000
     33 H2'         4.6660    1.8710    5.6040 h1        1 NEI      0.127700
     34 HO2'        4.1890    0.5570    7.2930 ho        1 NEI      0.456000
     35 H1'         5.9650   -0.7330    5.6990 h2        1 NEI      0.129700
     36 H8          7.0190   -0.4620    2.4270 h5        1 NEI      0.087800
     37 HN61       10.7830    2.6220    2.9430 hn        1 NEI      0.461800
     38 HN62       11.2790    3.8110    4.0750 hn        1 NEI      0.461800
     39 H5'2        1.8280   -0.8440    1.0820 hn        1 NEI      0.466800
@<TRIPOS>BOND
     1    1    2 1   
     2    1   24 1   
     3    1   25 1   
     4    1   26 1   
     5    2    3 1   
     6    2   27 1   
     7    2   28 1   
     8    3    4 1   
     9    3   29 1   
    10    3   39 1   
    11    4    5 2   
    12    4    6 1   
    13    6    7 1   
    14    6    8 1   
    15    6   30 1   
    16    7   12 1   
    17    8    9 1   
    18    8   10 1   
    19    8   31 1   
    20    9   32 1   
    21   10   11 1   
    22   10   12 1   
    23   10   33 1   
    24   11   34 1   
    25   12   13 1   
    26   12   35 1   
    27   13   14 1   
    28   13   17 1   
    29   14   15 2   
    30   14   36 1   
    31   15   16 1   
    32   16   17 ar  
    33   16   22 ar  
    34   17   18 ar  
    35   18   19 ar  
    36   19   20 1   
    37   19   21 ar  
    38   21   22 ar  
    39   22   23 1   
    40   23   37 1   
    41   23   38 1   
@<TRIPOS>SUBSTRUCTURE
     1 NEI         1 TEMP              0 ****  ****    0 ROOT
