@<TRIPOS>MOLECULE
NEI
   38    40     1     0     0
SMALL
bcc


@<TRIPOS>ATOM
      1 C52         6.8770   -1.3930   -1.5740 c3        1 NEI     -0.111100
      2 C51         5.8790   -1.3670   -0.4270 c3        1 NEI      0.085000
      3 N5'         5.0270   -0.2060   -0.4350 n         1 NEI     -0.544900
      4 C5'         4.6350    0.4300    0.7120 c         1 NEI      0.634100
      5 O5'         5.0360    0.0860    1.8450 o         1 NEI     -0.633100
      6 C4'         3.7100    1.6470    0.5580 c3        1 NEI      0.025100
      7 O4'         2.6740    1.3760   -0.3870 os        1 NEI     -0.402600
      8 C3'         3.0540    2.0450    1.8980 c3        1 NEI      0.085100
      9 O3'         3.3930    3.3690    2.2530 oh        1 NEI     -0.595800
     10 C2'         1.5320    1.9830    1.6420 c3        1 NEI      0.123100
     11 O2'         0.9120    3.2350    1.4550 oh        1 NEI     -0.581800
     12 C1'         1.4000    1.2390    0.2710 c3        1 NEI      0.243800
     13 N9          1.0350   -0.1470    0.4090 na        1 NEI     -0.288000
     14 C8          1.6760   -1.1450    1.1920 cc        1 NEI      0.406700
     15 N7          1.1490   -2.3670    1.0440 nd        1 NEI     -0.537100
     16 C5          0.1150   -2.2080    0.1070 ca        1 NEI     -0.226200
     17 C4          0.0360   -0.8160   -0.3190 ca        1 NEI      0.469800
     18 N3         -0.8730   -0.3520   -1.2280 nb        1 NEI     -0.704000
     19 C2         -1.6920   -1.3250   -1.6900 ca        1 NEI      0.785800
     20 I2         -3.0830   -0.7170   -3.0580 i         1 NEI     -0.131800
     21 N1         -1.7370   -2.6480   -1.3870 nb        1 NEI     -0.770000
     22 C6         -0.8230   -3.1260   -0.4720 ca        1 NEI      0.764200
     23 N6         -0.8000   -4.4500   -0.1290 nh        1 NEI     -0.956500
     24 H521        7.5720   -0.5210   -1.5260 hc        1 NEI      0.044700
     25 H522        7.4780   -2.3320   -1.4990 hc        1 NEI      0.044700
     26 H523        6.3610   -1.3810   -2.5630 hc        1 NEI      0.044700
     27 H511        5.2350   -2.2930   -0.4850 h1        1 NEI      0.059700
     28 H512        6.4330   -1.3970    0.5550 h1        1 NEI      0.059700
     29 HN5'        4.6030    0.0550   -1.2950 hn        1 NEI      0.327500
     30 H4'         4.3010    2.5040    0.1280 h1        1 NEI      0.108700
     31 H3'         3.3470    1.3280    2.7140 h1        1 NEI      0.091700
     32 HO3'        4.2680    3.3360    2.6600 ho        1 NEI      0.428000
     33 H2'         1.0140    1.4430    2.4800 h1        1 NEI      0.074700
     34 HO2'        1.3430    3.8760    2.0370 ho        1 NEI      0.437000
     35 H1'         0.6600    1.7580   -0.4110 h2        1 NEI      0.153700
     36 H8          2.5290   -0.8920    1.8400 h5        1 NEI      0.083800
     37 HN61       -0.1590   -4.7540    0.5600 hn        1 NEI      0.452300
     38 HN62       -1.4670   -5.0810   -0.4980 hn        1 NEI      0.452300
@<TRIPOS>BOND
     1    1    2 1   
     2    1   24 1   
     3    1   25 1   
     4    1   26 1   
     5    2    3 1   
     6    2   27 1   
     7    2   28 1   
     8    3    4 1   
     9    3   29 1   
    10    4    5 2   
    11    4    6 1   
    12    6    7 1   
    13    6    8 1   
    14    6   30 1   
    15    7   12 1   
    16    8    9 1   
    17    8   10 1   
    18    8   31 1   
    19    9   32 1   
    20   10   11 1   
    21   10   12 1   
    22   10   33 1   
    23   11   34 1   
    24   12   13 1   
    25   12   35 1   
    26   13   14 1   
    27   13   17 1   
    28   14   15 2   
    29   14   36 1   
    30   15   16 1   
    31   16   17 ar  
    32   16   22 ar  
    33   17   18 ar  
    34   18   19 ar  
    35   19   20 1   
    36   19   21 ar  
    37   21   22 ar  
    38   22   23 1   
    39   23   37 1   
    40   23   38 1   
@<TRIPOS>SUBSTRUCTURE
     1 NEI         1 TEMP              0 ****  ****    0 ROOT
