@<TRIPOS>MOLECULE
NEM
   22    19     1     0     0
SMALL
bcc


@<TRIPOS>ATOM
      1 N          -1.7760   -0.6290    2.2370 n3        1 NEM     -0.333000
      2 CA         -0.3560   -0.7610    2.0260 c3        1 NEM     -0.132000
      3 C           0.3530   -0.8710    3.3830 c2        1 NEM      0.310000
      4 O           0.3490    0.1390    4.1970 o         1 NEM     -0.576000
      5 CB          0.1540    0.4520    1.2790 c3        1 NEM     -0.082000
      6 CG          0.2000    0.1630   -0.2560 c2        1 NEM     -0.089000
      7 ND1         0.2830   -1.0540   -0.8510 n2        1 NEM     -0.152000
      8 CD2         0.2390    1.0860   -1.2010 c1        1 NEM     -0.149000
      9 CE1         0.3720   -0.8640   -2.1410 c1        1 NEM     -0.130000
     10 NE2         0.3460    0.4770   -2.3680 n2        1 NEM     -0.185000
     11 CM          0.4930    1.1620   -3.7310 c2        1 NEM     -0.060000
     12 OXT         0.7670   -1.9530    3.7640 o         1 NEM     -0.576000
     13 H          -1.9540   -0.5460    3.1830 hn        1 NEM      0.129000
     14 HN2        -2.2310   -1.4170    1.8880 hn        1 NEM      0.129000
     15 HA         -0.1750   -1.5730    1.4980 h1        1 NEM      0.080000
     16 HB1        -0.3960    1.1440    1.4300 hc        1 NEM      0.108000
     17 HB2         1.1170    0.6930    1.6160 hc        1 NEM      0.108000
     18 HD2         0.1980    2.0280   -1.0620 DU        1 NEM      0.184500
     19 HE1         0.4430   -1.5540   -2.8140 DU        1 NEM      0.184500
     20 HM1         0.2310    0.5230   -4.4510 ha        1 NEM      0.077667
     21 HM2        -0.0650    1.9220   -3.7630 ha        1 NEM      0.077667
     22 HM3         1.4060    1.4330   -3.8630 ha        1 NEM      0.077667
@<TRIPOS>BOND
     1    1    2 1   
     2    1   13 1   
     3    1   14 1   
     4    2    3 1   
     5    2    5 1   
     6    2   15 1   
     7    3    4 1   
     8    3   12 1   
     9    5    6 1   
    10    5   16 1   
    11    5   17 1   
    12    6    7 1   
    13    6    8 1   
    14    7    9 1   
    15    8   10 1   
    16    9   10 1   
    17   11   20 1   
    18   11   21 1   
    19   11   22 1   
@<TRIPOS>SUBSTRUCTURE
     1 NEM         1 TEMP              0 ****  ****    0 ROOT
