@<TRIPOS>MOLECULE
NEN
   18    18     1     0     0
SMALL
bcc


@<TRIPOS>ATOM
      1 O1         -2.3160    0.1630   -0.0530 o         1 NEN     -0.585500
      2 N1          0.0010    0.2410    0.2870 n         1 NEN     -0.515400
      3 C1         -0.7680   -0.2370   -1.9310 c3        1 NEN     -0.163400
      4 C2         -1.1650    0.0670   -0.4890 c         1 NEN      0.699500
      5 C3          1.1630    0.0650   -0.4940 c         1 NEN      0.699500
      6 C4          0.7590   -0.2380   -1.9340 c3        1 NEN     -0.163400
      7 C6          0.0040   -0.7360    2.5860 c3        1 NEN     -0.116100
      8 H11        -1.1910   -1.2280   -2.2300 hc        1 NEN      0.089200
      9 H12        -1.1900    0.5470   -2.6050 hc        1 NEN      0.089200
     10 H41         1.1790   -1.2290   -2.2350 hc        1 NEN      0.089200
     11 H42         1.1800    0.5460   -2.6100 hc        1 NEN      0.089200
     12 H51        -0.9130    1.1180    1.9340 h1        1 NEN      0.067200
     13 H52         0.9240    1.1150    1.9300 h1        1 NEN      0.067200
     14 H61         0.0060   -0.4080    3.6530 hc        1 NEN      0.046700
     15 H62        -0.9050   -1.3590    2.4060 hc        1 NEN      0.046700
     16 H63         0.9100   -1.3610    2.4020 hc        1 NEN      0.046700
     17 C5          0.0040    0.5030    1.7020 c3        1 NEN      0.100000
     18 O2          2.3160    0.1600   -0.0630 o         1 NEN     -0.585500
@<TRIPOS>BOND
     1    1    4 2   
     2    2    4 1   
     3    2    5 1   
     4    2   17 1   
     5    3    4 1   
     6    3    6 1   
     7    3    8 1   
     8    3    9 1   
     9    5    6 1   
    10    5   18 2   
    11    6   10 1   
    12    6   11 1   
    13    7   14 1   
    14    7   15 1   
    15    7   16 1   
    16    7   17 1   
    17   12   17 1   
    18   13   17 1   
@<TRIPOS>SUBSTRUCTURE
     1 NEN         1 TEMP              0 ****  ****    0 ROOT
