@<TRIPOS>MOLECULE
NEN
   18    15     1     0     0
SMALL
bcc


@<TRIPOS>ATOM
      1 O1         -0.8860   -0.5410   -4.0420 o         1 NEN     -0.410500
      2 N1          2.5000   -0.7020    3.9600 n3        1 NEN     -0.637600
      3 C1          1.5330    0.0780   -4.1480 c2        1 NEN     -0.507600
      4 C2          0.2680   -0.2460   -4.0940 c1        1 NEN      0.559100
      5 C3          3.2660    0.0860    0.0150 c1        1 NEN      0.559100
      6 C4          3.6330    0.3600   -1.2080 c2        1 NEN     -0.507600
      7 C6          1.3330   -1.3940    5.9960 c3        1 NEN     -0.156000
      8 H11         2.0290    0.2870   -5.1020 ha        1 NEN      0.179750
      9 H12         2.1440    0.1510   -3.2390 ha        1 NEN      0.179750
     10 H41         3.5290    1.3690   -1.6240 ha        1 NEN      0.179750
     11 H42         4.0820   -0.4030   -1.8540 ha        1 NEN      0.179750
     12 H51         3.3260   -0.3600    3.5220 hn        1 NEN      0.394300
     13 H52         1.7360   -0.8670    3.3340 hn        1 NEN      0.394300
     14 H61         0.4130   -1.6150    5.3950 hc        1 NEN      0.046033
     15 H62         1.0740   -0.6300    6.7720 hc        1 NEN      0.046033
     16 H63         1.6460   -2.3310    6.5230 hc        1 NEN      0.046033
     17 C5          2.5030   -0.8900    5.2480 c1        1 NEN     -0.133100
     18 O2          2.9210   -0.1660    1.1300 o         1 NEN     -0.410500
@<TRIPOS>BOND
     1    1    4 2   
     2    2   12 1   
     3    2   13 1   
     4    2   17 3   
     5    3    4 2   
     6    3    8 1   
     7    3    9 1   
     8    5    6 2   
     9    5   18 2   
    10    6   10 1   
    11    6   11 1   
    12    7   14 1   
    13    7   15 1   
    14    7   16 1   
    15    7   17 1   
@<TRIPOS>SUBSTRUCTURE
     1 NEN         1 TEMP              0 ****  ****    0 ROOT
