@<TRIPOS>MOLECULE
NEN
   18    18     1     0     0
SMALL
bcc


@<TRIPOS>ATOM
      1 O1         -2.2230    0.3340   -0.8450 o         1 NEN     -0.585500
      2 N1         -0.2050    0.3340    0.2610 n         1 NEN     -0.515400
      3 C1         -0.0930    0.3340   -2.0900 c3        1 NEN     -0.163400
      4 O2          1.8370    1.5000    0.6340 o         1 NEN     -0.585500
      5 C2         -1.0080    0.3340   -0.8450 c         1 NEN      0.699500
      6 C3          1.0590    0.9460   -0.1170 c         1 NEN      0.699500
      7 C4          1.3330    0.3340   -1.4950 c3        1 NEN     -0.163400
      8 C5         -0.6260    0.1000    1.5990 c3        1 NEN      0.100000
      9 C6         -0.4450   -1.3640    1.9360 c3        1 NEN     -0.116100
     10 H11        -0.2120   -0.3830   -2.7410 hc        1 NEN      0.089200
     11 H12        -0.2790    1.1240   -2.6320 hc        1 NEN      0.089200
     12 H41         1.8210   -0.5020   -1.6240 hc        1 NEN      0.089200
     13 H42         1.9160    0.9620   -1.9630 hc        1 NEN      0.089200
     14 H51        -0.0890    0.6430    2.2080 h1        1 NEN      0.066700
     15 H52        -1.5670    0.3410    1.6910 h1        1 NEN      0.066700
     16 H61        -0.7990   -1.5380    2.8290 hc        1 NEN      0.046700
     17 H62         0.5050   -1.5900    1.9120 hc        1 NEN      0.046700
     18 H63        -0.9250   -1.9080    1.2830 hc        1 NEN      0.046700
@<TRIPOS>BOND
     1    1    5 2   
     2    2    5 1   
     3    2    6 1   
     4    2    8 1   
     5    3    5 1   
     6    3    7 1   
     7    3   10 1   
     8    3   11 1   
     9    4    6 2   
    10    6    7 1   
    11    7   12 1   
    12    7   13 1   
    13    8    9 1   
    14    8   14 1   
    15    8   15 1   
    16    9   16 1   
    17    9   17 1   
    18    9   18 1   
@<TRIPOS>SUBSTRUCTURE
     1 NEN         1 TEMP              0 ****  ****    0 ROOT
