@<TRIPOS>MOLECULE
NEN
   18    15     1     0     0
SMALL
bcc


@<TRIPOS>ATOM
      1 O1          0.0790    2.0490   -2.3720 o         1 NEN     -0.392500
      2 N1          1.5900    0.5080    2.7930 n8        1 NEN     -0.651600
      3 C1          0.8590   -0.2540   -1.7930 c2        1 NEN     -0.524600
      4 C2          0.4440    0.9470   -2.1020 c1        1 NEN      0.558600
      5 C3          4.7950    0.1650    0.1990 c1        1 NEN      0.558600
      6 C4          3.7170   -0.5570    0.3620 c2        1 NEN     -0.524600
      7 C6          1.3740   -1.8410    3.4440 c3        1 NEN     -0.158000
      8 H11         0.4310   -0.8060   -0.9490 ha        1 NEN      0.180250
      9 H12         2.8260   -0.4050   -0.2630 ha        1 NEN      0.180250
     10 H41         1.6170   -0.7680   -2.3940 ha        1 NEN      0.180250
     11 H42         3.6810   -1.3730    1.0930 ha        1 NEN      0.180250
     12 H51         2.3050    0.3600    2.1050 hn        1 NEN      0.395300
     13 H52         1.3040    1.4520    2.9150 hn        1 NEN      0.395300
     14 H61         2.1600   -2.1210    2.6950 hc        1 NEN      0.046367
     15 H62         0.4370   -2.4050    3.2030 hc        1 NEN      0.046367
     16 H63         1.7200   -2.1640    4.4590 hc        1 NEN      0.046367
     17 C5          1.0250   -0.4090    3.5280 c1        1 NEN     -0.124100
     18 O2          5.7690    0.8380    0.0620 o         1 NEN     -0.392500
@<TRIPOS>BOND
     1    1    4 2   
     2    2   12 1   
     3    2   13 1   
     4    2   17 3   
     5    3    4 2   
     6    3    8 1   
     7    3   10 1   
     8    5    6 2   
     9    5   18 2   
    10    6    9 1   
    11    6   11 1   
    12    7   14 1   
    13    7   15 1   
    14    7   16 1   
    15    7   17 1   
@<TRIPOS>SUBSTRUCTURE
     1 NEN         1 TEMP              0 ****  ****    0 ROOT
