@<TRIPOS>MOLECULE
NEO
   29    30     1     0     0
SMALL
bcc


@<TRIPOS>ATOM
      1 N2         -1.2810   -0.0350    3.4580 n         1 NEO     -0.512400
      2 C1         -1.4900    0.2240    2.0890 c         1 NEO      0.622000
      3 C10        -0.2730    0.2300    1.2410 ca        1 NEO      0.171500
      4 N9         -0.4080    0.4580   -0.0940 nb        1 NEO     -0.562000
      5 C8          0.7160    0.4570   -0.8240 ca        1 NEO      0.235300
      6 C7          1.9960    0.2380   -0.2050 ca        1 NEO      0.353900
      7 N6          2.1570    0.0130    1.0930 nb        1 NEO     -0.624000
      8 C5          1.0060   -0.0010    1.8670 ca        1 NEO      0.567000
      9 N4          1.1310   -0.2480    3.2340 nc        1 NEO     -0.736700
     10 C3          0.0130   -0.2260    3.9820 cd        1 NEO      0.689800
     11 N13         0.1340   -0.3430    5.3820 nh        1 NEO     -0.893800
     12 C16         0.6420    0.7260   -2.3120 c3        1 NEO      0.110800
     13 O21         1.9210    0.6350   -2.9080 oh        1 NEO     -0.597800
     14 C26        -0.3610   -0.2060   -3.0190 c3        1 NEO      0.116100
     15 O22         0.2610   -1.4810   -3.0950 oh        1 NEO     -0.617800
     16 C28        -0.6510    0.3360   -4.4250 c3        1 NEO      0.090400
     17 O24        -1.4210   -0.6590   -5.0800 oh        1 NEO     -0.612800
     18 O11        -2.6540    0.4130    1.7120 o         1 NEO     -0.580500
     19 HN2        -2.0740    0.0090    4.0610 hn        1 NEO      0.338500
     20 H7          2.9190    0.2620   -0.8180 h4        1 NEO      0.052100
     21 H131        1.0500   -0.5710    5.7080 hn        1 NEO      0.426800
     22 H132       -0.6030   -0.8260    5.8450 hn        1 NEO      0.426800
     23 H16         0.3310    1.8000   -2.4720 h1        1 NEO      0.095700
     24 H21         2.1360   -0.3050   -3.0000 ho        1 NEO      0.426000
     25 H26        -1.3210   -0.2870   -2.4410 h1        1 NEO      0.083700
     26 H22        -0.2980   -2.0300   -3.6610 ho        1 NEO      0.433000
     27 H281       -1.2320    1.2930   -4.3580 h1        1 NEO      0.043200
     28 H282        0.3110    0.5120   -4.9750 h1        1 NEO      0.043200
     29 H24        -1.5450   -0.3630   -5.9890 ho        1 NEO      0.412000
@<TRIPOS>BOND
     1    1    2 1   
     2    1   10 1   
     3    1   19 1   
     4    2    3 1   
     5    2   18 2   
     6    3    4 ar  
     7    3    8 ar  
     8    4    5 ar  
     9    5    6 ar  
    10    5   12 1   
    11    6    7 ar  
    12    6   20 1   
    13    7    8 ar  
    14    8    9 1   
    15    9   10 2   
    16   10   11 1   
    17   11   21 1   
    18   11   22 1   
    19   12   13 1   
    20   12   14 1   
    21   12   23 1   
    22   13   24 1   
    23   14   15 1   
    24   14   16 1   
    25   14   25 1   
    26   15   26 1   
    27   16   17 1   
    28   16   27 1   
    29   16   28 1   
    30   17   29 1   
@<TRIPOS>SUBSTRUCTURE
     1 NEO         1 TEMP              0 ****  ****    0 ROOT
