@<TRIPOS>MOLECULE
NEO
   29    30     1     0     0
SMALL
bcc


@<TRIPOS>ATOM
      1 N2         -0.2120    0.5820    0.0870 ns        1 NEO     -0.512400
      2 C1          1.1890    0.7020   -0.0040 c         1 NEO      0.623000
      3 C10         1.9540    0.2320    1.1760 ca        1 NEO      0.157500
      4 N9          3.3120    0.3270    1.1550 nb        1 NEO     -0.554000
      5 C8          3.9610   -0.1140    2.2400 ca        1 NEO      0.207300
      6 C7          3.2470   -0.6600    3.3650 ca        1 NEO      0.376900
      7 N6          1.9250   -0.7610    3.4130 nb        1 NEO     -0.631000
      8 C5          1.2280   -0.3110    2.3000 ca        1 NEO      0.577000
      9 N4         -0.1620   -0.3950    2.3140 nc        1 NEO     -0.739700
     10 C3         -0.8300    0.0100    1.2170 cd        1 NEO      0.693800
     11 N13        -2.2220   -0.1940    1.1600 nv        1 NEO     -0.895800
     12 C16         5.4700   -0.0440    2.3000 c3        1 NEO      0.104800
     13 O21         5.8950    0.5420    3.5210 oh        1 NEO     -0.588800
     14 C26         6.0930   -1.4500    2.2160 c3        1 NEO      0.153100
     15 O22         5.6010   -2.2300    3.2920 oh        1 NEO     -0.601800
     16 C28         7.6210   -1.3380    2.2720 c3        1 NEO      0.091400
     17 O24         8.1140   -2.6690    2.2320 oh        1 NEO     -0.614800
     18 O11         1.6560    1.1920   -1.0410 o         1 NEO     -0.581500
     19 HN2        -0.7480    0.8330   -0.7160 hn        1 NEO      0.338500
     20 H7          3.8220   -1.0360    4.2360 h4        1 NEO      0.071100
     21 H131       -2.7480    0.4910    0.6670 hn        1 NEO      0.428300
     22 H132       -2.6390   -0.5100    2.0100 hn        1 NEO      0.428300
     23 H16         5.8750    0.5640    1.4380 h1        1 NEO      0.066700
     24 H21         5.4720    1.4070    3.5790 ho        1 NEO      0.409000
     25 H26         5.7800   -1.9250    1.2430 h1        1 NEO      0.060700
     26 H22         6.1490   -3.0270    3.3290 ho        1 NEO      0.426000
     27 H281        7.9310   -0.8280    3.2220 h1        1 NEO      0.047200
     28 H282        8.0020   -0.7630    1.3880 h1        1 NEO      0.047200
     29 H24         9.0520   -2.6240    2.4480 ho        1 NEO      0.411000
@<TRIPOS>BOND
     1    1    2 1   
     2    1   10 1   
     3    1   19 1   
     4    2    3 1   
     5    2   18 2   
     6    3    4 ar  
     7    3    8 ar  
     8    4    5 ar  
     9    5    6 ar  
    10    5   12 1   
    11    6    7 ar  
    12    6   20 1   
    13    7    8 ar  
    14    8    9 1   
    15    9   10 2   
    16   10   11 1   
    17   11   21 1   
    18   11   22 1   
    19   12   13 1   
    20   12   14 1   
    21   12   23 1   
    22   13   24 1   
    23   14   15 1   
    24   14   16 1   
    25   14   25 1   
    26   15   26 1   
    27   16   17 1   
    28   16   27 1   
    29   16   28 1   
    30   17   29 1   
@<TRIPOS>SUBSTRUCTURE
     1 NEO         1 TEMP              0 ****  ****    0 ROOT
