@<TRIPOS>MOLECULE
NEO
   30    31     1     0     0
SMALL
bcc


@<TRIPOS>ATOM
      1 N2         -0.2040    0.5100    0.0480 n         1 NEO     -0.511400
      2 C1          1.2120    0.6840   -0.0280 c         1 NEO      0.622000
      3 C10         1.9740    0.2480    1.1700 ca        1 NEO      0.240500
      4 N9          3.3330    0.3780    1.1540 nb        1 NEO     -0.567000
      5 C8          3.9860   -0.0310    2.2490 ca        1 NEO      0.303300
      6 C7          3.2820   -0.5770    3.3880 ca        1 NEO      0.388900
      7 N6          1.9600   -0.7090    3.4270 nb        1 NEO     -0.584000
      8 C5          1.2740   -0.2940    2.3000 ca        1 NEO      0.499000
      9 N4         -0.1300   -0.4250    2.2930 nc        1 NEO     -0.604700
     10 C3         -0.7620   -0.0330    1.2030 cd        1 NEO      0.532800
     11 N13        -2.2570   -0.2010    1.2370 n4        1 NEO     -0.803600
     12 C16         5.5020    0.0410    2.3170 c3        1 NEO      0.087800
     13 O21         5.8890    0.5020    3.5980 oh        1 NEO     -0.576800
     14 C26         6.0930   -1.3700    2.1130 c3        1 NEO      0.152100
     15 O22         5.4330   -2.2570    2.9990 oh        1 NEO     -0.619800
     16 C28         7.6060   -1.3430    2.3600 c3        1 NEO      0.096400
     17 O24         8.0360   -2.6880    2.2290 oh        1 NEO     -0.612800
     18 O11         1.6510    1.1730   -1.0670 o         1 NEO     -0.493500
     19 HN2        -0.7510    0.7820   -0.7410 hn        1 NEO      0.353500
     20 H7          3.8650   -0.9300    4.2670 h4        1 NEO      0.099100
     21 H131       -2.5370   -0.6080    2.1460 hn        1 NEO      0.485133
     22 H132       -2.7080    0.7140    1.1260 hn        1 NEO      0.485133
     23 H16         5.9090    0.7160    1.5100 h1        1 NEO      0.084700
     24 H21         5.8010    1.4640    3.5960 ho        1 NEO      0.417000
     25 H26         5.8830   -1.6960    1.0540 h1        1 NEO      0.066700
     26 H22         6.0040   -3.0310    3.1100 ho        1 NEO      0.445000
     27 H281        8.1110   -0.6970    1.5950 h1        1 NEO      0.052700
     28 H282        7.8220   -0.9560    3.3910 h1        1 NEO      0.052700
     29 H24         8.9620   -2.7150    2.4970 ho        1 NEO      0.425000
     30 H133       -2.5490   -0.8330    0.4830 hn        1 NEO      0.485133
@<TRIPOS>BOND
     1    1    2 1   
     2    1   10 1   
     3    1   19 1   
     4    2    3 1   
     5    2   18 2   
     6    3    4 ar  
     7    3    8 ar  
     8    4    5 ar  
     9    5    6 ar  
    10    5   12 1   
    11    6    7 ar  
    12    6   20 1   
    13    7    8 ar  
    14    8    9 1   
    15    9   10 2   
    16   10   11 1   
    17   11   21 1   
    18   11   22 1   
    19   11   30 1   
    20   12   13 1   
    21   12   14 1   
    22   12   23 1   
    23   13   24 1   
    24   14   15 1   
    25   14   16 1   
    26   14   25 1   
    27   15   26 1   
    28   16   17 1   
    29   16   27 1   
    30   16   28 1   
    31   17   29 1   
@<TRIPOS>SUBSTRUCTURE
     1 NEO         1 TEMP              0 ****  ****    0 ROOT
