@<TRIPOS>MOLECULE
NEO
   29    26     1     0     0
SMALL
bcc


@<TRIPOS>ATOM
      1 N2         -3.5970    0.4680   -1.7780 n2        1 NEO     -0.816800
      2 C1         -2.2510    0.4360   -1.7910 c1        1 NEO      0.823900
      3 C10        -1.5460    0.4270   -0.5960 cg        1 NEO     -0.115200
      4 N9         -0.1780    0.3770   -0.6060 n1        1 NEO     -0.433600
      5 C8          0.5010    0.3510    0.5500 c1        1 NEO      0.202700
      6 C7         -0.1820    0.3740    1.7540 c1        1 NEO      0.360300
      7 N6         -1.5210    0.4230    1.7650 n1        1 NEO     -0.430800
      8 C5         -2.2150    0.4500    0.5850 ch        1 NEO      0.146000
      9 N4         -3.5790    0.4820    0.5940 nf        1 NEO     -0.504400
     10 C3         -4.2710    0.4910   -0.5840 c1        1 NEO      0.466400
     11 N13        -5.6740    0.3170   -0.4550 n3        1 NEO     -0.432400
     12 C16         1.9930    0.5050    0.3650 c3        1 NEO      0.172200
     13 O21         2.5150    1.2950    1.4070 oh        1 NEO     -0.588800
     14 C26         2.6480   -0.8570    0.3890 c3        1 NEO      0.153100
     15 O22         2.7100   -1.3250    1.7160 oh        1 NEO     -0.601800
     16 C28         4.0470   -0.7540   -0.1750 c3        1 NEO      0.091400
     17 O24         4.5430   -2.0470   -0.4410 oh        1 NEO     -0.614800
     18 O11        -1.6530    0.4540   -2.8490 o         1 NEO     -0.539500
     19 HN2        -4.0620    0.4740   -2.5660 hn        1 NEO      0.496400
     20 H7          0.3130    0.3550    2.5960 ha        1 NEO      0.149500
     21 H131       -6.0490    0.2270    0.3740 hn        1 NEO      0.272700
     22 H132       -6.2010    0.2800   -1.2020 hn        1 NEO      0.272700
     23 H16         2.1730    0.9380   -0.4930 h1        1 NEO      0.066700
     24 H21         2.7850    2.0770    1.0800 ho        1 NEO      0.410000
     25 H26         2.1230   -1.4800   -0.1520 h1        1 NEO      0.060700
     26 H22         2.5800   -2.2040    1.7270 ho        1 NEO      0.426000
     27 H281        4.6290   -0.3080    0.4750 h1        1 NEO      0.047200
     28 H282        4.0270   -0.2340   -1.0050 h1        1 NEO      0.047200
     29 H24         5.3950   -1.9920   -0.6870 ho        1 NEO      0.411000
@<TRIPOS>BOND
     1    1    2 2   
     2    1   19 1   
     3    2   18 2   
     4    3    4 1   
     5    3    8 3   
     6    4    5 3   
     7    5   12 1   
     8    6    7 3   
     9    6   20 1   
    10    8    9 1   
    11    9   10 2   
    12   10   11 2   
    13   11   21 1   
    14   11   22 1   
    15   12   13 1   
    16   12   14 1   
    17   12   23 1   
    18   13   24 1   
    19   14   15 1   
    20   14   16 1   
    21   14   25 1   
    22   15   26 1   
    23   16   17 1   
    24   16   27 1   
    25   16   28 1   
    26   17   29 1   
@<TRIPOS>SUBSTRUCTURE
     1 NEO         1 TEMP              0 ****  ****    0 ROOT
