@<TRIPOS>MOLECULE
NEP
   22    22     1     0     0
SMALL
bcc


@<TRIPOS>ATOM
      1 N           0.8110    1.4820    2.6960 n3        1 NEP     -0.903800
      2 CA         -0.1370    0.4230    3.0010 c3        1 NEP      0.057500
      3 C           0.1490   -0.2240    4.3890 c         1 NEP      0.910600
      4 O           1.3360   -0.5500    4.6950 o         1 NEP     -0.880300
      5 CB         -0.2030   -0.7050    1.9550 c3        1 NEP     -0.093700
      6 CG         -0.3860   -0.2690    0.5530 cc        1 NEP      0.203600
      7 ND1        -1.3790    0.5940    0.0860 nc        1 NEP     -0.756000
      8 CD2         0.3770   -0.7320   -0.5620 cd        1 NEP     -0.247600
      9 CE1        -1.1940    0.6280   -1.2660 cd        1 NEP      0.323400
     10 NE2        -0.1420   -0.1620   -1.7090 na        1 NEP     -0.082700
     11 P           0.1200   -0.2030   -3.4940 p5        1 NEP      1.135000
     12 O1P        -0.9260    0.7610   -4.0090 o         1 NEP     -0.917167
     13 O2P         1.5430    0.2600   -3.6800 o         1 NEP     -0.917167
     14 O3P        -0.1190   -1.6430   -3.8760 o         1 NEP     -0.917167
     15 OXT        -0.8250   -0.4060    5.1800 o         1 NEP     -0.880300
     16 H           0.7830    1.6640    1.7080 hn        1 NEP      0.333300
     17 H2          1.7350    1.1580    2.9230 hn        1 NEP      0.333300
     18 HA         -1.1540    0.9080    3.0490 h1        1 NEP      0.050700
     19 HB2         0.7420   -1.3090    2.0210 hc        1 NEP      0.022200
     20 HB3        -1.0520   -1.3790    2.2490 hc        1 NEP      0.022200
     21 HD2         1.2270   -1.4090   -0.5640 h4        1 NEP      0.138000
     22 HE1        -1.7790    1.2000   -1.9990 h5        1 NEP      0.067100
@<TRIPOS>BOND
     1    1    2 1   
     2    1   16 1   
     3    1   17 1   
     4    2    3 1   
     5    2    5 1   
     6    2   18 1   
     7    3    4 1   
     8    3   15 1   
     9    5    6 1   
    10    5   19 1   
    11    5   20 1   
    12    6    7 1   
    13    6    8 2   
    14    7    9 2   
    15    8   10 1   
    16    8   21 1   
    17    9   10 1   
    18    9   22 1   
    19   10   11 1   
    20   11   12 1   
    21   11   13 1   
    22   11   14 1   
@<TRIPOS>SUBSTRUCTURE
     1 NEP         1 TEMP              0 ****  ****    0 ROOT
