@<TRIPOS>MOLECULE
NEQ
   16    15     1     0     0
SMALL
bcc


@<TRIPOS>ATOM
      1 N1          0.0120    0.1690    0.0200 n         1 NEQ     -0.360000
      2 O1          2.3270    0.4060   -0.8960 o         1 NEQ     -0.283000
      3 O2         -1.4650   -0.0580    2.0200 o         1 NEQ     -0.283000
      4 C1          1.5890    0.0950    0.0260 c2        1 NEQ      0.326000
      5 C2          1.9300    0.1080    1.4260 c2        1 NEQ     -0.155000
      6 C3          0.8880    0.1810    2.2300 c1        1 NEQ     -0.155000
      7 C4         -0.3790    0.2330    1.5440 c1        1 NEQ      0.326000
      8 C5         -0.8180    0.5880   -1.0910 c3        1 NEQ     -0.009000
      9 C6         -1.3980   -0.6620   -1.8030 c3        1 NEQ     -0.238000
     10 H21         2.7610   -0.3300    1.7350 ha        1 NEQ      0.180000
     11 H31         0.9410   -0.1980    3.1370 ha        1 NEQ      0.180000
     12 H51        -0.2760    1.1060   -1.7290 h1        1 NEQ      0.106000
     13 H52        -1.5520    1.1460   -0.7580 h1        1 NEQ      0.106000
     14 H61        -1.9490   -1.1770   -1.1680 hc        1 NEQ      0.086333
     15 H62        -0.6580   -1.2270   -2.1280 hc        1 NEQ      0.086333
     16 H63        -1.9520   -0.3790   -2.5640 hc        1 NEQ      0.086333
@<TRIPOS>BOND
     1    1    4 1   
     2    1    7 1   
     3    1    8 1   
     4    2    4 1   
     5    3    7 1   
     6    4    5 1   
     7    5    6 1   
     8    5   10 1   
     9    6   11 1   
    10    8    9 1   
    11    8   12 1   
    12    8   13 1   
    13    9   14 1   
    14    9   15 1   
    15    9   16 1   
@<TRIPOS>SUBSTRUCTURE
     1 NEQ         1 TEMP              0 ****  ****    0 ROOT
