@<TRIPOS>MOLECULE
NEQ
   16    16     1     0     0
SMALL
bcc


@<TRIPOS>ATOM
      1 N1          0.0010    0.2740    0.2650 n         1 NEQ     -0.531400
      2 O1         -2.3250    0.1590   -0.1350 o         1 NEQ     -0.558500
      3 O2          2.3240    0.1550   -0.1440 o         1 NEQ     -0.558500
      4 C1         -1.1610    0.0710   -0.5280 c         1 NEQ      0.687700
      5 C2         -0.6780   -0.2470   -1.9300 cc        1 NEQ     -0.174200
      6 C3          0.6700   -0.2480   -1.9320 cd        1 NEQ     -0.174200
      7 C4          1.1590    0.0690   -0.5330 c         1 NEQ      0.687700
      8 C5          0.0040    0.5170    1.6800 c3        1 NEQ      0.107000
      9 C6          0.0040   -0.7300    2.5520 c3        1 NEQ     -0.120100
     10 H21        -1.3890   -0.4280   -2.7360 ha        1 NEQ      0.180000
     11 H31         1.3770   -0.4300   -2.7410 ha        1 NEQ      0.180000
     12 H51        -0.9140    1.1300    1.9180 h1        1 NEQ      0.066700
     13 H52         0.9230    1.1280    1.9140 h1        1 NEQ      0.066700
     14 H61         0.0070   -0.4120    3.6230 hc        1 NEQ      0.047033
     15 H62        -0.9040   -1.3520    2.3670 hc        1 NEQ      0.047033
     16 H63         0.9100   -1.3540    2.3640 hc        1 NEQ      0.047033
@<TRIPOS>BOND
     1    1    4 1   
     2    1    7 1   
     3    1    8 1   
     4    2    4 2   
     5    3    7 2   
     6    4    5 1   
     7    5    6 2   
     8    5   10 1   
     9    6    7 1   
    10    6   11 1   
    11    8    9 1   
    12    8   12 1   
    13    8   13 1   
    14    9   14 1   
    15    9   15 1   
    16    9   16 1   
@<TRIPOS>SUBSTRUCTURE
     1 NEQ         1 TEMP              0 ****  ****    0 ROOT
