@<TRIPOS>MOLECULE
NEQ
   16    16     1     0     0
SMALL
bcc


@<TRIPOS>ATOM
      1 N1         -0.0330    0.1100   -0.0510 n         1 NEQ     -0.531400
      2 O1          2.1080    0.1030   -1.0470 o         1 NEQ     -0.558500
      3 O2         -1.6890    0.1330    1.6340 o         1 NEQ     -0.558500
      4 C1          1.3880    0.1430   -0.0500 c         1 NEQ      0.687700
      5 C2          1.8170    0.2590    1.3990 cc        1 NEQ     -0.174200
      6 C3          0.7160    0.2680    2.1770 cd        1 NEQ     -0.174200
      7 C4         -0.5070    0.1590    1.2880 c         1 NEQ      0.687700
      8 C5         -0.8550   -0.0780   -1.2120 c3        1 NEQ      0.107000
      9 C6         -1.1310   -1.5280   -1.5840 c3        1 NEQ     -0.120100
     10 H21         2.8730    0.3220    1.6640 ha        1 NEQ      0.180000
     11 H31         0.6130    0.3400    3.2590 ha        1 NEQ      0.180000
     12 H51        -0.3370    0.4290   -2.0770 h1        1 NEQ      0.066700
     13 H52        -1.8370    0.4430   -1.0180 h1        1 NEQ      0.066700
     14 H61        -1.7750   -1.5420   -2.4970 hc        1 NEQ      0.047033
     15 H62        -0.1830   -2.0740   -1.8090 hc        1 NEQ      0.047033
     16 H63        -1.6650   -2.0610   -0.7620 hc        1 NEQ      0.047033
@<TRIPOS>BOND
     1    1    4 1   
     2    1    7 1   
     3    1    8 1   
     4    2    4 2   
     5    3    7 2   
     6    4    5 1   
     7    5    6 2   
     8    5   10 1   
     9    6    7 1   
    10    6   11 1   
    11    8    9 1   
    12    8   12 1   
    13    8   13 1   
    14    9   14 1   
    15    9   15 1   
    16    9   16 1   
@<TRIPOS>SUBSTRUCTURE
     1 NEQ         1 TEMP              0 ****  ****    0 ROOT
