@<TRIPOS>MOLECULE
NEQ
   16    16     1     0     0
SMALL
bcc


@<TRIPOS>ATOM
      1 N1         -0.0300    0.1100   -0.0430 n         1 NEQ     -0.531400
      2 O1          2.1110    0.1060   -1.0400 o         1 NEQ     -0.558500
      3 O2         -1.6860    0.1130    1.6420 o         1 NEQ     -0.558500
      4 C1          1.3910    0.1330   -0.0410 c         1 NEQ      0.687700
      5 C2          1.8210    0.2170    1.4100 cc        1 NEQ     -0.174200
      6 C3          0.7200    0.2190    2.1880 cd        1 NEQ     -0.174200
      7 C4         -0.5040    0.1370    1.2960 c         1 NEQ      0.687700
      8 C5         -0.8530   -0.0500   -1.2080 c3        1 NEQ      0.107000
      9 C6         -1.1390   -1.4890   -1.6090 c3        1 NEQ     -0.120100
     10 H21         2.8770    0.2670    1.6760 ha        1 NEQ      0.180000
     11 H31         0.6170    0.2710    3.2710 ha        1 NEQ      0.180000
     12 H51        -0.3320    0.4720   -2.0620 h1        1 NEQ      0.066700
     13 H52        -1.8320    0.4740   -1.0030 h1        1 NEQ      0.066700
     14 H61        -1.7830   -1.4820   -2.5210 hc        1 NEQ      0.047033
     15 H62        -0.1960   -2.0380   -1.8430 hc        1 NEQ      0.047033
     16 H63        -1.6770   -2.0350   -0.7970 hc        1 NEQ      0.047033
@<TRIPOS>BOND
     1    1    4 1   
     2    1    7 1   
     3    1    8 1   
     4    2    4 2   
     5    3    7 2   
     6    4    5 1   
     7    5    6 2   
     8    5   10 1   
     9    6    7 1   
    10    6   11 1   
    11    8    9 1   
    12    8   12 1   
    13    8   13 1   
    14    9   14 1   
    15    9   15 1   
    16    9   16 1   
@<TRIPOS>SUBSTRUCTURE
     1 NEQ         1 TEMP              0 ****  ****    0 ROOT
