@<TRIPOS>MOLECULE
NEQ
   16    16     1     0     0
SMALL
bcc


@<TRIPOS>ATOM
      1 N1         -0.0350    0.1100   -0.0450 n         1 NEQ     -0.531400
      2 O1          2.1080    0.1340   -1.0380 o         1 NEQ     -0.558500
      3 O2         -1.6930    0.0950    1.6370 o         1 NEQ     -0.558500
      4 C1          1.3860    0.1530   -0.0410 c         1 NEQ      0.687700
      5 C2          1.8120    0.2490    1.4100 cc        1 NEQ     -0.174200
      6 C3          0.7100    0.2370    2.1860 cd        1 NEQ     -0.174200
      7 C4         -0.5110    0.1340    1.2930 c         1 NEQ      0.687700
      8 C5         -0.8530   -0.0650   -1.2110 c3        1 NEQ      0.107000
      9 C6         -1.1230   -1.5100   -1.6040 c3        1 NEQ     -0.120100
     10 H21         2.8670    0.3140    1.6770 ha        1 NEQ      0.180000
     11 H31         0.6050    0.2910    3.2690 ha        1 NEQ      0.180000
     12 H51        -0.3350    0.4560   -2.0670 h1        1 NEQ      0.066700
     13 H52        -1.8380    0.4500   -1.0110 h1        1 NEQ      0.066700
     14 H61        -1.6570   -2.0560   -0.7900 hc        1 NEQ      0.047033
     15 H62        -0.1730   -2.0500   -1.8330 hc        1 NEQ      0.047033
     16 H63        -1.7660   -1.5150   -2.5170 hc        1 NEQ      0.047033
@<TRIPOS>BOND
     1    1    4 1   
     2    1    7 1   
     3    1    8 1   
     4    2    4 2   
     5    3    7 2   
     6    4    5 1   
     7    5    6 2   
     8    5   10 1   
     9    6    7 1   
    10    6   11 1   
    11    8    9 1   
    12    8   12 1   
    13    8   13 1   
    14    9   14 1   
    15    9   15 1   
    16    9   16 1   
@<TRIPOS>SUBSTRUCTURE
     1 NEQ         1 TEMP              0 ****  ****    0 ROOT
