@<TRIPOS>MOLECULE
NER
   71    70     1     0     0
SMALL
bcc


@<TRIPOS>ATOM
      1 O1          1.5730    1.5820   -0.6450 o         1 NER     -0.852800
      2 C1          2.4450    2.0030    0.1670 c         1 NER      0.908600
      3 C2          2.8170    1.1050    1.3600 c3        1 NER     -0.195400
      4 C3          4.3140    0.9590    1.4800 c3        1 NER     -0.068400
      5 C4          4.7260    0.3460    2.8030 c3        1 NER     -0.079400
      6 C5          6.2330    0.2560    2.9120 c3        1 NER     -0.081400
      7 C6          6.6800   -0.1150    4.3110 c3        1 NER     -0.078400
      8 C7          8.1900   -0.0880    4.4180 c3        1 NER     -0.081400
      9 C8          8.6540   -0.1560    5.8570 c3        1 NER     -0.077400
     10 C9         10.1630   -0.1370    5.9850 c3        1 NER     -0.074400
     11 C10        10.7770    1.0740    5.3180 c3        1 NER     -0.082400
     12 C11        12.2110    1.3020    5.7470 c3        1 NER     -0.075400
     13 C12        12.8700    2.3280    4.8500 c3        1 NER     -0.085400
     14 C13        14.1700    2.8450    5.4240 c3        1 NER     -0.070400
     15 C14        14.7820    3.9170    4.5390 c3        1 NER     -0.046200
     16 C15        13.9880    5.1700    4.5530 c2        1 NER     -0.182200
     17 C16        13.1570    5.5860    3.5930 c2        1 NER     -0.156200
     18 C17        12.8750    4.8700    2.3250 c3        1 NER     -0.053200
     19 C18        11.4900    5.1620    1.7820 c3        1 NER     -0.075400
     20 C19        10.3990    4.5750    2.6530 c3        1 NER     -0.080400
     21 C20         9.0280    4.8480    2.0720 c3        1 NER     -0.079400
     22 C21         7.9280    4.3070    2.9590 c3        1 NER     -0.078400
     23 C22         6.5590    4.6320    2.3980 c3        1 NER     -0.081400
     24 C23         5.4550    4.1970    3.3390 c3        1 NER     -0.072400
     25 C24         4.0980    4.5840    2.8120 c3        1 NER     -0.122100
     26 O2          3.0150    3.1300    0.0630 o         1 NER     -0.852800
     27 H21         2.3330    0.1040    1.2400 hc        1 NER      0.021200
     28 H22         2.4040    1.5820    2.2850 hc        1 NER      0.021200
     29 H31         4.7000    0.3280    0.6380 hc        1 NER      0.043700
     30 H32         4.7800    1.9780    1.3750 hc        1 NER      0.043700
     31 H41         4.3260    0.9740    3.6430 hc        1 NER      0.027200
     32 H42         4.2750   -0.6740    2.9100 hc        1 NER      0.027200
     33 H51         6.6200   -0.4990    2.1800 hc        1 NER      0.037200
     34 H52         6.6810    1.2480    2.6320 hc        1 NER      0.037200
     35 H61         6.2950   -1.1330    4.5780 hc        1 NER      0.034700
     36 H62         6.2380    0.6100    5.0450 hc        1 NER      0.034700
     37 H71         8.5710    0.8600    3.9500 hc        1 NER      0.038700
     38 H72         8.6270   -0.9420    3.8370 hc        1 NER      0.038700
     39 H81         8.2580   -1.0930    6.3320 hc        1 NER      0.036200
     40 H82         8.2230    0.7110    6.4250 hc        1 NER      0.036200
     41 H91        10.5920   -1.0690    5.5300 hc        1 NER      0.031700
     42 H92        10.4350   -0.1440    7.0740 hc        1 NER      0.031700
     43 H101       10.7420    0.9420    4.2030 hc        1 NER      0.045200
     44 H102       10.1700    1.9870    5.5590 hc        1 NER      0.045200
     45 H111       12.2340    1.6520    6.8130 hc        1 NER      0.033700
     46 H112       12.7830    0.3390    5.7040 hc        1 NER      0.033700
     47 H121       13.0590    1.8710    3.8420 hc        1 NER      0.046700
     48 H122       12.1700    3.1940    4.6870 hc        1 NER      0.046700
     49 H131       13.9920    3.2630    6.4490 hc        1 NER      0.035700
     50 H132       14.8970    1.9970    5.5290 hc        1 NER      0.035700
     51 H141       15.8190    4.1440    4.9090 hc        1 NER      0.040200
     52 H142       14.8850    3.5220    3.4930 hc        1 NER      0.040200
     53 H15        14.1200    5.7800    5.4630 ha        1 NER      0.113000
     54 H16        12.6180    6.5420    3.7150 ha        1 NER      0.120000
     55 H171       12.9830    3.7600    2.4700 hc        1 NER      0.046200
     56 H172       13.6410    5.1830    1.5620 hc        1 NER      0.046200
     57 H181       11.4100    4.7330    0.7480 hc        1 NER      0.039200
     58 H182       11.3430    6.2710    1.6930 hc        1 NER      0.039200
     59 H191       10.5520    3.4680    2.7570 hc        1 NER      0.038200
     60 H192       10.4710    5.0140    3.6830 hc        1 NER      0.038200
     61 H201        8.9500    4.3830    1.0540 hc        1 NER      0.040200
     62 H202        8.8920    5.9540    1.9400 hc        1 NER      0.040200
     63 H211        8.0370    3.1940    3.0610 hc        1 NER      0.032700
     64 H212        8.0280    4.7440    3.9880 hc        1 NER      0.032700
     65 H221        6.4200    4.1220    1.4080 hc        1 NER      0.047700
     66 H222        6.4810    5.7360    2.2160 hc        1 NER      0.047700
     67 H231        5.6220    4.6580    4.3490 hc        1 NER      0.024200
     68 H232        5.4990    3.0810    3.4710 hc        1 NER      0.024200
     69 H241        4.0460    5.6830    2.6240 hc        1 NER      0.052367
     70 H242        3.3080    4.3170    3.5550 hc        1 NER      0.052367
     71 H243        3.8670    4.0470    1.8490 hc        1 NER      0.052367
@<TRIPOS>BOND
     1    1    2 1   
     2    2    3 1   
     3    2   26 1   
     4    3    4 1   
     5    3   27 1   
     6    3   28 1   
     7    4    5 1   
     8    4   29 1   
     9    4   30 1   
    10    5    6 1   
    11    5   31 1   
    12    5   32 1   
    13    6    7 1   
    14    6   33 1   
    15    6   34 1   
    16    7    8 1   
    17    7   35 1   
    18    7   36 1   
    19    8    9 1   
    20    8   37 1   
    21    8   38 1   
    22    9   10 1   
    23    9   39 1   
    24    9   40 1   
    25   10   11 1   
    26   10   41 1   
    27   10   42 1   
    28   11   12 1   
    29   11   43 1   
    30   11   44 1   
    31   12   13 1   
    32   12   45 1   
    33   12   46 1   
    34   13   14 1   
    35   13   47 1   
    36   13   48 1   
    37   14   15 1   
    38   14   49 1   
    39   14   50 1   
    40   15   16 1   
    41   15   51 1   
    42   15   52 1   
    43   16   17 2   
    44   16   53 1   
    45   17   18 1   
    46   17   54 1   
    47   18   19 1   
    48   18   55 1   
    49   18   56 1   
    50   19   20 1   
    51   19   57 1   
    52   19   58 1   
    53   20   21 1   
    54   20   59 1   
    55   20   60 1   
    56   21   22 1   
    57   21   61 1   
    58   21   62 1   
    59   22   23 1   
    60   22   63 1   
    61   22   64 1   
    62   23   24 1   
    63   23   65 1   
    64   23   66 1   
    65   24   25 1   
    66   24   67 1   
    67   24   68 1   
    68   25   69 1   
    69   25   70 1   
    70   25   71 1   
@<TRIPOS>SUBSTRUCTURE
     1 NER         1 TEMP              0 ****  ****    0 ROOT
