@<TRIPOS>MOLECULE
NER
   71    69     1     0     0
SMALL
bcc


@<TRIPOS>ATOM
      1 O1         -2.2570   -9.6820    7.3200 o         1 NER     -0.588500
      2 C1         -1.6170   -9.8690    6.2520 c2        1 NER      0.327000
      3 C2         -2.2140   -9.4480    4.9280 c3        1 NER     -0.222000
      4 C3         -1.8360   -8.0120    4.6380 c3        1 NER     -0.144000
      5 C4         -1.9070   -7.7630    3.1470 c3        1 NER     -0.157000
      6 C5         -1.5960   -6.3100    2.8630 c3        1 NER     -0.157000
      7 C6         -1.3410   -6.1280    1.3830 c3        1 NER     -0.157000
      8 C7         -0.5140   -4.8810    1.1630 c3        1 NER     -0.158000
      9 C8         -0.4930   -4.5440   -0.3120 c3        1 NER     -0.157000
     10 C9          0.7730   -3.7820   -0.6370 c3        1 NER     -0.158000
     11 C10         0.5110   -2.8370   -1.7900 c3        1 NER     -0.157000
     12 C11         1.7880   -2.1080   -2.1450 c3        1 NER     -0.158000
     13 C12         1.4490   -0.7890   -2.8030 c3        1 NER     -0.158000
     14 C13         2.7120    0.0250   -2.9820 c3        1 NER     -0.156000
     15 C14         2.3540    1.4870   -3.1300 c3        1 NER     -0.133000
     16 C15         3.5950    2.3320   -2.9440 c2        1 NER     -0.164000
     17 C16         3.4860    3.6670   -2.7960 c1        1 NER     -0.176000
     18 C17         2.1210    4.3200   -2.8160 c2        1 NER     -0.131000
     19 C18         2.1850    5.6420   -2.0820 c3        1 NER     -0.155000
     20 C19         0.8630    6.3630   -2.2270 c3        1 NER     -0.158000
     21 C20         0.6260    7.2320   -1.0120 c3        1 NER     -0.157000
     22 C21        -0.7170    7.9170   -1.1350 c3        1 NER     -0.158000
     23 C22        -1.1680    8.3930    0.2290 c3        1 NER     -0.158000
     24 C23        -2.6170    8.8210    0.1600 c3        1 NER     -0.159000
     25 C24        -3.0900    9.2240    1.5390 c3        1 NER     -0.210000
     26 O2         -0.4800  -10.4080    6.2860 o         1 NER     -0.588500
     27 H21        -1.8710  -10.0250    4.2170 hc        1 NER      0.058000
     28 H22        -3.1880   -9.5260    4.9700 hc        1 NER      0.058000
     29 H31        -2.4560   -7.4120    5.0990 hc        1 NER      0.083000
     30 H32        -0.9250   -7.8450    4.9530 hc        1 NER      0.083000
     31 H41        -1.2550   -8.3310    2.6900 hc        1 NER      0.065000
     32 H42        -2.8060   -7.9730    2.8240 hc        1 NER      0.065000
     33 H51        -0.8000   -6.0430    3.3660 hc        1 NER      0.076000
     34 H52        -2.3540   -5.7550    3.1340 hc        1 NER      0.076000
     35 H61        -0.8580   -6.9060    1.0370 hc        1 NER      0.073500
     36 H62        -2.1950   -6.0400    0.9140 hc        1 NER      0.073500
     37 H71        -0.9060   -4.1370    1.6620 hc        1 NER      0.077000
     38 H72         0.4000   -5.0370    1.4740 hc        1 NER      0.077000
     39 H81        -1.2710   -3.9930   -0.5320 hc        1 NER      0.076000
     40 H82        -0.5190   -5.3700   -0.8360 hc        1 NER      0.076000
     41 H91         1.0550   -3.2690    0.1470 hc        1 NER      0.078000
     42 H92         1.4780   -4.4120   -0.8860 hc        1 NER      0.078000
     43 H101       -0.1740   -2.1880   -1.5300 hc        1 NER      0.077500
     44 H102        0.2000   -3.3470   -2.5650 hc        1 NER      0.077500
     45 H111        2.3060   -1.9430   -1.3310 hc        1 NER      0.078500
     46 H112        2.3150   -2.6550   -2.7620 hc        1 NER      0.078500
     47 H121        0.8210   -0.2950   -2.2390 hc        1 NER      0.078000
     48 H122        1.0420   -0.9550   -3.6760 hc        1 NER      0.078000
     49 H131        3.1840   -0.2780   -3.7830 hc        1 NER      0.080000
     50 H132        3.2890   -0.0920   -2.2000 hc        1 NER      0.080000
     51 H141        1.9840    1.6430   -4.0220 hc        1 NER      0.087000
     52 H142        1.6900    1.7300   -2.4540 hc        1 NER      0.087000
     53 H15         4.4750    1.9100   -2.9310 ha        1 NER      0.122000
     54 H16         4.2860    4.2120   -2.6760 ha        1 NER      0.119000
     55 H171        1.8480    4.4750   -3.7420 ha        1 NER      0.087000
     56 H172        1.4730    3.7340   -2.3780 ha        1 NER      0.087000
     57 H181        2.3650    5.4790   -1.1340 hc        1 NER      0.079500
     58 H182        2.9000    6.1910   -2.4600 hc        1 NER      0.079500
     59 H191        0.1410    5.7080   -2.3050 hc        1 NER      0.080000
     60 H192        0.8840    6.9230   -3.0290 hc        1 NER      0.080000
     61 H201        0.6360    6.6770   -0.2070 hc        1 NER      0.078000
     62 H202        1.3320    7.9070   -0.9510 hc        1 NER      0.078000
     63 H211       -1.3730    7.2860   -1.4940 hc        1 NER      0.079000
     64 H212       -0.6380    8.6830   -1.7380 hc        1 NER      0.079000
     65 H221       -0.6170    9.1510    0.5080 hc        1 NER      0.078000
     66 H222       -1.0730    7.6650    0.8750 hc        1 NER      0.078000
     67 H231       -3.1620    8.0770   -0.1680 hc        1 NER      0.078000
     68 H232       -2.7040    9.5810   -0.4500 hc        1 NER      0.078000
     69 H241       -2.7510   10.1180    1.7520 hc        1 NER      0.071000
     70 H242       -2.7560    8.5820    2.1990 hc        1 NER      0.071000
     71 H243       -4.0700    9.2330    1.5590 hc        1 NER      0.071000
@<TRIPOS>BOND
     1    1    2 1   
     2    2    3 1   
     3    2   26 1   
     4    3    4 1   
     5    3   27 1   
     6    3   28 1   
     7    4    5 1   
     8    4   29 1   
     9    4   30 1   
    10    5    6 1   
    11    5   31 1   
    12    5   32 1   
    13    6    7 1   
    14    6   33 1   
    15    6   34 1   
    16    7    8 1   
    17    7   35 1   
    18    7   36 1   
    19    8    9 1   
    20    8   37 1   
    21    8   38 1   
    22    9   10 1   
    23    9   39 1   
    24    9   40 1   
    25   10   11 1   
    26   10   41 1   
    27   10   42 1   
    28   11   12 1   
    29   11   43 1   
    30   11   44 1   
    31   12   13 1   
    32   12   45 1   
    33   12   46 1   
    34   13   14 1   
    35   13   47 1   
    36   13   48 1   
    37   14   15 1   
    38   14   49 1   
    39   14   50 1   
    40   15   16 1   
    41   15   51 1   
    42   15   52 1   
    43   16   17 1   
    44   16   53 1   
    45   17   54 1   
    46   18   19 1   
    47   18   55 1   
    48   18   56 1   
    49   19   20 1   
    50   19   57 1   
    51   19   58 1   
    52   20   21 1   
    53   20   59 1   
    54   20   60 1   
    55   21   22 1   
    56   21   61 1   
    57   21   62 1   
    58   22   23 1   
    59   22   63 1   
    60   22   64 1   
    61   23   24 1   
    62   23   65 1   
    63   23   66 1   
    64   24   25 1   
    65   24   67 1   
    66   24   68 1   
    67   25   69 1   
    68   25   70 1   
    69   25   71 1   
@<TRIPOS>SUBSTRUCTURE
     1 NER         1 TEMP              0 ****  ****    0 ROOT
