@<TRIPOS>MOLECULE
NER
   71    70     1     0     0
SMALL
bcc


@<TRIPOS>ATOM
      1 O1          1.5740    1.5740   -0.6440 o         1 NER     -0.852800
      2 C1          2.4450    1.9960    0.1680 c         1 NER      0.908600
      3 C2          2.8170    1.0990    1.3610 c3        1 NER     -0.195400
      4 C3          4.3140    0.9550    1.4830 c3        1 NER     -0.068400
      5 C4          4.7260    0.3450    2.8070 c3        1 NER     -0.079400
      6 C5          6.2330    0.2560    2.9170 c3        1 NER     -0.081400
      7 C6          6.6800   -0.1120    4.3160 c3        1 NER     -0.078400
      8 C7          8.1900   -0.0850    4.4240 c3        1 NER     -0.081400
      9 C8          8.6530   -0.1510    5.8630 c3        1 NER     -0.077400
     10 C9         10.1620   -0.1310    5.9920 c3        1 NER     -0.074400
     11 C10        10.7770    1.0790    5.3220 c3        1 NER     -0.082400
     12 C11        12.2110    1.3080    5.7520 c3        1 NER     -0.075400
     13 C12        12.8690    2.3320    4.8520 c3        1 NER     -0.085400
     14 C13        14.1700    2.8500    5.4250 c3        1 NER     -0.070400
     15 C14        14.7820    3.9190    4.5370 c3        1 NER     -0.046200
     16 C15        13.9880    5.1720    4.5470 c2        1 NER     -0.182200
     17 C16        13.1570    5.5850    3.5860 c2        1 NER     -0.156200
     18 C17        12.8760    4.8660    2.3200 c3        1 NER     -0.053200
     19 C18        11.4910    5.1570    1.7760 c3        1 NER     -0.075400
     20 C19        10.4000    4.5730    2.6480 c3        1 NER     -0.080400
     21 C20         9.0290    4.8440    2.0670 c3        1 NER     -0.079400
     22 C21         7.9280    4.3050    2.9550 c3        1 NER     -0.078400
     23 C22         6.5590    4.6290    2.3940 c3        1 NER     -0.081400
     24 C23         5.4550    4.1970    3.3360 c3        1 NER     -0.072400
     25 C24         4.0980    4.5840    2.8070 c3        1 NER     -0.122100
     26 O2          3.0140    3.1240    0.0630 o         1 NER     -0.852800
     27 H21         2.3350    0.0980    1.2410 hc        1 NER      0.021200
     28 H22         2.4020    1.5750    2.2860 hc        1 NER      0.021200
     29 H31         4.7020    0.3240    0.6420 hc        1 NER      0.043700
     30 H32         4.7790    1.9750    1.3770 hc        1 NER      0.043700
     31 H41         4.3250    0.9730    3.6460 hc        1 NER      0.027200
     32 H42         4.2760   -0.6760    2.9150 hc        1 NER      0.027200
     33 H51         6.6210   -0.5000    2.1860 hc        1 NER      0.037200
     34 H52         6.6810    1.2480    2.6350 hc        1 NER      0.037200
     35 H61         6.2960   -1.1300    4.5850 hc        1 NER      0.034700
     36 H62         6.2370    0.6130    5.0500 hc        1 NER      0.034700
     37 H71         8.5700    0.8630    3.9540 hc        1 NER      0.038700
     38 H72         8.6270   -0.9400    3.8450 hc        1 NER      0.038700
     39 H81         8.2570   -1.0860    6.3400 hc        1 NER      0.036200
     40 H82         8.2220    0.7170    6.4290 hc        1 NER      0.036200
     41 H91        10.5910   -1.0640    5.5390 hc        1 NER      0.031700
     42 H92        10.4340   -0.1360    7.0810 hc        1 NER      0.031700
     43 H101       10.7410    0.9450    4.2080 hc        1 NER      0.045200
     44 H102       10.1690    1.9920    5.5610 hc        1 NER      0.045200
     45 H111       12.2320    1.6600    6.8160 hc        1 NER      0.033700
     46 H112       12.7830    0.3440    5.7110 hc        1 NER      0.033700
     47 H121       13.0590    1.8720    3.8450 hc        1 NER      0.046700
     48 H122       12.1700    3.1970    4.6870 hc        1 NER      0.046700
     49 H131       13.9910    3.2700    6.4490 hc        1 NER      0.035700
     50 H132       14.8970    2.0020    5.5320 hc        1 NER      0.035700
     51 H141       15.8190    4.1470    4.9070 hc        1 NER      0.040200
     52 H142       14.8860    3.5210    3.4920 hc        1 NER      0.040200
     53 H15        14.1190    5.7850    5.4560 ha        1 NER      0.113000
     54 H16        12.6180    6.5420    3.7050 ha        1 NER      0.120000
     55 H171       12.9840    3.7570    2.4680 hc        1 NER      0.046200
     56 H172       13.6410    5.1760    1.5560 hc        1 NER      0.046200
     57 H181       11.4110    4.7240    0.7430 hc        1 NER      0.039200
     58 H182       11.3440    6.2650    1.6830 hc        1 NER      0.039200
     59 H191       10.5520    3.4660    2.7560 hc        1 NER      0.038200
     60 H192       10.4720    5.0140    3.6780 hc        1 NER      0.038200
     61 H201        8.9510    4.3760    1.0500 hc        1 NER      0.040200
     62 H202        8.8920    5.9500    1.9310 hc        1 NER      0.040200
     63 H211        8.0370    3.1930    3.0610 hc        1 NER      0.032700
     64 H212        8.0280    4.7450    3.9830 hc        1 NER      0.032700
     65 H221        6.4200    4.1160    1.4050 hc        1 NER      0.047700
     66 H222        6.4820    5.7330    2.2080 hc        1 NER      0.047700
     67 H231        5.6230    4.6620    4.3440 hc        1 NER      0.024200
     68 H232        5.4980    3.0820    3.4710 hc        1 NER      0.024200
     69 H241        4.0480    5.6820    2.6160 hc        1 NER      0.052367
     70 H242        3.3090    4.3190    3.5510 hc        1 NER      0.052367
     71 H243        3.8670    4.0440    1.8460 hc        1 NER      0.052367
@<TRIPOS>BOND
     1    1    2 1   
     2    2    3 1   
     3    2   26 1   
     4    3    4 1   
     5    3   27 1   
     6    3   28 1   
     7    4    5 1   
     8    4   29 1   
     9    4   30 1   
    10    5    6 1   
    11    5   31 1   
    12    5   32 1   
    13    6    7 1   
    14    6   33 1   
    15    6   34 1   
    16    7    8 1   
    17    7   35 1   
    18    7   36 1   
    19    8    9 1   
    20    8   37 1   
    21    8   38 1   
    22    9   10 1   
    23    9   39 1   
    24    9   40 1   
    25   10   11 1   
    26   10   41 1   
    27   10   42 1   
    28   11   12 1   
    29   11   43 1   
    30   11   44 1   
    31   12   13 1   
    32   12   45 1   
    33   12   46 1   
    34   13   14 1   
    35   13   47 1   
    36   13   48 1   
    37   14   15 1   
    38   14   49 1   
    39   14   50 1   
    40   15   16 1   
    41   15   51 1   
    42   15   52 1   
    43   16   17 2   
    44   16   53 1   
    45   17   18 1   
    46   17   54 1   
    47   18   19 1   
    48   18   55 1   
    49   18   56 1   
    50   19   20 1   
    51   19   57 1   
    52   19   58 1   
    53   20   21 1   
    54   20   59 1   
    55   20   60 1   
    56   21   22 1   
    57   21   61 1   
    58   21   62 1   
    59   22   23 1   
    60   22   63 1   
    61   22   64 1   
    62   23   24 1   
    63   23   65 1   
    64   23   66 1   
    65   24   25 1   
    66   24   67 1   
    67   24   68 1   
    68   25   69 1   
    69   25   70 1   
    70   25   71 1   
@<TRIPOS>SUBSTRUCTURE
     1 NER         1 TEMP              0 ****  ****    0 ROOT
