@<TRIPOS>MOLECULE
NER
   71    70     1     0     0
SMALL
bcc


@<TRIPOS>ATOM
      1 O1         -5.9150  -14.3550    3.0690 o         1 NER     -0.853800
      2 C1         -5.7530  -13.1120    2.8970 c         1 NER      0.907600
      3 C2         -4.6600  -12.4120    3.7230 c3        1 NER     -0.194400
      4 C3         -3.8780  -11.4340    2.8820 c3        1 NER     -0.066400
      5 C4         -2.9420  -10.5850    3.7170 c3        1 NER     -0.078400
      6 C5         -2.1870   -9.5950    2.8560 c3        1 NER     -0.083400
      7 C6         -1.3060   -8.6860    3.6860 c3        1 NER     -0.078400
      8 C7         -0.5840   -7.6800    2.8150 c3        1 NER     -0.080400
      9 C8          0.2340   -6.7140    3.6450 c3        1 NER     -0.078400
     10 C9          0.9690   -5.6970    2.7970 c3        1 NER     -0.076400
     11 C10         0.0390   -4.6550    2.2140 c3        1 NER     -0.081400
     12 C11         0.8000   -3.6110    1.4240 c3        1 NER     -0.077400
     13 C12        -0.1540   -2.6620    0.7310 c3        1 NER     -0.083400
     14 C13         0.5820   -1.5780   -0.0270 c3        1 NER     -0.073400
     15 C14        -0.3780   -0.6480   -0.7450 c3        1 NER     -0.051200
     16 C15        -1.1880    0.1620    0.1980 c2        1 NER     -0.166200
     17 C16        -2.4660    0.5140    0.0360 c2        1 NER     -0.171200
     18 C17        -3.3380    0.1710   -1.1140 c3        1 NER     -0.047200
     19 C18        -4.3190   -0.9370   -0.7740 c3        1 NER     -0.071400
     20 C19        -3.6420   -2.2890   -0.7190 c3        1 NER     -0.085400
     21 C20        -4.5920   -3.3750   -0.2650 c3        1 NER     -0.078400
     22 C21        -3.9110   -4.7280   -0.2600 c3        1 NER     -0.079400
     23 C22        -4.8350   -5.8090    0.2590 c3        1 NER     -0.079400
     24 C23        -4.1760   -7.1720    0.2110 c3        1 NER     -0.079400
     25 C24        -5.0920   -8.2480    0.7340 c3        1 NER     -0.100100
     26 O2         -6.4490  -12.4160    2.1020 o         1 NER     -0.853800
     27 H21        -5.1620  -11.8760    4.5680 hc        1 NER      0.019200
     28 H22        -3.9780  -13.1820    4.1630 hc        1 NER      0.019200
     29 H31        -3.2880  -11.9920    2.1100 hc        1 NER      0.043200
     30 H32        -4.6040  -10.7760    2.3310 hc        1 NER      0.043200
     31 H41        -2.2140  -11.2440    4.2600 hc        1 NER      0.026200
     32 H42        -3.5300  -10.0330    4.4960 hc        1 NER      0.026200
     33 H51        -2.9220   -8.9760    2.2720 hc        1 NER      0.038200
     34 H52        -1.5590  -10.1490    2.1100 hc        1 NER      0.038200
     35 H61        -1.9330   -8.1460    4.4430 hc        1 NER      0.034200
     36 H62        -0.5590   -9.3000    4.2540 hc        1 NER      0.034200
     37 H71         0.0870   -8.2200    2.0960 hc        1 NER      0.038700
     38 H72        -1.3350   -7.1130    2.2030 hc        1 NER      0.038700
     39 H81         0.9820   -7.2930    4.2500 hc        1 NER      0.036700
     40 H82        -0.4380   -6.1830    4.3710 hc        1 NER      0.036700
     41 H91         1.5110   -6.2220    1.9670 hc        1 NER      0.033200
     42 H92         1.7440   -5.1860    3.4280 hc        1 NER      0.033200
     43 H101       -0.7150   -5.1520    1.5470 hc        1 NER      0.043700
     44 H102       -0.5320   -4.1550    3.0400 hc        1 NER      0.043700
     45 H111        1.4500   -4.1140    0.6600 hc        1 NER      0.035200
     46 H112        1.4780   -3.0380    2.1090 hc        1 NER      0.035200
     47 H121       -0.8330   -2.1880    1.4890 hc        1 NER      0.045700
     48 H122       -0.8050   -3.2410    0.0230 hc        1 NER      0.045700
     49 H131        1.2230   -0.9910    0.6820 hc        1 NER      0.036700
     50 H132        1.2650   -2.0480   -0.7820 hc        1 NER      0.036700
     51 H141       -1.0430   -1.2580   -1.4150 hc        1 NER      0.047200
     52 H142        0.2100    0.0500   -1.4010 hc        1 NER      0.047200
     53 H15        -0.6450    0.4870    1.1030 ha        1 NER      0.116000
     54 H16        -2.9650    1.1140    0.8160 ha        1 NER      0.114000
     55 H171       -2.7290   -0.1310   -2.0070 hc        1 NER      0.041200
     56 H172       -3.9160    1.0900   -1.4080 hc        1 NER      0.041200
     57 H181       -4.8080   -0.7180    0.2120 hc        1 NER      0.039200
     58 H182       -5.1290   -0.9580   -1.5500 hc        1 NER      0.039200
     59 H191       -2.7670   -2.2350   -0.0150 hc        1 NER      0.042200
     60 H192       -3.2320   -2.5450   -1.7320 hc        1 NER      0.042200
     61 H201       -4.9690   -3.1400    0.7650 hc        1 NER      0.038200
     62 H202       -5.4840   -3.4060   -0.9440 hc        1 NER      0.038200
     63 H211       -3.5800   -4.9840   -1.3000 hc        1 NER      0.036700
     64 H212       -2.9880   -4.6830    0.3780 hc        1 NER      0.036700
     65 H221       -5.1340   -5.5740    1.3140 hc        1 NER      0.038700
     66 H222       -5.7740   -5.8270   -0.3540 hc        1 NER      0.038700
     67 H231       -3.8830   -7.4060   -0.8460 hc        1 NER      0.033200
     68 H232       -3.2320   -7.1520    0.8190 hc        1 NER      0.033200
     69 H241       -4.6080   -9.2530    0.6490 hc        1 NER      0.045367
     70 H242       -6.0480   -8.2720    0.1570 hc        1 NER      0.045367
     71 H243       -5.3370   -8.0740    1.8100 hc        1 NER      0.045367
@<TRIPOS>BOND
     1    1    2 1   
     2    2    3 1   
     3    2   26 1   
     4    3    4 1   
     5    3   27 1   
     6    3   28 1   
     7    4    5 1   
     8    4   29 1   
     9    4   30 1   
    10    5    6 1   
    11    5   31 1   
    12    5   32 1   
    13    6    7 1   
    14    6   33 1   
    15    6   34 1   
    16    7    8 1   
    17    7   35 1   
    18    7   36 1   
    19    8    9 1   
    20    8   37 1   
    21    8   38 1   
    22    9   10 1   
    23    9   39 1   
    24    9   40 1   
    25   10   11 1   
    26   10   41 1   
    27   10   42 1   
    28   11   12 1   
    29   11   43 1   
    30   11   44 1   
    31   12   13 1   
    32   12   45 1   
    33   12   46 1   
    34   13   14 1   
    35   13   47 1   
    36   13   48 1   
    37   14   15 1   
    38   14   49 1   
    39   14   50 1   
    40   15   16 1   
    41   15   51 1   
    42   15   52 1   
    43   16   17 2   
    44   16   53 1   
    45   17   18 1   
    46   17   54 1   
    47   18   19 1   
    48   18   55 1   
    49   18   56 1   
    50   19   20 1   
    51   19   57 1   
    52   19   58 1   
    53   20   21 1   
    54   20   59 1   
    55   20   60 1   
    56   21   22 1   
    57   21   61 1   
    58   21   62 1   
    59   22   23 1   
    60   22   63 1   
    61   22   64 1   
    62   23   24 1   
    63   23   65 1   
    64   23   66 1   
    65   24   25 1   
    66   24   67 1   
    67   24   68 1   
    68   25   69 1   
    69   25   70 1   
    70   25   71 1   
@<TRIPOS>SUBSTRUCTURE
     1 NER         1 TEMP              0 ****  ****    0 ROOT
