@<TRIPOS>MOLECULE
NES
   28    26     1     0     0
SMALL
bcc


@<TRIPOS>ATOM
      1 N4         -0.4470   -0.2150    0.7550 n3        1 NES     -0.823200
      2 C7          1.0020   -0.2150    0.7550 c3        1 NES      0.187800
      3 C8          1.5150   -0.2150    2.2090 c3        1 NES     -0.331100
      4 S           3.2740   -0.5440    2.2220 s4        1 NES      1.649500
      5 O1S         4.0030    0.4720    1.3750 os        1 NES     -1.071000
      6 O2S         3.5730   -1.9530    1.7630 o         1 NES     -0.680900
      7 O3S         3.8160   -0.5740    3.6350 o         1 NES     -0.680900
      8 O1         -3.0460    0.7430    0.3890 oh        1 NES     -0.622800
      9 C2         -2.4670   -0.0630   -0.6220 c3        1 NES      0.122400
     10 C3         -0.9350    0.0870   -0.5860 c3        1 NES      0.078200
     11 C4         -0.5510    1.5320   -0.9590 c3        1 NES      0.122400
     12 O5         -1.4290    2.0090   -1.9650 oh        1 NES     -0.622800
     13 C6         -0.2990   -0.8880   -1.5950 c3        1 NES      0.122400
     14 O7         -1.0290   -0.8540   -2.8100 oh        1 NES     -0.622800
     15 HN4        -0.7510   -1.0350    1.0120 hn        1 NES      0.355800
     16 HC71        1.3280   -1.0120    0.2950 h1        1 NES      0.047700
     17 HC72        1.3280    0.5820    0.2950 h1        1 NES      0.047700
     18 HC81        1.3440    0.6570    2.6140 h1        1 NES      0.066700
     19 HC82        1.0510   -0.9070    2.7180 h1        1 NES      0.066700
     20 HO1        -3.9090    0.5510    0.4630 ho        1 NES      0.418333
     21 HC21       -2.8020    0.2200   -1.4950 h1        1 NES      0.055200
     22 HC22       -2.7070   -0.9970   -0.4700 h1        1 NES      0.055200
     23 HC41       -0.6220    2.1010   -0.1690 h1        1 NES      0.055200
     24 HC42        0.3660    1.5490   -1.2920 h1        1 NES      0.055200
     25 HO5        -1.2140    2.8450   -2.1730 ho        1 NES      0.418333
     26 HC61        0.6250   -0.6250   -1.7640 h1        1 NES      0.055200
     27 HC62       -0.3190   -1.7930   -1.2300 h1        1 NES      0.055200
     28 HO7        -0.6980   -1.4560   -3.3710 ho        1 NES      0.418333
@<TRIPOS>BOND
     1    1    2 1   
     2    1   10 1   
     3    1   15 1   
     4    2    3 1   
     5    2   16 1   
     6    2   17 1   
     7    3    4 1   
     8    3   18 1   
     9    3   19 1   
    10    4    6 1   
    11    4    7 1   
    12    8    9 1   
    13    8   20 1   
    14    9   10 1   
    15    9   21 1   
    16    9   22 1   
    17   10   11 1   
    18   10   13 1   
    19   11   12 1   
    20   11   23 1   
    21   11   24 1   
    22   12   25 1   
    23   13   14 1   
    24   13   26 1   
    25   13   27 1   
    26   14   28 1   
@<TRIPOS>SUBSTRUCTURE
     1 NES         1 TEMP              0 ****  ****    0 ROOT
