@<TRIPOS>MOLECULE
NES
   28    27     1     0     0
SMALL
bcc


@<TRIPOS>ATOM
      1 N4          0.3950    0.9170    1.1990 n3        1 NES     -0.828200
      2 C7          1.0480    0.5800   -0.0470 c3        1 NES      0.205800
      3 C8          0.2780    0.7780   -1.3410 c3        1 NES     -0.339600
      4 S          -0.6270   -0.6350   -1.9250 s6        1 NES      1.427800
      5 O1S        -0.4110   -0.6520   -3.3180 o         1 NES     -0.751867
      6 O2S        -0.0930   -1.7540   -1.2320 o         1 NES     -0.751867
      7 O3S        -1.9680   -0.3520   -1.5380 o         1 NES     -0.751867
      8 O1          0.6050    0.9690    4.0780 oh        1 NES     -0.627467
      9 C2         -0.5140    0.4120    3.4230 c3        1 NES      0.120733
     10 C3         -0.2500   -0.1300    1.9880 c3        1 NES      0.100200
     11 C4          0.5860   -1.4290    2.0960 c3        1 NES      0.120733
     12 O5          1.8970   -1.2110    2.5840 oh        1 NES     -0.627467
     13 C6         -1.6450   -0.5860    1.4610 c3        1 NES      0.120733
     14 O7         -2.4570    0.5320    1.1730 oh        1 NES     -0.627467
     15 HN4        -0.2730    1.6550    1.0620 hn        1 NES      0.375800
     16 HC71        1.9560    1.2560   -0.0750 h1        1 NES      0.039700
     17 HC72        1.4270   -0.4820   -0.0270 h1        1 NES      0.039700
     18 HC81       -0.4320    1.6370   -1.2480 h1        1 NES      0.077200
     19 HC82        1.0120    1.0650   -2.1340 h1        1 NES      0.077200
     20 HO1         1.3840    0.4680    3.8030 ho        1 NES      0.426000
     21 HC21       -0.9110   -0.4340    4.0480 h1        1 NES      0.053700
     22 HC22       -1.2770    1.2360    3.3830 h1        1 NES      0.053700
     23 HC41        0.1140   -2.1020    2.8610 h1        1 NES      0.053700
     24 HC42        0.6130   -1.9570    1.1010 h1        1 NES      0.053700
     25 HO5         2.3630   -0.6790    1.9270 ho        1 NES      0.426000
     26 HC61       -1.5170   -1.2460    0.5590 h1        1 NES      0.053700
     27 HC62       -2.1700   -1.1600    2.2710 h1        1 NES      0.053700
     28 HO7        -2.5540    0.5720    0.2070 ho        1 NES      0.426000
@<TRIPOS>BOND
     1    1    2 1   
     2    1   10 1   
     3    1   15 1   
     4    2    3 1   
     5    2   16 1   
     6    2   17 1   
     7    3    4 1   
     8    3   18 1   
     9    3   19 1   
    10    4    5 1   
    11    4    6 1   
    12    4    7 1   
    13    8    9 1   
    14    8   20 1   
    15    9   10 1   
    16    9   21 1   
    17    9   22 1   
    18   10   11 1   
    19   10   13 1   
    20   11   12 1   
    21   11   23 1   
    22   11   24 1   
    23   12   25 1   
    24   13   14 1   
    25   13   26 1   
    26   13   27 1   
    27   14   28 1   
@<TRIPOS>SUBSTRUCTURE
     1 NES         1 TEMP              0 ****  ****    0 ROOT
