@<TRIPOS>MOLECULE
NES
   28    27     1     0     0
SMALL
bcc


@<TRIPOS>ATOM
      1 N4         -0.2570   -0.3870    0.1270 n3        1 NES     -0.828200
      2 C7          0.9580   -0.9540    0.6720 c3        1 NES      0.205800
      3 C8          1.9190   -0.0320    1.4000 c3        1 NES     -0.339600
      4 S           3.2060    0.6840    0.4050 s6        1 NES      1.427800
      5 O1S         4.3640    0.6140    1.2070 o         1 NES     -0.751867
      6 O2S         3.2610   -0.0950   -0.7810 o         1 NES     -0.751867
      7 O3S         2.7370    2.0060    0.1600 o         1 NES     -0.751867
      8 O1         -2.6640   -0.8820   -1.3880 oh        1 NES     -0.627467
      9 C2         -1.8010    0.1920   -1.6920 c3        1 NES      0.120733
     10 C3         -0.3130   -0.0070   -1.2830 c3        1 NES      0.100200
     11 C4          0.3250   -1.0520   -2.2320 c3        1 NES      0.120733
     12 O5         -0.2100   -2.3530   -2.0720 oh        1 NES     -0.627467
     13 C6          0.3910    1.3410   -1.6300 c3        1 NES      0.120733
     14 O7          0.0030    2.3500   -0.7230 oh        1 NES     -0.627467
     15 HN4        -0.5550    0.4040    0.6700 hn        1 NES      0.375800
     16 HC71        0.5930   -1.7310    1.4100 h1        1 NES      0.039700
     17 HC72        1.5370   -1.5030   -0.1250 h1        1 NES      0.039700
     18 HC81        2.4070   -0.6240    2.2140 h1        1 NES      0.077200
     19 HC82        1.3640    0.7950    1.9060 h1        1 NES      0.077200
     20 HO1        -2.1600   -1.7000   -1.4900 ho        1 NES      0.426000
     21 HC21       -2.2270    1.0800   -1.1510 h1        1 NES      0.053700
     22 HC22       -1.8360    0.3780   -2.8000 h1        1 NES      0.053700
     23 HC41        1.4440   -1.0630   -2.1020 h1        1 NES      0.053700
     24 HC42        0.0760   -0.7790   -3.2930 h1        1 NES      0.053700
     25 HO5         0.0280   -2.6550   -1.1870 ho        1 NES      0.426000
     26 HC61        0.0490    1.6780   -2.6460 h1        1 NES      0.053700
     27 HC62        1.5060    1.2000   -1.6390 h1        1 NES      0.053700
     28 HO7         0.7790    2.5520   -0.1740 ho        1 NES      0.426000
@<TRIPOS>BOND
     1    1    2 1   
     2    1   10 1   
     3    1   15 1   
     4    2    3 1   
     5    2   16 1   
     6    2   17 1   
     7    3    4 1   
     8    3   18 1   
     9    3   19 1   
    10    4    5 1   
    11    4    6 1   
    12    4    7 1   
    13    8    9 1   
    14    8   20 1   
    15    9   10 1   
    16    9   21 1   
    17    9   22 1   
    18   10   11 1   
    19   10   13 1   
    20   11   12 1   
    21   11   23 1   
    22   11   24 1   
    23   12   25 1   
    24   13   14 1   
    25   13   26 1   
    26   13   27 1   
    27   14   28 1   
@<TRIPOS>SUBSTRUCTURE
     1 NES         1 TEMP              0 ****  ****    0 ROOT
