@<TRIPOS>MOLECULE
NEU
   29    26     1     0     0
SMALL
bcc


@<TRIPOS>ATOM
      1 N2         -3.5680    0.3500   -1.8190 n2        1 NEU     -0.815800
      2 C1         -2.2290    0.2990   -1.8220 c1        1 NEU      0.822900
      3 C10        -1.5240    0.3240   -0.6100 cg        1 NEU     -0.102200
      4 N9         -0.1650    0.2950   -0.6180 n1        1 NEU     -0.447600
      5 C8          0.5140    0.3400    0.5370 c1        1 NEU      0.230700
      6 C7         -0.1690    0.4170    1.7460 c1        1 NEU      0.347300
      7 N6         -1.5070    0.4460    1.7570 n1        1 NEU     -0.424800
      8 C5         -2.2010    0.4000    0.5740 ch        1 NEU      0.142000
      9 N4         -3.5660    0.4520    0.5760 nf        1 NEU     -0.503400
     10 C3         -4.2570    0.4270   -0.6180 c1        1 NEU      0.466400
     11 N13        -5.6930    0.3420   -0.4390 n3        1 NEU     -0.432400
     12 C16         1.9800    0.5290    0.4510 c3        1 NEU      0.179200
     13 O21         2.2940    1.3710   -0.6860 oh        1 NEU     -0.586800
     14 C26         2.6480   -0.8180    0.2800 c3        1 NEU      0.112100
     15 O22         2.1900   -1.6920    1.2660 oh        1 NEU     -0.603800
     16 C28         4.1610   -0.6560    0.4000 c3        1 NEU      0.094400
     17 O24         4.7670   -1.8600    0.1810 oh        1 NEU     -0.614800
     18 O11        -1.6160    0.1910   -2.8930 o         1 NEU     -0.539500
     19 HN2        -4.0500    0.3340   -2.6490 hn        1 NEU      0.496400
     20 H7          0.3270    0.4480    2.5870 ha        1 NEU      0.125500
     21 H131       -6.0670    0.5090    0.3930 hn        1 NEU      0.272700
     22 H132       -6.2120    0.1820   -1.1280 hn        1 NEU      0.272700
     23 H16         2.3090    0.9620    1.2860 h1        1 NEU      0.094700
     24 H21         2.4840    2.2190   -0.3950 ho        1 NEU      0.422000
     25 H26         2.4290   -1.1790   -0.6050 h1        1 NEU      0.064700
     26 H22         2.2030   -2.5370    0.9480 ho        1 NEU      0.427000
     27 H281        4.3880   -0.3330    1.3090 h1        1 NEU      0.044200
     28 H282        4.4790    0.0090   -0.2800 h1        1 NEU      0.044200
     29 H24         5.6510   -1.7700    0.2710 ho        1 NEU      0.411000
@<TRIPOS>BOND
     1    1    2 2   
     2    1   19 1   
     3    2   18 2   
     4    3    4 1   
     5    3    8 3   
     6    4    5 3   
     7    5   12 1   
     8    6    7 3   
     9    6   20 1   
    10    8    9 1   
    11    9   10 2   
    12   10   11 2   
    13   11   21 1   
    14   11   22 1   
    15   12   13 1   
    16   12   14 1   
    17   12   23 1   
    18   13   24 1   
    19   14   15 1   
    20   14   16 1   
    21   14   25 1   
    22   15   26 1   
    23   16   17 1   
    24   16   27 1   
    25   16   28 1   
    26   17   29 1   
@<TRIPOS>SUBSTRUCTURE
     1 NEU         1 TEMP              0 ****  ****    0 ROOT
