@<TRIPOS>MOLECULE
NEU
   29    30     1     0     0
SMALL
bcc


@<TRIPOS>ATOM
      1 N2          3.4670   -1.2840    0.1670 n         1 NEU     -0.511400
      2 C1          2.1100   -1.4550    0.5020 c         1 NEU      0.622000
      3 C10         1.2440   -0.2660    0.3120 ca        1 NEU      0.170500
      4 N9         -0.0790   -0.3650    0.6120 nb        1 NEU     -0.568000
      5 C8         -0.8240    0.7330    0.4310 ca        1 NEU      0.235300
      6 C7         -0.2400    1.9480   -0.0700 ca        1 NEU      0.363900
      7 N6          1.0470    2.0740   -0.3710 nb        1 NEU     -0.625000
      8 C5          1.8410    0.9520   -0.1810 ca        1 NEU      0.572000
      9 N4          3.1980    1.0440   -0.4860 nc        1 NEU     -0.737700
     10 C3          3.9650   -0.0420   -0.2770 cd        1 NEU      0.692800
     11 N13         5.3580    0.0710   -0.4530 nh        1 NEU     -0.894800
     12 C16        -2.3050    0.7150    0.7360 c3        1 NEU      0.111800
     13 O21        -2.5940    0.1540    1.9990 oh        1 NEU     -0.586800
     14 C26        -3.0700   -0.0280   -0.3790 c3        1 NEU      0.112100
     15 O22        -2.9570    0.7660   -1.5490 oh        1 NEU     -0.603800
     16 C28        -4.5430   -0.1910    0.0170 c3        1 NEU      0.094400
     17 O24        -5.1650   -0.8670   -1.0650 oh        1 NEU     -0.614800
     18 O11         1.7550   -2.5680    0.9130 o         1 NEU     -0.581500
     19 HN2         4.0830   -2.0490    0.3390 hn        1 NEU      0.338500
     20 H7         -0.8720    2.8420   -0.2350 h4        1 NEU      0.046100
     21 H131        5.6640    0.9300   -0.8590 hn        1 NEU      0.427800
     22 H132        5.8250   -0.7390   -0.7920 hn        1 NEU      0.427800
     23 H16        -2.6820    1.7760    0.8090 h1        1 NEU      0.094700
     24 H21        -2.2620   -0.7540    2.0110 ho        1 NEU      0.422000
     25 H26        -2.6170   -1.0420   -0.5610 h1        1 NEU      0.064700
     26 H22        -3.5160    0.3470   -2.2170 ho        1 NEU      0.427000
     27 H281       -4.6230   -0.7930    0.9590 h1        1 NEU      0.044200
     28 H282       -5.0180    0.8140    0.1690 h1        1 NEU      0.044200
     29 H24        -6.0960   -0.9640   -0.8340 ho        1 NEU      0.411000
@<TRIPOS>BOND
     1    1    2 1   
     2    1   10 1   
     3    1   19 1   
     4    2    3 1   
     5    2   18 2   
     6    3    4 ar  
     7    3    8 ar  
     8    4    5 ar  
     9    5    6 ar  
    10    5   12 1   
    11    6    7 ar  
    12    6   20 1   
    13    7    8 ar  
    14    8    9 1   
    15    9   10 2   
    16   10   11 1   
    17   11   21 1   
    18   11   22 1   
    19   12   13 1   
    20   12   14 1   
    21   12   23 1   
    22   13   24 1   
    23   14   15 1   
    24   14   16 1   
    25   14   25 1   
    26   15   26 1   
    27   16   17 1   
    28   16   27 1   
    29   16   28 1   
    30   17   29 1   
@<TRIPOS>SUBSTRUCTURE
     1 NEU         1 TEMP              0 ****  ****    0 ROOT
