@<TRIPOS>MOLECULE
NEU
   29    30     1     0     0
SMALL
bcc


@<TRIPOS>ATOM
      1 N2         -0.1060    0.4330    0.0620 ns        1 NEU     -0.511400
      2 C1          1.3010    0.5040    0.0380 c         1 NEU      0.622000
      3 C10         1.9840    0.1870    1.3160 ca        1 NEU      0.170500
      4 N9          3.3420    0.2460    1.3640 nb        1 NEU     -0.568000
      5 C8          3.9190   -0.0460    2.5360 ca        1 NEU      0.235300
      6 C7          3.1270   -0.4190    3.6780 ca        1 NEU      0.363900
      7 N6          1.8010   -0.4890    3.6590 nb        1 NEU     -0.625000
      8 C5          1.1800   -0.1800    2.4570 ca        1 NEU      0.572000
      9 N4         -0.2110   -0.2270    2.4010 nc        1 NEU     -0.737700
     10 C3         -0.8030    0.0410    1.2220 cd        1 NEU      0.692800
     11 N13        -2.1970   -0.1320    1.1120 nv        1 NEU     -0.894800
     12 C16         5.4230   -0.0050    2.6840 c3        1 NEU      0.111800
     13 O21         5.9930    1.1690    2.1470 oh        1 NEU     -0.586800
     14 C26         6.0550   -1.2600    2.0460 c3        1 NEU      0.112100
     15 O22         5.6560   -2.3650    2.8420 oh        1 NEU     -0.603800
     16 C28         7.5830   -1.1310    2.0380 c3        1 NEU      0.094400
     17 O24         8.0720   -2.3280    1.4520 oh        1 NEU     -0.614800
     18 O11         1.8420    0.8290   -1.0270 o         1 NEU     -0.581500
     19 HN2        -0.5890    0.5860   -0.7970 hn        1 NEU      0.338500
     20 H7          3.6180   -0.6810    4.6340 h4        1 NEU      0.046100
     21 H131       -2.6710    0.4950    0.5020 hn        1 NEU      0.427800
     22 H132       -2.6700   -0.3170    1.9710 hn        1 NEU      0.427800
     23 H16         5.6880    0.0330    3.7810 h1        1 NEU      0.094700
     24 H21         5.7720    1.2120    1.2070 ho        1 NEU      0.422000
     25 H26         5.6850   -1.3960    0.9920 h1        1 NEU      0.064700
     26 H22         6.1270   -3.1350    2.4940 ho        1 NEU      0.427000
     27 H281        7.8900   -0.2400    1.4320 h1        1 NEU      0.043700
     28 H282        7.9690   -1.0270    3.0860 h1        1 NEU      0.043700
     29 H24         9.0340   -2.2660    1.4560 ho        1 NEU      0.411000
@<TRIPOS>BOND
     1    1    2 1   
     2    1   10 1   
     3    1   19 1   
     4    2    3 1   
     5    2   18 2   
     6    3    4 ar  
     7    3    8 ar  
     8    4    5 ar  
     9    5    6 ar  
    10    5   12 1   
    11    6    7 ar  
    12    6   20 1   
    13    7    8 ar  
    14    8    9 1   
    15    9   10 2   
    16   10   11 1   
    17   11   21 1   
    18   11   22 1   
    19   12   13 1   
    20   12   14 1   
    21   12   23 1   
    22   13   24 1   
    23   14   15 1   
    24   14   16 1   
    25   14   25 1   
    26   15   26 1   
    27   16   17 1   
    28   16   27 1   
    29   16   28 1   
    30   17   29 1   
@<TRIPOS>SUBSTRUCTURE
     1 NEU         1 TEMP              0 ****  ****    0 ROOT
