@<TRIPOS>MOLECULE
NEU
   30    31     1     0     0
SMALL
bcc


@<TRIPOS>ATOM
      1 N2         -0.3150    1.0430    0.3410 n         1 NEU     -0.511400
      2 C1          1.0890    1.3070    0.3500 c         1 NEU      0.622000
      3 C10         1.8930    0.4480    1.2600 ca        1 NEU      0.251500
      4 N9          3.2410    0.6350    1.3000 nb        1 NEU     -0.577000
      5 C8          3.9450   -0.1540    2.1280 ca        1 NEU      0.309300
      6 C7          3.2770   -1.1350    2.9530 ca        1 NEU      0.348900
      7 N6          1.9640   -1.3380    2.9300 nb        1 NEU     -0.576000
      8 C5          1.2380   -0.5450    2.0620 ca        1 NEU      0.490000
      9 N4         -0.1580   -0.7370    1.9920 nc        1 NEU     -0.602700
     10 C3         -0.8270    0.0400    1.1620 cd        1 NEU      0.532800
     11 N13        -2.3100   -0.2030    1.1150 n4        1 NEU     -0.803600
     12 C16         5.4530    0.0090    2.2470 c3        1 NEU      0.094800
     13 O21         6.0370    0.5690    1.0900 oh        1 NEU     -0.573800
     14 C26         6.1510   -1.3540    2.4620 c3        1 NEU      0.149100
     15 O22         5.9780   -1.6700    3.8360 oh        1 NEU     -0.629800
     16 C28         7.6370   -1.2610    2.0960 c3        1 NEU      0.105400
     17 O24         8.2010   -2.5030    2.4880 oh        1 NEU     -0.619800
     18 O11         1.4870    2.2080   -0.3840 o         1 NEU     -0.491500
     19 HN2        -0.8880    1.5950   -0.2620 hn        1 NEU      0.354500
     20 H7          3.8590   -1.7680    3.6630 h4        1 NEU      0.102100
     21 H131       -2.5840   -0.4740    0.1630 hn        1 NEU      0.485467
     22 H132       -2.8080    0.6510    1.3940 hn        1 NEU      0.485467
     23 H16         5.6380    0.6660    3.1480 h1        1 NEU      0.086700
     24 H21         5.7160    1.4770    1.0020 ho        1 NEU      0.431000
     25 H26         5.6600   -2.1510    1.8380 h1        1 NEU      0.061700
     26 H22         6.6510   -2.3250    4.0710 ho        1 NEU      0.450000
     27 H281        8.1230   -0.4190    2.6550 h1        1 NEU      0.056200
     28 H282        7.7510   -1.1010    0.9930 h1        1 NEU      0.056200
     29 H24         9.1400   -2.4660    2.2710 ho        1 NEU      0.426000
     30 H133       -2.5550   -0.9660    1.7680 hn        1 NEU      0.485467
@<TRIPOS>BOND
     1    1    2 1   
     2    1   10 1   
     3    1   19 1   
     4    2    3 1   
     5    2   18 2   
     6    3    4 ar  
     7    3    8 ar  
     8    4    5 ar  
     9    5    6 ar  
    10    5   12 1   
    11    6    7 ar  
    12    6   20 1   
    13    7    8 ar  
    14    8    9 1   
    15    9   10 2   
    16   10   11 1   
    17   11   21 1   
    18   11   22 1   
    19   11   30 1   
    20   12   13 1   
    21   12   14 1   
    22   12   23 1   
    23   13   24 1   
    24   14   15 1   
    25   14   16 1   
    26   14   25 1   
    27   15   26 1   
    28   16   17 1   
    29   16   27 1   
    30   16   28 1   
    31   17   29 1   
@<TRIPOS>SUBSTRUCTURE
     1 NEU         1 TEMP              0 ****  ****    0 ROOT
