@<TRIPOS>MOLECULE
NEV
   34    37     1     0     0
SMALL
bcc


@<TRIPOS>ATOM
      1 N1         -1.9010    0.4960    1.3520 nb        1 NEV     -0.660000
      2 C2         -1.8890    0.9460    2.6140 ca        1 NEV      0.392200
      3 C3         -0.7830    0.8380    3.4700 ca        1 NEV     -0.232300
      4 C4          0.3830    0.2320    3.0010 ca        1 NEV     -0.070300
      5 C4A         0.4120   -0.2640    1.6690 ca        1 NEV     -0.037700
      6 N5          1.5640   -0.8950    1.1930 n         1 NEV     -0.460100
      7 C6          2.0750   -0.8640   -0.0970 c         1 NEV      0.737100
      8 C6A         1.4590   -0.0200   -1.1460 ca        1 NEV     -0.250900
      9 C7          2.3130    0.6640   -2.0220 ca        1 NEV     -0.034000
     10 C8          1.7680    1.4470   -3.0340 ca        1 NEV     -0.269300
     11 C9          0.3660    1.5090   -3.1380 ca        1 NEV      0.434200
     12 N10        -0.4800    0.8600   -2.3250 nb        1 NEV     -0.693000
     13 C10         0.0480    0.0830   -1.3330 ca        1 NEV      0.647200
     14 N11        -0.7770   -0.6930   -0.4500 na        1 NEV     -0.694000
     15 C11        -0.7840   -0.1210    0.8770 ca        1 NEV      0.576200
     16 C12         1.5600    0.1030    3.8910 c3        1 NEV     -0.061800
     17 O13         3.1110   -1.5250   -0.3150 o         1 NEV     -0.633500
     18 C14        -2.0330   -1.2310   -0.8860 cx        1 NEV      0.151500
     19 C15        -3.1510   -0.5290   -1.6270 cx        1 NEV     -0.129900
     20 C16        -2.3580   -1.6010   -2.3160 cx        1 NEV     -0.129900
     21 H2         -2.8250    1.4260    2.9520 h4        1 NEV      0.028100
     22 H3         -0.8360    1.2290    4.4950 ha        1 NEV      0.148000
     23 HN5         2.0740   -1.4410    1.8570 hn        1 NEV      0.331500
     24 H7          3.4040    0.5620   -1.9010 ha        1 NEV      0.162000
     25 H8          2.4060    1.9980   -3.7370 ha        1 NEV      0.152000
     26 H9         -0.1170    2.1230   -3.9220 h4        1 NEV      0.028100
     27 H121        1.7790   -0.9750    4.1000 hc        1 NEV      0.052700
     28 H122        2.4650    0.5630    3.4200 hc        1 NEV      0.052700
     29 H123        1.3790    0.6140    4.8690 hc        1 NEV      0.052700
     30 H14        -2.3530   -1.9640   -0.1030 h1        1 NEV      0.094700
     31 H151       -4.1860   -0.7460   -1.3070 hc        1 NEV      0.078200
     32 H152       -3.0370    0.5200   -1.9480 hc        1 NEV      0.078200
     33 H161       -1.6790   -1.3290   -3.1400 hc        1 NEV      0.078200
     34 H162       -2.8200   -2.5920   -2.4840 hc        1 NEV      0.078200
@<TRIPOS>BOND
     1    1    2 ar  
     2    1   15 ar  
     3    2    3 ar  
     4    2   21 1   
     5    3    4 ar  
     6    3   22 1   
     7    4    5 ar  
     8    4   16 1   
     9    5    6 1   
    10    5   15 ar  
    11    6    7 1   
    12    6   23 1   
    13    7    8 1   
    14    7   17 2   
    15    8    9 ar  
    16    8   13 ar  
    17    9   10 ar  
    18    9   24 1   
    19   10   11 ar  
    20   10   25 1   
    21   11   12 ar  
    22   11   26 1   
    23   12   13 ar  
    24   13   14 1   
    25   14   15 1   
    26   14   18 1   
    27   16   27 1   
    28   16   28 1   
    29   16   29 1   
    30   18   19 1   
    31   18   20 1   
    32   18   30 1   
    33   19   20 1   
    34   19   31 1   
    35   19   32 1   
    36   20   33 1   
    37   20   34 1   
@<TRIPOS>SUBSTRUCTURE
     1 NEV         1 TEMP              0 ****  ****    0 ROOT
