@<TRIPOS>MOLECULE
NEV
   34    37     1     0     0
SMALL
bcc


@<TRIPOS>ATOM
      1 N1         -0.2560    0.1540    0.0480 nb        1 NEV     -0.660000
      2 C2          1.0830    0.1440   -0.0080 ca        1 NEV      0.392200
      3 C3          1.9110    0.0740    1.1230 ca        1 NEV     -0.232300
      4 C4          1.3280    0.0100    2.3880 ca        1 NEV     -0.070300
      5 C4A        -0.0890    0.0230    2.4940 ca        1 NEV     -0.037700
      6 N5         -0.6880   -0.0160    3.7560 n         1 NEV     -0.460100
      7 C6         -1.8780   -0.6350    4.1100 c         1 NEV      0.737100
      8 C6A        -2.6370   -1.4540    3.1370 ca        1 NEV     -0.250900
      9 C7         -3.2150   -2.6460    3.5930 ca        1 NEV     -0.034000
     10 C8         -3.9540   -3.4280    2.7110 ca        1 NEV     -0.269300
     11 C9         -4.0960   -2.9740    1.3870 ca        1 NEV      0.434200
     12 N10        -3.5660   -1.8350    0.9190 nb        1 NEV     -0.693000
     13 C10        -2.8450   -1.0580    1.7820 ca        1 NEV      0.647200
     14 N11        -2.2880    0.2060    1.3870 na        1 NEV     -0.694000
     15 C11        -0.8490    0.1160    1.2730 ca        1 NEV      0.576200
     16 C12         2.1850   -0.0590    3.5950 c3        1 NEV     -0.061800
     17 O13        -2.2460   -0.5250    5.2980 o         1 NEV     -0.633500
     18 C14        -2.9250    1.0240    0.3980 cx        1 NEV      0.152500
     19 C15        -3.4580    0.6170   -0.9590 cx        1 NEV     -0.129900
     20 C16        -4.4120    1.0350    0.1210 cx        1 NEV     -0.129900
     21 H2          1.5120    0.1900   -1.0260 h4        1 NEV      0.028100
     22 H3          3.0040    0.0680    1.0090 ha        1 NEV      0.148000
     23 HN5        -0.2060    0.4660    4.4870 hn        1 NEV      0.331500
     24 H7         -3.0840   -2.9400    4.6480 ha        1 NEV      0.162000
     25 H8         -4.4190   -4.3680    3.0340 ha        1 NEV      0.152000
     26 H9         -4.6690   -3.5620    0.6450 h4        1 NEV      0.028100
     27 H121        2.0540    0.8590    4.2230 hc        1 NEV      0.052700
     28 H122        3.2640   -0.1350    3.3150 hc        1 NEV      0.052700
     29 H123        1.9220   -0.9520    4.2170 hc        1 NEV      0.052700
     30 H14        -2.4270    2.0250    0.4440 h1        1 NEV      0.094700
     31 H151       -3.4290   -0.4390   -1.2780 hc        1 NEV      0.078200
     32 H152       -3.2690    1.3020   -1.8060 hc        1 NEV      0.078200
     33 H161       -4.9030    2.0230    0.0570 hc        1 NEV      0.078200
     34 H162       -5.0790    0.2840    0.5770 hc        1 NEV      0.078200
@<TRIPOS>BOND
     1    1    2 ar  
     2    1   15 ar  
     3    2    3 ar  
     4    2   21 1   
     5    3    4 ar  
     6    3   22 1   
     7    4    5 ar  
     8    4   16 1   
     9    5    6 1   
    10    5   15 ar  
    11    6    7 1   
    12    6   23 1   
    13    7    8 1   
    14    7   17 2   
    15    8    9 ar  
    16    8   13 ar  
    17    9   10 ar  
    18    9   24 1   
    19   10   11 ar  
    20   10   25 1   
    21   11   12 ar  
    22   11   26 1   
    23   12   13 ar  
    24   13   14 1   
    25   14   15 1   
    26   14   18 1   
    27   16   27 1   
    28   16   28 1   
    29   16   29 1   
    30   18   19 1   
    31   18   20 1   
    32   18   30 1   
    33   19   20 1   
    34   19   31 1   
    35   19   32 1   
    36   20   33 1   
    37   20   34 1   
@<TRIPOS>SUBSTRUCTURE
     1 NEV         1 TEMP              0 ****  ****    0 ROOT
