@<TRIPOS>MOLECULE
NEV
   34    37     1     0     0
SMALL
bcc


@<TRIPOS>ATOM
      1 N1         -0.2530    0.1500    0.0490 nb        1 NEV     -0.660000
      2 C2          1.0860    0.1390   -0.0050 ca        1 NEV      0.392200
      3 C3          1.9120    0.0730    1.1270 ca        1 NEV     -0.232300
      4 C4          1.3270    0.0120    2.3920 ca        1 NEV     -0.070300
      5 C4A        -0.0900    0.0250    2.4950 ca        1 NEV     -0.037700
      6 N5         -0.6910   -0.0120    3.7560 n         1 NEV     -0.460100
      7 C6         -1.8820   -0.6300    4.1100 c         1 NEV      0.737100
      8 C6A        -2.6390   -1.4510    3.1370 ca        1 NEV     -0.250900
      9 C7         -3.2180   -2.6420    3.5950 ca        1 NEV     -0.034000
     10 C8         -3.9560   -3.4250    2.7140 ca        1 NEV     -0.269300
     11 C9         -4.0950   -2.9750    1.3890 ca        1 NEV      0.434200
     12 N10        -3.5640   -1.8370    0.9190 nb        1 NEV     -0.693000
     13 C10        -2.8450   -1.0580    1.7810 ca        1 NEV      0.647200
     14 N11        -2.2870    0.2040    1.3840 na        1 NEV     -0.694000
     15 C11        -0.8480    0.1150    1.2720 ca        1 NEV      0.576200
     16 C12         2.1820   -0.0540    3.6000 c3        1 NEV     -0.061800
     17 O13        -2.2520   -0.5180    5.2970 o         1 NEV     -0.633500
     18 C14        -2.9230    1.0210    0.3920 cx        1 NEV      0.152500
     19 C15        -3.4540    0.6110   -0.9650 cx        1 NEV     -0.129900
     20 C16        -4.4090    1.0310    0.1130 cx        1 NEV     -0.129900
     21 H2          1.5170    0.1830   -1.0220 h4        1 NEV      0.028100
     22 H3          3.0050    0.0660    1.0160 ha        1 NEV      0.148000
     23 HN5        -0.2110    0.4720    4.4870 hn        1 NEV      0.331500
     24 H7         -3.0880   -2.9340    4.6510 ha        1 NEV      0.162000
     25 H8         -4.4210   -4.3650    3.0380 ha        1 NEV      0.152000
     26 H9         -4.6670   -3.5650    0.6470 h4        1 NEV      0.028100
     27 H121        2.0500    0.8650    4.2260 hc        1 NEV      0.052700
     28 H122        1.9190   -0.9460    4.2240 hc        1 NEV      0.052700
     29 H123        3.2620   -0.1310    3.3220 hc        1 NEV      0.052700
     30 H14        -2.4240    2.0220    0.4370 h1        1 NEV      0.094700
     31 H151       -3.2640    1.2940   -1.8130 hc        1 NEV      0.078200
     32 H152       -3.4240   -0.4460   -1.2810 hc        1 NEV      0.078200
     33 H161       -5.0770    0.2810    0.5700 hc        1 NEV      0.078200
     34 H162       -4.9000    2.0200    0.0460 hc        1 NEV      0.078200
@<TRIPOS>BOND
     1    1    2 ar  
     2    1   15 ar  
     3    2    3 ar  
     4    2   21 1   
     5    3    4 ar  
     6    3   22 1   
     7    4    5 ar  
     8    4   16 1   
     9    5    6 1   
    10    5   15 ar  
    11    6    7 1   
    12    6   23 1   
    13    7    8 1   
    14    7   17 2   
    15    8    9 ar  
    16    8   13 ar  
    17    9   10 ar  
    18    9   24 1   
    19   10   11 ar  
    20   10   25 1   
    21   11   12 ar  
    22   11   26 1   
    23   12   13 ar  
    24   13   14 1   
    25   14   15 1   
    26   14   18 1   
    27   16   27 1   
    28   16   28 1   
    29   16   29 1   
    30   18   19 1   
    31   18   20 1   
    32   18   30 1   
    33   19   20 1   
    34   19   31 1   
    35   19   32 1   
    36   20   33 1   
    37   20   34 1   
@<TRIPOS>SUBSTRUCTURE
     1 NEV         1 TEMP              0 ****  ****    0 ROOT
