@<TRIPOS>MOLECULE
NEV
   34    37     1     0     0
SMALL
bcc


@<TRIPOS>ATOM
      1 N1         -0.2550    0.1490    0.0470 nb        1 NEV     -0.660000
      2 C2          1.0830    0.1390   -0.0100 ca        1 NEV      0.392200
      3 C3          1.9110    0.0730    1.1210 ca        1 NEV     -0.232300
      4 C4          1.3280    0.0130    2.3870 ca        1 NEV     -0.070300
      5 C4A        -0.0890    0.0260    2.4930 ca        1 NEV     -0.037700
      6 N5         -0.6880   -0.0100    3.7550 ns        1 NEV     -0.460100
      7 C6         -1.8780   -0.6280    4.1110 c         1 NEV      0.737100
      8 C6A        -2.6360   -1.4500    3.1390 ca        1 NEV     -0.250900
      9 C7         -3.2140   -2.6410    3.6000 ca        1 NEV     -0.034000
     10 C8         -3.9540   -3.4250    2.7200 ca        1 NEV     -0.269300
     11 C9         -4.0950   -2.9760    1.3940 ca        1 NEV      0.434200
     12 N10        -3.5650   -1.8380    0.9230 nb        1 NEV     -0.693000
     13 C10        -2.8450   -1.0580    1.7840 ca        1 NEV      0.647200
     14 N11        -2.2880    0.2040    1.3850 na        1 NEV     -0.694000
     15 C11        -0.8490    0.1150    1.2710 ca        1 NEV      0.576200
     16 C12         2.1840   -0.0530    3.5940 c3        1 NEV     -0.061800
     17 O13        -2.2470   -0.5150    5.2980 o         1 NEV     -0.633500
     18 C14        -2.9250    1.0200    0.3930 cx        1 NEV      0.152500
     19 C15        -3.4580    0.6080   -0.9630 cx        1 NEV     -0.129900
     20 C16        -4.4120    1.0290    0.1160 cx        1 NEV     -0.129900
     21 H2          1.5130    0.1820   -1.0270 h4        1 NEV      0.028100
     22 H3          3.0040    0.0660    1.0080 ha        1 NEV      0.148000
     23 HN5        -0.2070    0.4740    4.4850 hn        1 NEV      0.331500
     24 H7         -3.0830   -2.9320    4.6550 ha        1 NEV      0.162000
     25 H8         -4.4180   -4.3650    3.0450 ha        1 NEV      0.152000
     26 H9         -4.6680   -3.5670    0.6540 h4        1 NEV      0.028100
     27 H121        1.9220   -0.9440    4.2190 hc        1 NEV      0.052700
     28 H122        3.2640   -0.1300    3.3140 hc        1 NEV      0.052700
     29 H123        2.0530    0.8680    4.2190 hc        1 NEV      0.052700
     30 H14        -2.4270    2.0210    0.4360 h1        1 NEV      0.094700
     31 H151       -3.2690    1.2900   -1.8120 hc        1 NEV      0.078200
     32 H152       -3.4280   -0.4490   -1.2780 hc        1 NEV      0.078200
     33 H161       -5.0790    0.2800    0.5740 hc        1 NEV      0.078200
     34 H162       -4.9030    2.0170    0.0490 hc        1 NEV      0.078200
@<TRIPOS>BOND
     1    1    2 ar  
     2    1   15 ar  
     3    2    3 ar  
     4    2   21 1   
     5    3    4 ar  
     6    3   22 1   
     7    4    5 ar  
     8    4   16 1   
     9    5    6 1   
    10    5   15 ar  
    11    6    7 1   
    12    6   23 1   
    13    7    8 1   
    14    7   17 2   
    15    8    9 ar  
    16    8   13 ar  
    17    9   10 ar  
    18    9   24 1   
    19   10   11 ar  
    20   10   25 1   
    21   11   12 ar  
    22   11   26 1   
    23   12   13 ar  
    24   13   14 1   
    25   14   15 1   
    26   14   18 1   
    27   16   27 1   
    28   16   28 1   
    29   16   29 1   
    30   18   19 1   
    31   18   20 1   
    32   18   30 1   
    33   19   20 1   
    34   19   31 1   
    35   19   32 1   
    36   20   33 1   
    37   20   34 1   
@<TRIPOS>SUBSTRUCTURE
     1 NEV         1 TEMP              0 ****  ****    0 ROOT
