@<TRIPOS>MOLECULE
NEW
   24    25     1     0     0
SMALL
bcc


@<TRIPOS>ATOM
      1 O2          4.9150   -0.0760    0.1500 oh        1 NEW     -0.473100
      2 C9          3.5460   -0.0240    0.1110 ca        1 NEW      0.150100
      3 C8          2.8240    1.1170   -0.2910 ca        1 NEW     -0.037600
      4 CL2         3.6400    2.5330   -0.7650 cl        1 NEW     -0.069400
      5 C10         2.8380   -1.1830    0.4970 ca        1 NEW     -0.037600
      6 CL4         3.6480   -2.5890    0.9930 cl        1 NEW     -0.069400
      7 C11         1.4440   -1.1850    0.4750 ca        1 NEW     -0.078500
      8 C12         0.7310   -0.0470    0.0750 cp        1 NEW     -0.056000
      9 C7          1.4290    1.1040   -0.3080 ca        1 NEW     -0.078500
     10 C3         -0.7300   -0.0620    0.0570 cp        1 NEW     -0.056000
     11 C2         -1.4530    1.0440    0.5180 ca        1 NEW     -0.078500
     12 C4         -1.4180   -1.1840   -0.4240 ca        1 NEW     -0.078500
     13 C5         -2.8130   -1.2110   -0.4460 ca        1 NEW     -0.037600
     14 CL5        -3.5920   -2.5950   -1.0410 cl        1 NEW     -0.069400
     15 C6         -3.5450   -0.0980    0.0200 ca        1 NEW      0.150100
     16 O1         -4.9120   -0.1760   -0.0240 oh        1 NEW     -0.473100
     17 C1         -2.8470    1.0280    0.5010 ca        1 NEW     -0.037600
     18 CL1        -3.6930    2.3890    1.0730 cl        1 NEW     -0.069400
     19 HO2         5.2630    0.7830   -0.1410 ho        1 NEW      0.435000
     20 H11         0.8950   -2.0910    0.7840 ha        1 NEW      0.157000
     21 H7          0.8760    2.0000   -0.6310 ha        1 NEW      0.157000
     22 H2         -0.9180    1.9270    0.9040 ha        1 NEW      0.157000
     23 H4         -0.8510   -2.0540   -0.7950 ha        1 NEW      0.157000
     24 HO1        -5.2780    0.6530    0.3260 ho        1 NEW      0.435000
@<TRIPOS>BOND
     1    1    2 1   
     2    1   19 1   
     3    2    3 ar  
     4    2    5 ar  
     5    3    4 1   
     6    3    9 ar  
     7    5    6 1   
     8    5    7 ar  
     9    7    8 ar  
    10    7   20 1   
    11    8    9 ar  
    12    8   10 1   
    13    9   21 1   
    14   10   11 ar  
    15   10   12 ar  
    16   11   17 ar  
    17   11   22 1   
    18   12   13 ar  
    19   12   23 1   
    20   13   14 1   
    21   13   15 ar  
    22   15   16 1   
    23   15   17 ar  
    24   16   24 1   
    25   17   18 1   
@<TRIPOS>SUBSTRUCTURE
     1 NEW         1 TEMP              0 ****  ****    0 ROOT
