@<TRIPOS>MOLECULE
NEW
   24    21     1     0     0
SMALL
bcc


@<TRIPOS>ATOM
      1 O2         -4.9360   -0.0610    0.0140 oh        1 NEW     -0.227000
      2 C9         -3.5300   -0.0130    0.0020 c2        1 NEW      0.105000
      3 C8         -2.8270   -0.0110    1.1970 c2        1 NEW     -0.145000
      4 CL2        -3.6850    0.0790    2.7120 cl        1 NEW     -0.004000
      5 C10        -2.8460   -0.0280   -1.2040 c1        1 NEW     -0.087000
      6 CL4        -3.7280    0.0370   -2.7060 cl        1 NEW      0.022000
      7 C11        -1.4600   -0.0410   -1.2140 c2        1 NEW     -0.082000
      8 C12        -0.7580   -0.0380   -0.0200 c1        1 NEW     -0.056000
      9 C7         -1.4410   -0.0230    1.1860 c1        1 NEW     -0.075000
     10 C3          0.7550   -0.0440   -0.0320 c2        1 NEW     -0.056000
     11 C2          1.4430   -1.2480   -0.0420 c2        1 NEW     -0.082000
     12 C4          1.4520    1.1530   -0.0750 c1        1 NEW     -0.075000
     13 C5          2.8370    1.1470   -0.1280 c1        1 NEW     -0.145000
     14 CL5         3.7150    2.6530   -0.1640 cl        1 NEW     -0.004000
     15 C6          3.5250   -0.0570   -0.1390 c1        1 NEW      0.105000
     16 O1          4.9290   -0.0630   -0.2400 o         1 NEW     -0.227000
     17 C1          2.8280   -1.2540   -0.0960 c2        1 NEW     -0.087000
     18 CL1         3.6950   -2.7660   -0.0760 cl        1 NEW      0.022000
     19 HO2        -5.2450    0.4860    0.6430 ho        1 NEW      0.234000
     20 H11        -0.9790   -0.0520   -2.0630 ha        1 NEW      0.158000
     21 H7         -0.9460   -0.0210    2.0270 ha        1 NEW      0.156000
     22 H2          0.9520   -2.0910   -0.0120 ha        1 NEW      0.158000
     23 H4          0.9670    2.0000   -0.0840 ha        1 NEW      0.156000
     24 HO1         5.2830    0.2550    0.5120 ho        1 NEW      0.234000
@<TRIPOS>BOND
     1    1    2 1   
     2    1   19 1   
     3    2    3 1   
     4    2    5 1   
     5    3    4 1   
     6    3    9 1   
     7    5    7 1   
     8    7    8 1   
     9    7   20 1   
    10    8   10 1   
    11    9   21 1   
    12   10   11 1   
    13   10   12 1   
    14   11   17 1   
    15   11   22 1   
    16   12   23 1   
    17   13   14 1   
    18   13   15 1   
    19   15   17 1   
    20   16   24 1   
    21   17   18 1   
@<TRIPOS>SUBSTRUCTURE
     1 NEW         1 TEMP              0 ****  ****    0 ROOT
