@<TRIPOS>MOLECULE
NEW
   24    25     1     0     0
SMALL
bcc


@<TRIPOS>ATOM
      1 O2         -0.0420    0.1110   -0.1170 oh        1 NEW     -0.473100
      2 C9          1.3270    0.0930   -0.0560 ca        1 NEW      0.150100
      3 C8          2.0510    0.1160    1.1520 ca        1 NEW     -0.037600
      4 CL2         1.2360    0.1670    2.6460 cl        1 NEW     -0.069400
      5 C10         2.0330    0.0490   -1.2780 ca        1 NEW     -0.037600
      6 CL4         1.2220    0.0220   -2.7680 cl        1 NEW     -0.069400
      7 C11         3.4280    0.0290   -1.2740 ca        1 NEW     -0.078500
      8 C12         4.1420    0.0520   -0.0690 cp        1 NEW     -0.056000
      9 C7          3.4450    0.0960    1.1440 ca        1 NEW     -0.078500
     10 C3          5.6030    0.0300   -0.0780 cp        1 NEW     -0.056000
     11 C2          6.3270    0.8500    0.7950 ca        1 NEW     -0.078500
     12 C4          6.2900   -0.8120   -0.9620 ca        1 NEW     -0.078500
     13 C5          7.6850   -0.8420   -0.9810 ca        1 NEW     -0.037600
     14 CL5         8.4630   -1.8840   -2.0710 cl        1 NEW     -0.069400
     15 C6          8.4180   -0.0160   -0.1020 ca        1 NEW      0.150100
     16 O1          9.7850   -0.0840   -0.1620 oh        1 NEW     -0.473100
     17 C1          7.7210    0.8290    0.7840 ca        1 NEW     -0.037600
     18 CL1         8.5690    1.8410    1.8590 cl        1 NEW     -0.069400
     19 HO2        -0.3890    0.1390    0.7910 ho        1 NEW      0.435000
     20 H11         3.9750    0.0020   -2.2310 ha        1 NEW      0.157000
     21 H7          4.0000    0.1070    2.0960 ha        1 NEW      0.157000
     22 H2          5.7930    1.5210    1.4880 ha        1 NEW      0.157000
     23 H4          5.7220   -1.4650   -1.6460 ha        1 NEW      0.157000
     24 HO1        10.1520    0.5350    0.4920 ho        1 NEW      0.435000
@<TRIPOS>BOND
     1    1    2 1   
     2    1   19 1   
     3    2    3 ar  
     4    2    5 ar  
     5    3    4 1   
     6    3    9 ar  
     7    5    6 1   
     8    5    7 ar  
     9    7    8 ar  
    10    7   20 1   
    11    8    9 ar  
    12    8   10 1   
    13    9   21 1   
    14   10   11 ar  
    15   10   12 ar  
    16   11   17 ar  
    17   11   22 1   
    18   12   13 ar  
    19   12   23 1   
    20   13   14 1   
    21   13   15 ar  
    22   15   16 1   
    23   15   17 ar  
    24   16   24 1   
    25   17   18 1   
@<TRIPOS>SUBSTRUCTURE
     1 NEW         1 TEMP              0 ****  ****    0 ROOT
