@<TRIPOS>MOLECULE
NEZ
   41    35     1     0     0
SMALL
bcc


@<TRIPOS>ATOM
      1 C14        -0.0700    0.5300   -0.0490 c3        1 NEZ     -0.108000
      2 C5          1.4770    0.4990   -0.0600 c2        1 NEZ     -0.008000
      3 C4          2.2470    0.4460    1.1520 c2        1 NEZ      0.044000
      4 N10         1.6300    0.5030    2.3580 n1        1 NEZ     -0.243000
      5 C9          2.3690    0.5510    3.4950 c1        1 NEZ      0.205000
      6 N23         1.6610    0.7110    4.7290 n3        1 NEZ     -0.318000
      7 N8          3.7290    0.5430    3.4250 n2        1 NEZ     -0.344000
      8 C7          4.3410    0.4870    2.2350 c1        1 NEZ      0.354000
      9 O22         5.5230    0.5260    2.1730 o         1 NEZ     -0.353000
     10 C3          3.6050    0.4380    1.0910 c1        1 NEZ     -0.160000
     11 C2          4.2630    0.4830   -0.1590 c1        1 NEZ     -0.064000
     12 C1          3.5000    0.5370   -1.3690 c1        1 NEZ     -0.051000
     13 N11         3.8570    0.4650   -2.6690 n1        1 NEZ     -0.251000
     14 C12         2.7080    0.4270   -3.4230 c1        1 NEZ     -0.015000
     15 N13         1.6530    0.4760   -2.5750 n2        1 NEZ     -0.150000
     16 C6          2.1310    0.5440   -1.3100 c1        1 NEZ     -0.035000
     17 C15        -0.6130   -0.8390   -0.4270 c3        1 NEZ     -0.117000
     18 C16        -2.1980   -0.7410   -0.6620 c2        1 NEZ     -0.071000
     19 C17        -3.0820   -1.2140    0.3200 c2        1 NEZ     -0.124000
     20 C18        -4.4440   -1.2010    0.0890 c1        1 NEZ     -0.132000
     21 C19        -4.9410   -0.7160   -1.1250 c1        1 NEZ     -0.076000
     22 C24        -6.4240   -0.7500   -1.3950 c3        1 NEZ     -0.177000
     23 C20        -4.0520   -0.2390   -2.1150 c1        1 NEZ     -0.130000
     24 C21        -2.7030   -0.2520   -1.8870 c1        1 NEZ     -0.124000
     25 H141       -0.3960    0.7760    0.8910 hc        1 NEZ      0.104500
     26 H142       -0.4060    1.2340   -0.7270 hc        1 NEZ      0.104500
     27 H231        2.1590    0.9060    5.5630 hn        1 NEZ      0.204500
     28 H232        0.7690    0.7190    4.7320 hn        1 NEZ      0.204500
     29 HN8         4.2360    0.5780    4.2100 hn        1 NEZ      0.250000
     30 H2          5.2590    0.4500   -0.1960 ha        1 NEZ      0.163000
     31 H11         4.6730    0.4480   -2.9770 DU        1 NEZ      0.230500
     32 H12         2.6610    0.4900   -4.4140 DU        1 NEZ      0.230500
     33 H151       -0.4220   -1.5040    0.3400 hc        1 NEZ      0.094500
     34 H152       -0.1870   -1.1460   -1.2310 hc        1 NEZ      0.094500
     35 H17        -2.7290   -1.5570    1.1830 ha        1 NEZ      0.130000
     36 H18        -5.0380   -1.5180    0.7480 ha        1 NEZ      0.127000
     37 H241       -6.8270    0.0630   -1.0680 hc        1 NEZ      0.081333
     38 H242       -6.8180   -1.5140   -0.9410 hc        1 NEZ      0.081333
     39 H243       -6.5880   -0.8300   -2.3940 hc        1 NEZ      0.081333
     40 H20        -4.4160    0.1140   -2.9970 ha        1 NEZ      0.129000
     41 H21        -2.0980    0.0750   -2.5620 ha        1 NEZ      0.138000
@<TRIPOS>BOND
     1    1    2 1   
     2    1   17 1   
     3    1   25 1   
     4    1   26 1   
     5    2    3 1   
     6    2   16 1   
     7    3    4 1   
     8    3   10 1   
     9    5    6 1   
    10    5    7 1   
    11    6   27 1   
    12    6   28 1   
    13    7   29 1   
    14    8    9 1   
    15    8   10 1   
    16   11   12 1   
    17   11   30 1   
    18   13   14 1   
    19   14   15 1   
    20   15   16 1   
    21   17   18 1   
    22   17   33 1   
    23   17   34 1   
    24   18   19 1   
    25   18   24 1   
    26   19   20 1   
    27   19   35 1   
    28   20   36 1   
    29   21   22 1   
    30   21   23 1   
    31   22   37 1   
    32   22   38 1   
    33   22   39 1   
    34   23   40 1   
    35   24   41 1   
@<TRIPOS>SUBSTRUCTURE
     1 NEZ         1 TEMP              0 ****  ****    0 ROOT
