@<TRIPOS>MOLECULE
NEZ
   41    44     1     0     0
SMALL
bcc


@<TRIPOS>ATOM
      1 C14        -0.0060   -0.0140    0.0330 c3        1 NEZ     -0.022100
      2 C5          1.4820   -0.0250    0.0230 ca        1 NEZ     -0.015300
      3 C4          2.2500   -0.0060    1.2180 ca        1 NEZ      0.183400
      4 N10         1.5850    0.0040    2.4470 nc        1 NEZ     -0.670100
      5 C9          2.3000    0.0610    3.5730 cd        1 NEZ      0.651800
      6 N23         1.6370    0.2110    4.8230 nv        1 NEZ     -0.880800
      7 N8          3.7150    0.0340    3.6060 ns        1 NEZ     -0.504400
      8 C7          4.4490    0.0280    2.4120 c         1 NEZ      0.717100
      9 O22         5.6920    0.0400    2.4850 o         1 NEZ     -0.628500
     10 C3          3.6780   -0.0050    1.1540 ca        1 NEZ     -0.180600
     11 C2          4.3830   -0.0250   -0.0500 ca        1 NEZ     -0.063000
     12 C1          3.6360   -0.0500   -1.2190 ca        1 NEZ     -0.096200
     13 N11         3.9950   -0.0790   -2.5740 na        1 NEZ     -0.294300
     14 C12         2.7920   -0.0940   -3.2980 cc        1 NEZ      0.440700
     15 N13         1.6990   -0.0800   -2.5220 nd        1 NEZ     -0.577100
     16 C6          2.1780   -0.0510   -1.1910 ca        1 NEZ      0.104400
     17 C15        -0.5680   -1.4200    0.1790 c3        1 NEZ     -0.030100
     18 C16        -2.0540   -1.4210    0.0950 ca        1 NEZ     -0.078300
     19 C17        -2.6900   -1.2000   -1.1330 ca        1 NEZ     -0.124000
     20 C18        -4.0790   -1.2120   -1.2210 ca        1 NEZ     -0.131000
     21 C19        -4.8600   -1.4460   -0.0820 ca        1 NEZ     -0.082300
     22 C24        -6.3380   -1.4440   -0.1740 c3        1 NEZ     -0.051800
     23 C20        -4.2250   -1.6680    1.1440 ca        1 NEZ     -0.131000
     24 C21        -2.8340   -1.6560    1.2320 ca        1 NEZ     -0.124000
     25 H141       -0.3910    0.4360   -0.9220 hc        1 NEZ      0.066200
     26 H142       -0.3860    0.6290    0.8710 hc        1 NEZ      0.066200
     27 H231        0.6410    0.1770    4.7490 hn        1 NEZ      0.409300
     28 H232        1.9920   -0.3810    5.5420 hn        1 NEZ      0.409300
     29 HN8         4.2080    0.1330    4.4650 hn        1 NEZ      0.336500
     30 H2          5.4840   -0.0220   -0.0460 ha        1 NEZ      0.163000
     31 H11         4.9110   -0.0780   -2.9320 hn        1 NEZ      0.310700
     32 H12         2.7820   -0.1170   -4.3960 h5        1 NEZ      0.070800
     33 H151       -0.1520   -2.0710   -0.6360 hc        1 NEZ      0.053200
     34 H152       -0.2350   -1.8530    1.1600 hc        1 NEZ      0.053200
     35 H17        -2.0830   -1.0150   -2.0330 ha        1 NEZ      0.133000
     36 H18        -4.5690   -1.0380   -2.1900 ha        1 NEZ      0.128000
     37 H241       -6.6770   -1.8210   -1.1710 hc        1 NEZ      0.042367
     38 H242       -6.7910   -2.0860    0.6200 hc        1 NEZ      0.042367
     39 H243       -6.7270   -0.4020   -0.0450 hc        1 NEZ      0.042367
     40 H20        -4.8280   -1.8550    2.0450 ha        1 NEZ      0.128000
     41 H21        -2.3470   -1.8310    2.2020 ha        1 NEZ      0.133000
@<TRIPOS>BOND
     1    1    2 1   
     2    1   17 1   
     3    1   25 1   
     4    1   26 1   
     5    2    3 ar  
     6    2   16 ar  
     7    3    4 1   
     8    3   10 ar  
     9    4    5 2   
    10    5    6 1   
    11    5    7 1   
    12    6   27 1   
    13    6   28 1   
    14    7    8 1   
    15    7   29 1   
    16    8    9 2   
    17    8   10 1   
    18   10   11 ar  
    19   11   12 ar  
    20   11   30 1   
    21   12   13 1   
    22   12   16 ar  
    23   13   14 1   
    24   13   31 1   
    25   14   15 2   
    26   14   32 1   
    27   15   16 1   
    28   17   18 1   
    29   17   33 1   
    30   17   34 1   
    31   18   19 ar  
    32   18   24 ar  
    33   19   20 ar  
    34   19   35 1   
    35   20   21 ar  
    36   20   36 1   
    37   21   22 1   
    38   21   23 ar  
    39   22   37 1   
    40   22   38 1   
    41   22   39 1   
    42   23   24 ar  
    43   23   40 1   
    44   24   41 1   
@<TRIPOS>SUBSTRUCTURE
     1 NEZ         1 TEMP              0 ****  ****    0 ROOT
