@<TRIPOS>MOLECULE
NEZ
   42    45     1     0     0
SMALL
bcc


@<TRIPOS>ATOM
      1 C14         0.0010   -0.0160   -0.0570 c3        1 NEZ     -0.045100
      2 C5          1.4880   -0.0240   -0.0210 ca        1 NEZ      0.071700
      3 C4          2.2330    0.0110    1.1820 ca        1 NEZ      0.091400
      4 N10         1.5450    0.0580    2.4010 nc        1 NEZ     -0.525100
      5 C9          2.2450    0.0940    3.5150 cd        1 NEZ      0.485800
      6 N23         1.4510    0.1470    4.7880 n4        1 NEZ     -0.795600
      7 N8          3.6410    0.0860    3.6330 n         1 NEZ     -0.512400
      8 C7          4.4130    0.0400    2.4420 c         1 NEZ      0.726100
      9 O22         5.6410    0.0360    2.5720 o         1 NEZ     -0.552500
     10 C3          3.6700    0.0010    1.1660 ca        1 NEZ     -0.142600
     11 C2          4.4020   -0.0450   -0.0120 ca        1 NEZ     -0.054000
     12 C1          3.6790   -0.0830   -1.2080 ca        1 NEZ     -0.057200
     13 N11         4.0710   -0.1340   -2.5450 na        1 NEZ     -0.266300
     14 C12         2.8860   -0.1520   -3.3050 cc        1 NEZ      0.460700
     15 N13         1.7740   -0.1170   -2.5550 nd        1 NEZ     -0.550100
     16 C6          2.2210   -0.0730   -1.2180 ca        1 NEZ      0.082400
     17 C15        -0.5580   -1.4330   -0.0180 c3        1 NEZ     -0.023100
     18 C16        -2.0460   -1.4240   -0.0040 ca        1 NEZ     -0.100300
     19 C17        -2.7600   -0.9610   -1.1160 ca        1 NEZ     -0.123500
     20 C18        -4.1510   -0.9680   -1.1130 ca        1 NEZ     -0.126500
     21 C19        -4.8570   -1.4410    0.0010 ca        1 NEZ     -0.063300
     22 C24        -6.3370   -1.4650   -0.0070 c3        1 NEZ     -0.059800
     23 C20        -4.1430   -1.9070    1.1100 ca        1 NEZ     -0.126500
     24 C21        -2.7490   -1.8990    1.1080 ca        1 NEZ     -0.123500
     25 H141       -0.4160    0.5760    0.8000 hc        1 NEZ      0.076700
     26 H142       -0.3510    0.4880   -0.9990 hc        1 NEZ      0.076700
     27 H231        1.6830    1.0060    5.3000 hn        1 NEZ      0.478467
     28 H232        1.6690   -0.6740    5.3630 hn        1 NEZ      0.478467
     29 HN8         4.1110    0.1120    4.5100 hn        1 NEZ      0.348500
     30 H2          5.5040   -0.0520    0.0110 ha        1 NEZ      0.182000
     31 H11         4.9990   -0.1520   -2.8830 hn        1 NEZ      0.328700
     32 H12         2.9060   -0.1920   -4.4050 h5        1 NEZ      0.095800
     33 H151       -0.1650   -1.9660    0.8880 hc        1 NEZ      0.052700
     34 H152       -0.1990   -1.9960   -0.9220 hc        1 NEZ      0.052700
     35 H17        -2.2150   -0.5970   -2.0010 ha        1 NEZ      0.127000
     36 H18        -4.7030   -0.6030   -1.9920 ha        1 NEZ      0.137500
     37 H241       -6.7000   -2.3940   -0.5150 hc        1 NEZ      0.051033
     38 H242       -6.7470   -0.5830   -0.5600 hc        1 NEZ      0.051033
     39 H243       -6.7470   -1.4530    1.0330 hc        1 NEZ      0.051033
     40 H20        -4.6860   -2.2890    1.9880 ha        1 NEZ      0.137500
     41 H21        -2.2020   -2.2810    1.9820 ha        1 NEZ      0.127000
     42 H233        0.4440    0.1470    4.5660 hn        1 NEZ      0.478467
@<TRIPOS>BOND
     1    1    2 1   
     2    1   17 1   
     3    1   25 1   
     4    1   26 1   
     5    2    3 ar  
     6    2   16 ar  
     7    3    4 1   
     8    3   10 ar  
     9    4    5 2   
    10    5    6 1   
    11    5    7 1   
    12    6   27 1   
    13    6   28 1   
    14    6   42 1   
    15    7    8 1   
    16    7   29 1   
    17    8    9 2   
    18    8   10 1   
    19   10   11 ar  
    20   11   12 ar  
    21   11   30 1   
    22   12   13 1   
    23   12   16 ar  
    24   13   14 1   
    25   13   31 1   
    26   14   15 2   
    27   14   32 1   
    28   15   16 1   
    29   17   18 1   
    30   17   33 1   
    31   17   34 1   
    32   18   19 ar  
    33   18   24 ar  
    34   19   20 ar  
    35   19   35 1   
    36   20   21 ar  
    37   20   36 1   
    38   21   22 1   
    39   21   23 ar  
    40   22   37 1   
    41   22   38 1   
    42   22   39 1   
    43   23   24 ar  
    44   23   40 1   
    45   24   41 1   
@<TRIPOS>SUBSTRUCTURE
     1 NEZ         1 TEMP              0 ****  ****    0 ROOT
