@<TRIPOS>MOLECULE
NEZ
   41    44     1     0     0
SMALL
bcc


@<TRIPOS>ATOM
      1 C14         0.3730   -0.6020    0.7370 c3        1 NEZ     -0.022100
      2 C5          0.5990   -0.3310   -0.7090 ca        1 NEZ     -0.015300
      3 C4         -0.4720   -0.2020   -1.6330 ca        1 NEZ      0.183400
      4 N10        -1.7840   -0.3360   -1.1690 nc        1 NEZ     -0.670100
      5 C9         -2.7960   -0.1930   -2.0270 cd        1 NEZ      0.651800
      6 N23        -4.1350   -0.1970   -1.5450 nh        1 NEZ     -0.879800
      7 N8         -2.6230    0.0270   -3.4140 n         1 NEZ     -0.504400
      8 C7         -1.3370    0.1830   -3.9490 c         1 NEZ      0.717100
      9 O22        -1.2300    0.4110   -5.1690 o         1 NEZ     -0.628500
     10 C3         -0.2040    0.0520   -3.0140 ca        1 NEZ     -0.180600
     11 C2          1.0890    0.1900   -3.5220 ca        1 NEZ     -0.064000
     12 C1          2.1370    0.0670   -2.6210 ca        1 NEZ     -0.096200
     13 N11         3.5300    0.1440   -2.7700 na        1 NEZ     -0.294300
     14 C12         4.0730   -0.0630   -1.4910 cc        1 NEZ      0.440700
     15 N13         3.1470   -0.2660   -0.5420 nd        1 NEZ     -0.577100
     16 C6          1.8990   -0.1940   -1.2060 ca        1 NEZ      0.104400
     17 C15         0.1100    0.6850    1.5060 c3        1 NEZ     -0.031100
     18 C16        -0.0370    0.4250    2.9630 ca        1 NEZ     -0.078300
     19 C17         1.0780    0.0740    3.7340 ca        1 NEZ     -0.124000
     20 C18         0.9480   -0.1590    5.1000 ca        1 NEZ     -0.131000
     21 C19        -0.3000   -0.0430    5.7240 ca        1 NEZ     -0.083300
     22 C24        -0.4340   -0.2750    7.1800 c3        1 NEZ     -0.051800
     23 C20        -1.4150    0.3070    4.9540 ca        1 NEZ     -0.131000
     24 C21        -1.2850    0.5390    3.5870 ca        1 NEZ     -0.124000
     25 H141        1.2740   -1.1110    1.1750 hc        1 NEZ      0.065200
     26 H142       -0.4940   -1.3010    0.8720 hc        1 NEZ      0.065200
     27 H231       -4.2040   -0.4150   -0.5720 hn        1 NEZ      0.409300
     28 H232       -4.7640   -0.7310   -2.1050 hn        1 NEZ      0.409300
     29 HN8        -3.4060    0.1830   -4.0090 hn        1 NEZ      0.336500
     30 H2          1.2440    0.3870   -4.5930 ha        1 NEZ      0.163000
     31 H11         4.0160    0.3150   -3.6080 hn        1 NEZ      0.310700
     32 H12         5.1570   -0.0530   -1.3190 h5        1 NEZ      0.070800
     33 H151       -0.8160    1.1750    1.1030 hc        1 NEZ      0.055200
     34 H152        0.9660    1.3950    1.3420 hc        1 NEZ      0.055200
     35 H17         2.0630   -0.0190    3.2500 ha        1 NEZ      0.134000
     36 H18         1.8310   -0.4360    5.6950 ha        1 NEZ      0.128000
     37 H241       -0.2280    0.6730    7.7380 hc        1 NEZ      0.042033
     38 H242       -1.4660   -0.6160    7.4400 hc        1 NEZ      0.042033
     39 H243        0.2920   -1.0500    7.5290 hc        1 NEZ      0.042033
     40 H20        -2.4010    0.3990    5.4330 ha        1 NEZ      0.128000
     41 H21        -2.1690    0.8140    2.9920 ha        1 NEZ      0.134000
@<TRIPOS>BOND
     1    1    2 1   
     2    1   17 1   
     3    1   25 1   
     4    1   26 1   
     5    2    3 ar  
     6    2   16 ar  
     7    3    4 1   
     8    3   10 ar  
     9    4    5 2   
    10    5    6 1   
    11    5    7 1   
    12    6   27 1   
    13    6   28 1   
    14    7    8 1   
    15    7   29 1   
    16    8    9 2   
    17    8   10 1   
    18   10   11 ar  
    19   11   12 ar  
    20   11   30 1   
    21   12   13 1   
    22   12   16 ar  
    23   13   14 1   
    24   13   31 1   
    25   14   15 2   
    26   14   32 1   
    27   15   16 1   
    28   17   18 1   
    29   17   33 1   
    30   17   34 1   
    31   18   19 ar  
    32   18   24 ar  
    33   19   20 ar  
    34   19   35 1   
    35   20   21 ar  
    36   20   36 1   
    37   21   22 1   
    38   21   23 ar  
    39   22   37 1   
    40   22   38 1   
    41   22   39 1   
    42   23   24 ar  
    43   23   40 1   
    44   24   41 1   
@<TRIPOS>SUBSTRUCTURE
     1 NEZ         1 TEMP              0 ****  ****    0 ROOT
