@<TRIPOS>MOLECULE
NF
   69    74     1     0     0
SMALL
bcc


@<TRIPOS>ATOM
      1 O11        -6.7800   -2.2990    0.5820 o         1 NF      -0.656500
      2 C11        -6.4720   -1.1390    0.2670 c         1 NF       0.743100
      3 N21        -5.3910   -0.5300    0.9750 n         1 NF      -0.532400
      4 C12        -4.9770   -1.1230    2.2210 c3        1 NF       0.068000
      5 C31        -4.8560    0.7160    0.5980 c         1 NF       0.743100
      6 O31        -3.7790    1.0730    1.1390 o         1 NF      -0.656500
      7 CX3        -5.5450    1.5060   -0.4290 ca        1 NF      -0.193100
      8 CXD        -6.6680    0.9470   -1.0990 ca        1 NF       0.037000
      9 CXT        -7.1340   -0.3600   -0.7900 ca        1 NF      -0.193100
     10 C91        -8.2240   -0.8920   -1.4590 ca        1 NF       0.004000
     11 C81        -8.8820   -0.1340   -2.4520 ca        1 NF      -0.155500
     12 C71        -8.4530    1.1370   -2.7610 ca        1 NF      -0.032000
     13 CXN        -7.3360    1.7080   -2.0910 ca        1 NF      -0.073000
     14 C61        -6.8720    3.0190   -2.3820 ca        1 NF      -0.032000
     15 C51        -5.7860    3.5450   -1.7150 ca        1 NF      -0.155500
     16 C41        -5.1140    2.7890   -0.7330 ca        1 NF       0.004000
     17 C22        -3.7120   -2.0040    2.1450 c3        1 NF       0.087800
     18 N32        -2.5030   -1.2140    1.7500 n4        1 NF      -0.762000
     19 C42        -1.2360   -1.9320    2.0430 c3        1 NF       0.106800
     20 C52         0.0040   -1.1350    1.6400 c3        1 NF      -0.134400
     21 C62         1.2430   -1.9400    2.0310 c3        1 NF       0.106800
     22 N72         2.5120   -1.2310    1.7260 n4        1 NF      -0.762000
     23 C82         3.7190   -2.0290    2.1080 c3        1 NF       0.087800
     24 C13         6.4660   -1.1830    0.2020 c         1 NF       0.743100
     25 N23         5.3960   -0.5660    0.9220 n         1 NF      -0.532400
     26 C92         4.9900   -1.1560    2.1720 c3        1 NF       0.068000
     27 C33         4.8650    0.6840    0.5500 c         1 NF       0.743100
     28 O33         3.7970    1.0480    1.1020 o         1 NF      -0.656500
     29 CX5         5.5490    1.4700   -0.4840 ca        1 NF      -0.193100
     30 CXF         6.6620    0.9030   -1.1650 ca        1 NF       0.037000
     31 CXV         7.1220   -0.4070   -0.8610 ca        1 NF      -0.193100
     32 C93         8.2020   -0.9470   -1.5410 ca        1 NF       0.004000
     33 C83         8.8540   -0.1930   -2.5410 ca        1 NF      -0.155500
     34 C73         8.4310    1.0810   -2.8450 ca        1 NF      -0.032000
     35 CXP         7.3250    1.6590   -2.1640 ca        1 NF      -0.073000
     36 C63         6.8670    2.9740   -2.4490 ca        1 NF      -0.032000
     37 C53         5.7920    3.5060   -1.7710 ca        1 NF      -0.155500
     38 C43         5.1240    2.7550   -0.7830 ca        1 NF       0.004000
     39 H112       -4.8150   -0.3060    2.9840 h1        1 NF       0.113700
     40 H122       -5.7990   -1.8100    2.5970 h1        1 NF       0.113700
     41 H91        -8.5840   -1.9080   -1.2120 ha        1 NF       0.168000
     42 H81        -9.7480   -0.5750   -2.9720 ha        1 NF       0.167500
     43 H71        -8.9700    1.7330   -3.5320 ha        1 NF       0.163500
     44 H61        -7.3990    3.6110   -3.1500 ha        1 NF       0.163500
     45 H51        -5.4350    4.5650   -1.9380 ha        1 NF       0.167500
     46 H41        -4.2490    3.2220   -0.2020 ha        1 NF       0.168000
     47 H212       -3.5340   -2.4470    3.1660 hx        1 NF       0.114700
     48 H222       -3.8530   -2.8380    1.4000 hx        1 NF       0.114700
     49 H312       -2.5660   -0.9900    0.7470 hn        1 NF       0.472800
     50 H322       -2.5320   -0.3000    2.2420 hn        1 NF       0.472800
     51 H412       -1.2090   -2.1480    3.1510 hx        1 NF       0.111700
     52 H422       -1.2590   -2.9170    1.4910 hx        1 NF       0.111700
     53 H512       -0.0010   -0.9430    0.5330 hc        1 NF       0.093200
     54 H522        0.0100   -0.1370    2.1580 hc        1 NF       0.093200
     55 H612        1.2250   -2.1560    3.1390 hx        1 NF       0.111700
     56 H622        1.2540   -2.9250    1.4790 hx        1 NF       0.111700
     57 H712        2.5660   -1.0070    0.7220 hn        1 NF       0.472800
     58 H722        2.5510   -0.3170    2.2170 hn        1 NF       0.472800
     59 H812        3.5480   -2.4700    3.1310 hx        1 NF       0.114700
     60 H822        3.8470   -2.8630    1.3610 hx        1 NF       0.114700
     61 H912        4.8410   -0.3380    2.9370 h1        1 NF       0.113700
     62 H922        5.8110   -1.8490    2.5390 h1        1 NF       0.113700
     63 H93         8.5570   -1.9650   -1.2980 ha        1 NF       0.168000
     64 H83         9.7130   -0.6400   -3.0690 ha        1 NF       0.167500
     65 H73         8.9450    1.6740   -3.6210 ha        1 NF       0.163500
     66 H63         7.3910    3.5620   -3.2220 ha        1 NF       0.163500
     67 H53         5.4450    4.5290   -1.9910 ha        1 NF       0.167500
     68 H43         4.2680    3.1940   -0.2430 ha        1 NF       0.168000
     69 O13         6.7690   -2.3440    0.5150 o         1 NF      -0.656500
@<TRIPOS>BOND
     1    1    2 2   
     2    2    3 1   
     3    2    9 1   
     4    3    4 1   
     5    3    5 1   
     6    4   17 1   
     7    4   39 1   
     8    4   40 1   
     9    5    6 2   
    10    5    7 1   
    11    7    8 ar  
    12    7   16 ar  
    13    8    9 ar  
    14    8   13 ar  
    15    9   10 ar  
    16   10   11 ar  
    17   10   41 1   
    18   11   12 ar  
    19   11   42 1   
    20   12   13 ar  
    21   12   43 1   
    22   13   14 ar  
    23   14   15 ar  
    24   14   44 1   
    25   15   16 ar  
    26   15   45 1   
    27   16   46 1   
    28   17   18 1   
    29   17   47 1   
    30   17   48 1   
    31   18   19 1   
    32   18   49 1   
    33   18   50 1   
    34   19   20 1   
    35   19   51 1   
    36   19   52 1   
    37   20   21 1   
    38   20   53 1   
    39   20   54 1   
    40   21   22 1   
    41   21   55 1   
    42   21   56 1   
    43   22   23 1   
    44   22   57 1   
    45   22   58 1   
    46   23   26 1   
    47   23   59 1   
    48   23   60 1   
    49   24   25 1   
    50   24   31 1   
    51   24   69 2   
    52   25   26 1   
    53   25   27 1   
    54   26   61 1   
    55   26   62 1   
    56   27   28 2   
    57   27   29 1   
    58   29   30 ar  
    59   29   38 ar  
    60   30   31 ar  
    61   30   35 ar  
    62   31   32 ar  
    63   32   33 ar  
    64   32   63 1   
    65   33   34 ar  
    66   33   64 1   
    67   34   35 ar  
    68   34   65 1   
    69   35   36 ar  
    70   36   37 ar  
    71   36   66 1   
    72   37   38 ar  
    73   37   67 1   
    74   38   68 1   
@<TRIPOS>SUBSTRUCTURE
     1 NF          1 TEMP              0 ****  ****    0 ROOT
