@<TRIPOS>MOLECULE
NF
   69    66     1     0     0
SMALL
bcc


@<TRIPOS>ATOM
      1 O11        -0.7590    0.3850   -5.3510 o         1 NF      -0.449000
      2 C11         0.0050    1.2790   -5.7190 c1        1 NF       0.391000
      3 N21         1.4020    1.1440   -5.5180 n2        1 NF      -0.360500
      4 C12         1.9530   -0.1080   -4.9020 c3        1 NF      -0.048000
      5 C31         2.2830    2.1460   -5.9910 c2        1 NF       0.369000
      6 O31         3.4930    1.9990   -5.8780 o         1 NF      -0.313000
      7 CX3         1.7320    3.3600   -6.7200 c2        1 NF      -0.171000
      8 CXD         0.3090    3.5030   -6.9130 c2        1 NF       0.037000
      9 CXT        -0.5560    2.5240   -6.4520 c2        1 NF      -0.174000
     10 C91        -1.9450    2.6620   -6.6550 c1        1 NF       0.001000
     11 C81        -2.4430    3.7810   -7.3100 c1        1 NF      -0.093500
     12 C71        -1.5760    4.7610   -7.7650 c1        1 NF      -0.093500
     13 CXN        -0.1940    4.6260   -7.5640 c1        1 NF      -0.073000
     14 C61         0.6980    5.6370   -8.0370 c2        1 NF      -0.038000
     15 C51         2.0980    5.4960   -7.8460 c1        1 NF      -0.150000
     16 C41         2.6100    4.3580   -7.1870 c1        1 NF       0.007000
     17 C22         2.1850    0.1250   -3.3290 c3        1 NF      -0.149000
     18 N32         1.9330   -1.1100   -2.6170 n4        1 NF      -0.036000
     19 C42         1.4930   -0.8220   -1.2920 c3        1 NF      -0.130000
     20 C52         1.6400   -2.1290   -0.3930 c3        1 NF      -0.213000
     21 C62         1.2820   -1.8110    1.0270 c3        1 NF      -0.130000
     22 N72         1.1530   -3.0590    1.7880 n4        1 NF      -0.036000
     23 C82         1.0030   -2.7520    3.1850 c3        1 NF      -0.149000
     24 O13        -2.0670   -1.3220    3.5970 o         1 NF      -0.449000
     25 C13        -1.7250   -1.6780    4.7470 c1        1 NF       0.391000
     26 N23        -0.7600   -2.7080    4.9140 n2        1 NF      -0.360500
     27 C92        -0.2500   -3.4470    3.7260 c3        1 NF      -0.048000
     28 C33        -0.3980   -3.1350    6.2240 c2        1 NF       0.369000
     29 O33         0.3760   -4.0610    6.3700 o         1 NF      -0.313000
     30 CX5        -1.0490   -2.4790    7.4570 c2        1 NF      -0.171000
     31 CXF        -2.0300   -1.4700    7.2890 c2        1 NF       0.037000
     32 CXV        -2.3780   -1.0250    5.9860 c2        1 NF      -0.174000
     33 C93        -3.3470    0.0120    5.8240 c1        1 NF       0.001000
     34 C83        -3.9430    0.6080    6.9620 c1        1 NF      -0.093500
     35 C73        -3.5810    0.1770    8.2570 c1        1 NF      -0.093500
     36 CXP        -2.6130   -0.8600    8.4210 c1        1 NF      -0.073000
     37 C63        -2.2490   -1.2880    9.7280 c2        1 NF      -0.038000
     38 C53        -1.2870   -2.3100    9.8980 c1        1 NF      -0.150000
     39 C43        -0.6860   -2.9070    8.7690 c1        1 NF       0.007000
     40 H112        1.3210   -0.8400   -5.0330 h1        1 NF       0.153000
     41 H122        2.8310   -0.3420   -5.3410 h1        1 NF       0.153000
     42 H91        -2.5690    1.9600   -6.3270 ha        1 NF       0.161000
     43 H81        -3.3700    3.8290   -7.5320 ha        1 NF       0.164500
     44 H71        -1.9360    5.5680   -8.2340 ha        1 NF       0.164500
     45 H61         0.3310    6.4530   -8.5090 ha        1 NF       0.163000
     46 H51         2.6780    6.1380   -8.1810 ha        1 NF       0.170000
     47 H41         3.5870    4.2600   -7.0530 ha        1 NF       0.175000
     48 H212        3.1230    0.4110   -3.1740 hx        1 NF       0.154000
     49 H222        1.5850    0.8090   -3.0120 hx        1 NF       0.154000
     50 H312        1.2880   -1.5870   -3.0550 hn        1 NF       0.268000
     51 H322        2.6730   -1.5840   -2.5810 hn        1 NF       0.268000
     52 H412        0.5410   -0.5380   -1.3130 hx        1 NF       0.151000
     53 H422        2.0490   -0.0910   -0.9100 hx        1 NF       0.151000
     54 H512        1.0400   -2.8270   -0.7320 hc        1 NF       0.132500
     55 H522        2.5430   -2.4390   -0.4310 hc        1 NF       0.132500
     56 H612        1.9800   -1.2600    1.4220 hx        1 NF       0.151000
     57 H622        0.4400   -1.3310    1.0500 hx        1 NF       0.151000
     58 H712        1.8960   -3.5670    1.6650 hn        1 NF       0.268000
     59 H722        0.4400   -3.5080    1.5060 hn        1 NF       0.268000
     60 H812        1.7980   -3.0720    3.6800 hx        1 NF       0.154000
     61 H822        0.9140   -1.7720    3.3000 hx        1 NF       0.154000
     62 H912       -0.0300   -4.3470    3.9810 h1        1 NF       0.153000
     63 H922       -0.9230   -3.4640    3.0470 h1        1 NF       0.153000
     64 H93        -3.5990    0.3160    4.9200 ha        1 NF       0.161000
     65 H83        -4.6170    1.3070    6.8520 ha        1 NF       0.164500
     66 H73        -4.0110    0.6040    9.0720 ha        1 NF       0.164500
     67 H63        -2.6620   -0.8780   10.5040 ha        1 NF       0.163000
     68 H53        -1.1320   -2.6940   10.7990 ha        1 NF       0.170000
     69 H43        -0.0190   -3.6140    8.8870 ha        1 NF       0.175000
@<TRIPOS>BOND
     1    1    2 1   
     2    2    9 1   
     3    3    4 1   
     4    3    5 1   
     5    4   17 1   
     6    4   40 1   
     7    4   41 1   
     8    5    6 1   
     9    5    7 1   
    10    7    8 1   
    11    7   16 1   
    12    8    9 1   
    13    8   13 1   
    14    9   10 1   
    15   10   42 1   
    16   11   12 1   
    17   11   43 1   
    18   12   44 1   
    19   13   14 1   
    20   14   15 1   
    21   14   45 1   
    22   15   46 1   
    23   16   47 1   
    24   17   18 1   
    25   17   48 1   
    26   17   49 1   
    27   18   19 1   
    28   18   50 1   
    29   18   51 1   
    30   19   20 1   
    31   19   52 1   
    32   19   53 1   
    33   20   21 1   
    34   20   54 1   
    35   20   55 1   
    36   21   22 1   
    37   21   56 1   
    38   21   57 1   
    39   22   23 1   
    40   22   58 1   
    41   22   59 1   
    42   23   27 1   
    43   23   60 1   
    44   23   61 1   
    45   24   25 1   
    46   25   32 1   
    47   26   27 1   
    48   26   28 1   
    49   27   62 1   
    50   27   63 1   
    51   28   29 1   
    52   28   30 1   
    53   30   31 1   
    54   30   39 1   
    55   31   32 1   
    56   31   36 1   
    57   32   33 1   
    58   33   64 1   
    59   34   35 1   
    60   34   65 1   
    61   35   66 1   
    62   36   37 1   
    63   37   38 1   
    64   37   67 1   
    65   38   68 1   
    66   39   69 1   
@<TRIPOS>SUBSTRUCTURE
     1 NF          1 TEMP              0 ****  ****    0 ROOT
