@<TRIPOS>MOLECULE
NF1
   42    45     1     0     0
SMALL
bcc


@<TRIPOS>ATOM
      1 OAN         0.1270   -0.1890   -0.2300 o         1 NF1     -0.623500
      2 CAM         1.3630   -0.1190   -0.0830 c         1 NF1      0.735600
      3 CAE         2.0320   -0.0250    1.2260 ca        1 NF1     -0.176100
      4 CAD         3.4530   -0.0460    1.2880 ca        1 NF1      0.031000
      5 CAF         1.2800    0.0870    2.3820 ca        1 NF1     -0.010000
      6 CAA         1.9240    0.1800    3.6350 ca        1 NF1     -0.153000
      7 CAB         3.2980    0.1600    3.7200 ca        1 NF1     -0.049500
      8 CAC         4.0940    0.0440    2.5480 ca        1 NF1     -0.068000
      9 CAG         5.5150    0.0190    2.6010 ca        1 NF1     -0.049500
     10 CAH         6.2580   -0.0930    1.4480 ca        1 NF1     -0.153000
     11 CAI         5.6220   -0.1840    0.1900 ca        1 NF1     -0.010000
     12 CAJ         4.2410   -0.1610    0.1100 ca        1 NF1     -0.176100
     13 CAK         3.5800   -0.2460   -1.2060 c         1 NF1      0.735600
     14 OAO         4.1910   -0.4050   -2.2770 o         1 NF1     -0.623500
     15 NAL         2.1670   -0.1450   -1.2460 n         1 NF1     -0.512400
     16 CAP         1.5080   -0.0690   -2.5240 c3        1 NF1      0.079000
     17 CAQ         0.8870   -1.4300   -2.9360 c3        1 NF1      0.067800
     18 NAR         0.1200   -1.3130   -4.2060 n4        1 NF1     -0.748000
     19 CAS        -0.4800   -2.6240   -4.6090 c3        1 NF1      0.117500
     20 CAT        -1.3260   -2.5140   -5.8250 cc        1 NF1      0.172700
     21 SAX        -2.4990   -3.6460   -6.2890 ss        1 NF1     -0.004800
     22 NAU        -1.2070   -1.4850   -6.7220 nd        1 NF1     -0.317000
     23 NAV        -2.0060   -1.5840   -7.7280 nd        1 NF1     -0.291000
     24 CAW        -2.7950   -2.7010   -7.6830 cc        1 NF1      0.389700
     25 CAY        -3.7870   -3.0570   -8.7130 c3        1 NF1     -0.152400
     26 H1          0.1780    0.1040    2.3260 ha        1 NF1      0.167500
     27 H2          1.3080    0.2710    4.5450 ha        1 NF1      0.159500
     28 H3          3.8020    0.2330    4.6970 ha        1 NF1      0.154000
     29 H4          6.0090    0.0920    3.5840 ha        1 NF1      0.154000
     30 H5          7.3580   -0.1120    1.4900 ha        1 NF1      0.159500
     31 H6          6.2280   -0.2720   -0.7290 ha        1 NF1      0.167500
     32 H7          2.2560    0.2540   -3.3050 h1        1 NF1      0.091200
     33 H8          0.6840    0.7000   -2.4530 h1        1 NF1      0.091200
     34 H9          0.1820   -1.7790   -2.1260 hx        1 NF1      0.117700
     35 H10         1.7000   -2.1960   -3.0820 hx        1 NF1      0.117700
     36 H11        -0.6300   -0.6180   -4.0930 hn        1 NF1      0.465300
     37 H13        -1.0940   -3.0050   -3.7400 hx        1 NF1      0.113200
     38 H14         0.3730   -3.3430   -4.7970 hx        1 NF1      0.113200
     39 H15        -4.3090   -4.0090   -8.4470 hc        1 NF1      0.084700
     40 H16        -4.5510   -2.2430   -8.8170 hc        1 NF1      0.084700
     41 H17        -3.2850   -3.1860   -9.7080 hc        1 NF1      0.084700
     42 HAR2        0.7410   -0.9780   -4.9560 hn        1 NF1      0.465300
@<TRIPOS>BOND
     1    1    2 2   
     2    2    3 1   
     3    2   15 1   
     4    3    4 ar  
     5    3    5 ar  
     6    4    8 ar  
     7    4   12 ar  
     8    5    6 ar  
     9    5   26 1   
    10    6    7 ar  
    11    6   27 1   
    12    7    8 ar  
    13    7   28 1   
    14    8    9 ar  
    15    9   10 ar  
    16    9   29 1   
    17   10   11 ar  
    18   10   30 1   
    19   11   12 ar  
    20   11   31 1   
    21   12   13 1   
    22   13   14 2   
    23   13   15 1   
    24   15   16 1   
    25   16   17 1   
    26   16   32 1   
    27   16   33 1   
    28   17   18 1   
    29   17   34 1   
    30   17   35 1   
    31   18   19 1   
    32   18   36 1   
    33   18   42 1   
    34   19   20 1   
    35   19   37 1   
    36   19   38 1   
    37   20   21 1   
    38   20   22 2   
    39   21   24 1   
    40   22   23 1   
    41   23   24 2   
    42   24   25 1   
    43   25   39 1   
    44   25   40 1   
    45   25   41 1   
@<TRIPOS>SUBSTRUCTURE
     1 NF1         1 TEMP              0 ****  ****    0 ROOT
