@<TRIPOS>MOLECULE
NF1
   42    45     1     0     0
SMALL
bcc


@<TRIPOS>ATOM
      1 OAN         0.1230   -0.1970   -0.2310 o         1 NF1     -0.623500
      2 CAM         1.3580   -0.1210   -0.0830 c         1 NF1      0.735600
      3 CAE         2.0260   -0.0250    1.2260 ca        1 NF1     -0.176100
      4 CAD         3.4470   -0.0400    1.2900 ca        1 NF1      0.031000
      5 CAF         1.2730    0.0820    2.3820 ca        1 NF1     -0.010000
      6 CAA         1.9150    0.1770    3.6360 ca        1 NF1     -0.153000
      7 CAB         3.2890    0.1630    3.7220 ca        1 NF1     -0.049500
      8 CAC         4.0870    0.0530    2.5500 ca        1 NF1     -0.068000
      9 CAG         5.5080    0.0350    2.6040 ca        1 NF1     -0.049500
     10 CAH         6.2520   -0.0730    1.4520 ca        1 NF1     -0.153000
     11 CAI         5.6180   -0.1660    0.1930 ca        1 NF1     -0.010000
     12 CAJ         4.2370   -0.1490    0.1120 ca        1 NF1     -0.176100
     13 CAK         3.5780   -0.2370   -1.2040 c         1 NF1      0.735600
     14 OAO         4.1900   -0.3910   -2.2750 o         1 NF1     -0.623500
     15 NAL         2.1640   -0.1420   -1.2460 n         1 NF1     -0.512400
     16 CAP         1.5050   -0.0680   -2.5240 c3        1 NF1      0.079000
     17 CAQ         0.8910   -1.4310   -2.9370 c3        1 NF1      0.067800
     18 NAR         0.1230   -1.3160   -4.2070 ny        1 NF1     -0.748000
     19 CAS        -0.4700   -2.6300   -4.6120 c3        1 NF1      0.117500
     20 CAT        -1.3180   -2.5220   -5.8270 cc        1 NF1      0.172700
     21 SAX        -2.4850   -3.6600   -6.2920 ss        1 NF1     -0.004800
     22 NAU        -1.2040   -1.4920   -6.7230 nd        1 NF1     -0.317000
     23 NAV        -2.0030   -1.5930   -7.7290 nd        1 NF1     -0.291000
     24 CAW        -2.7870   -2.7140   -7.6850 cc        1 NF1      0.389700
     25 CAY        -3.7760   -3.0740   -8.7150 c3        1 NF1     -0.152400
     26 H1          0.1710    0.0940    2.3250 ha        1 NF1      0.167500
     27 H2          1.2980    0.2640    4.5450 ha        1 NF1      0.159500
     28 H3          3.7920    0.2380    4.7000 ha        1 NF1      0.154000
     29 H4          6.0010    0.1090    3.5880 ha        1 NF1      0.154000
     30 H5          7.3530   -0.0870    1.4950 ha        1 NF1      0.159500
     31 H6          6.2250   -0.2500   -0.7250 ha        1 NF1      0.167500
     32 H7          2.2530    0.2590   -3.3040 h1        1 NF1      0.091200
     33 H8          0.6780    0.6980   -2.4530 h1        1 NF1      0.091200
     34 H9          0.1870   -1.7850   -2.1270 hx        1 NF1      0.117700
     35 H10         1.7080   -2.1940   -3.0850 hx        1 NF1      0.117700
     36 H11         0.7430   -0.9780   -4.9570 hn        1 NF1      0.465300
     37 H13         0.3860   -3.3450   -4.8010 hx        1 NF1      0.113200
     38 H14        -1.0830   -3.0150   -3.7440 hx        1 NF1      0.113200
     39 H15        -4.2940   -4.0290   -8.4510 hc        1 NF1      0.084700
     40 H16        -3.2750   -3.1990   -9.7110 hc        1 NF1      0.084700
     41 H17        -4.5450   -2.2630   -8.8180 hc        1 NF1      0.084700
     42 HAR2       -0.6300   -0.6250   -4.0930 hn        1 NF1      0.465300
@<TRIPOS>BOND
     1    1    2 2   
     2    2    3 1   
     3    2   15 1   
     4    3    4 ar  
     5    3    5 ar  
     6    4    8 ar  
     7    4   12 ar  
     8    5    6 ar  
     9    5   26 1   
    10    6    7 ar  
    11    6   27 1   
    12    7    8 ar  
    13    7   28 1   
    14    8    9 ar  
    15    9   10 ar  
    16    9   29 1   
    17   10   11 ar  
    18   10   30 1   
    19   11   12 ar  
    20   11   31 1   
    21   12   13 1   
    22   13   14 2   
    23   13   15 1   
    24   15   16 1   
    25   16   17 1   
    26   16   32 1   
    27   16   33 1   
    28   17   18 1   
    29   17   34 1   
    30   17   35 1   
    31   18   19 1   
    32   18   36 1   
    33   18   42 1   
    34   19   20 1   
    35   19   37 1   
    36   19   38 1   
    37   20   21 1   
    38   20   22 2   
    39   21   24 1   
    40   22   23 1   
    41   23   24 2   
    42   24   25 1   
    43   25   39 1   
    44   25   40 1   
    45   25   41 1   
@<TRIPOS>SUBSTRUCTURE
     1 NF1         1 TEMP              0 ****  ****    0 ROOT
