@<TRIPOS>MOLECULE
NF1
   41    44     1     0     0
SMALL
bcc


@<TRIPOS>ATOM
      1 OAN        -0.0640   -0.6890    0.2760 o         1 NF1     -0.610500
      2 CAM         1.1410   -0.3880    0.1870 c         1 NF1      0.721600
      3 CAE         2.0190   -0.3170    1.3790 ca        1 NF1     -0.155600
      4 CAD         3.3930    0.0090    1.2190 ca        1 NF1      0.019000
      5 CAF         1.5030   -0.5690    2.6350 ca        1 NF1     -0.034000
      6 CAA         2.3430   -0.5020    3.7710 ca        1 NF1     -0.150000
      7 CAB         3.6750   -0.1880    3.6390 ca        1 NF1     -0.074000
      8 CAC         4.2330    0.0750    2.3580 ca        1 NF1     -0.063000
      9 CAG         5.6040    0.4030    2.1820 ca        1 NF1     -0.074000
     10 CAH         6.1080    0.6510    0.9270 ca        1 NF1     -0.150000
     11 CAI         5.2710    0.5850   -0.2110 ca        1 NF1     -0.034000
     12 CAJ         3.9340    0.2700   -0.0690 ca        1 NF1     -0.155600
     13 CAK         3.0570    0.2010   -1.2620 c         1 NF1      0.721600
     14 OAO         3.4940    0.4090   -2.4080 o         1 NF1     -0.610500
     15 NAL         1.6930   -0.0980   -1.0750 n         1 NF1     -0.493400
     16 CAP         0.8200   -0.1520   -2.2350 c3        1 NF1      0.083000
     17 CAQ         0.6270   -1.5870   -2.7770 c3        1 NF1      0.145800
     18 NAR        -0.3140   -1.6130   -3.8810 n3        1 NF1     -0.831200
     19 CAS        -0.5800   -2.9600   -4.3550 c3        1 NF1      0.132500
     20 CAT        -1.3290   -2.9440   -5.6490 cc        1 NF1      0.329700
     21 SAX        -1.2000   -1.6920   -6.8120 ss        1 NF1     -0.111800
     22 NAU        -2.1580   -3.9420   -6.0470 nd        1 NF1     -0.321000
     23 NAV        -2.6780   -3.7460   -7.2220 nd        1 NF1     -0.321000
     24 CAW        -2.2840   -2.5800   -7.8010 cc        1 NF1      0.331700
     25 CAY        -2.7310   -2.1160   -9.1270 c3        1 NF1     -0.128400
     26 H1          0.4350   -0.8230    2.7510 ha        1 NF1      0.165000
     27 H2          1.9100   -0.7060    4.7620 ha        1 NF1      0.146000
     28 H3          4.3310   -0.1350    4.5220 ha        1 NF1      0.141000
     29 H4          6.2540    0.4530    3.0700 ha        1 NF1      0.141000
     30 H5          7.1710    0.9040    0.7890 ha        1 NF1      0.146000
     31 H6          5.6860    0.7860   -1.2140 ha        1 NF1      0.165000
     32 H7         -0.1800    0.2740   -1.9320 h1        1 NF1      0.080700
     33 H8          1.2620    0.4950   -3.0460 h1        1 NF1      0.080700
     34 H9          0.3000   -2.2560   -1.9260 h1        1 NF1      0.046200
     35 H10         1.6150   -1.9700   -3.1580 h1        1 NF1      0.046200
     36 H11        -1.1710   -1.1580   -3.6230 hn        1 NF1      0.365800
     37 H13         0.4080   -3.4790   -4.5330 h1        1 NF1      0.064200
     38 H14        -1.1500   -3.5790   -3.5990 h1        1 NF1      0.064200
     39 H15        -2.2670   -1.1290   -9.3720 hc        1 NF1      0.060367
     40 H16        -2.4400   -2.8550   -9.9180 hc        1 NF1      0.060367
     41 H17        -3.8450   -2.0050   -9.1490 hc        1 NF1      0.060367
@<TRIPOS>BOND
     1    1    2 2   
     2    2    3 1   
     3    2   15 1   
     4    3    4 ar  
     5    3    5 ar  
     6    4    8 ar  
     7    4   12 ar  
     8    5    6 ar  
     9    5   26 1   
    10    6    7 ar  
    11    6   27 1   
    12    7    8 ar  
    13    7   28 1   
    14    8    9 ar  
    15    9   10 ar  
    16    9   29 1   
    17   10   11 ar  
    18   10   30 1   
    19   11   12 ar  
    20   11   31 1   
    21   12   13 1   
    22   13   14 2   
    23   13   15 1   
    24   15   16 1   
    25   16   17 1   
    26   16   32 1   
    27   16   33 1   
    28   17   18 1   
    29   17   34 1   
    30   17   35 1   
    31   18   19 1   
    32   18   36 1   
    33   19   20 1   
    34   19   37 1   
    35   19   38 1   
    36   20   21 1   
    37   20   22 2   
    38   21   24 1   
    39   22   23 1   
    40   23   24 2   
    41   24   25 1   
    42   25   39 1   
    43   25   40 1   
    44   25   41 1   
@<TRIPOS>SUBSTRUCTURE
     1 NF1         1 TEMP              0 ****  ****    0 ROOT
