@<TRIPOS>MOLECULE
NF2
   35    36     1     0     0
SMALL
bcc


@<TRIPOS>ATOM
      1 F2          0.0710    3.8070   -0.0260 f         1 NF2     -0.181900
      2 C2          1.2110    3.1350    0.3020 ca        1 NF2      0.095900
      3 C3          2.4330    3.6160   -0.1850 ca        1 NF2     -0.240000
      4 C4          3.6140    2.9310    0.1500 ca        1 NF2      0.095900
      5 F4          4.7940    3.4080   -0.3320 f         1 NF2     -0.170900
      6 C1          1.1570    1.9800    1.1140 ca        1 NF2     -0.152300
      7 C6          2.3420    1.3180    1.4350 ca        1 NF2     -0.040000
      8 C5          3.5800    1.7790    0.9600 ca        1 NF2     -0.079300
      9 CM          4.8130    1.0440    1.3170 c3        1 NF2     -0.091800
     10 C1'        -0.1660    1.5070    1.6310 c3        1 NF2      0.173400
     11 O4'        -0.0140    0.6920    2.7890 os        1 NF2     -0.380600
     12 C2'        -0.9580    0.6970    0.5780 c3        1 NF2      0.076100
     13 O2'        -1.9960    1.4420   -0.0390 oh        1 NF2     -0.630800
     14 C3'        -1.5710   -0.4720    1.3780 c3        1 NF2      0.112100
     15 O3'        -2.8970   -0.2120    1.8090 oh        1 NF2     -0.607800
     16 C4'        -0.6600   -0.5890    2.6180 c3        1 NF2      0.102100
     17 C5'         0.3630   -1.7330    2.4340 c3        1 NF2      0.231400
     18 O5'         1.0020   -2.0170    3.6060 os        1 NF2     -0.551200
     19 P           2.6680   -2.4790    3.3740 p5        1 NF2      1.338900
     20 OP1         3.1500   -2.7490    4.7650 o         1 NF2     -0.929500
     21 OP2         3.2000   -1.2250    2.7080 o         1 NF2     -0.929500
     22 OP3         2.5120   -3.6410    2.4370 o         1 NF2     -0.929500
     23 H3          2.4690    4.5120   -0.8160 ha        1 NF2      0.126000
     24 H6          2.3340    0.3830    2.0830 ha        1 NF2      0.303000
     25 HM1         5.4160    0.8310    0.4010 hc        1 NF2      0.072700
     26 HM2         5.4370    1.6620    2.0100 hc        1 NF2      0.072700
     27 HM3         4.5440    0.0690    1.8350 hc        1 NF2      0.072700
     28 H1'        -0.7730    2.4050    1.9510 h1        1 NF2      0.037700
     29 H2'        -0.2730    0.3050   -0.2210 h1        1 NF2      0.064700
     30 HO2'       -1.6540    2.3350   -0.1720 ho        1 NF2      0.413000
     31 H3'        -1.5690   -1.4130    0.7660 h1        1 NF2      0.055700
     32 HO3'       -3.3650    0.1780    1.0610 ho        1 NF2      0.395000
     33 H4'        -1.2500   -0.7360    3.5600 h1        1 NF2      0.079700
     34 H5'         1.0940   -1.4500    1.6240 h1        1 NF2     -0.002800
     35 H5''       -0.2520   -2.6200    2.0830 h1        1 NF2     -0.002800
@<TRIPOS>BOND
     1    1    2 1   
     2    2    3 ar  
     3    2    6 ar  
     4    3    4 ar  
     5    3   23 1   
     6    4    5 1   
     7    4    8 ar  
     8    6    7 ar  
     9    6   10 1   
    10    7    8 ar  
    11    7   24 1   
    12    8    9 1   
    13    9   25 1   
    14    9   26 1   
    15    9   27 1   
    16   10   11 1   
    17   10   12 1   
    18   10   28 1   
    19   11   16 1   
    20   12   13 1   
    21   12   14 1   
    22   12   29 1   
    23   13   30 1   
    24   14   15 1   
    25   14   16 1   
    26   14   31 1   
    27   15   32 1   
    28   16   17 1   
    29   16   33 1   
    30   17   18 1   
    31   17   34 1   
    32   17   35 1   
    33   18   19 1   
    34   19   20 1   
    35   19   21 1   
    36   19   22 1   
@<TRIPOS>SUBSTRUCTURE
     1 NF2         1 TEMP              0 ****  ****    0 ROOT
