@<TRIPOS>MOLECULE
NF2
   35    34     1     0     0
SMALL
bcc


@<TRIPOS>ATOM
      1 F2          1.8940   -0.4390    0.1290 f         1 NF2     -0.061000
      2 C2          1.2090   -0.5180    1.2960 c2        1 NF2      0.146000
      3 C3          1.8880   -0.5030    2.4940 c2        1 NF2     -0.228000
      4 C4          1.1950   -0.6480    3.6820 c1        1 NF2      0.074000
      5 F4          1.8610   -0.6850    4.8500 f         1 NF2     -0.135000
      6 C1         -0.1520   -0.6760    1.2810 c1        1 NF2     -0.079000
      7 C6         -0.8460   -0.8210    2.4700 c1        1 NF2     -0.090000
      8 C5         -0.1730   -0.8070    3.6660 c2        1 NF2     -0.145000
      9 CM         -0.9310   -1.1490    4.9800 c3        1 NF2     -0.159000
     10 C1'        -0.8180   -0.7910    0.0810 c3        1 NF2      0.051000
     11 O4'         0.1650   -1.0340   -1.0480 os        1 NF2     -0.298000
     12 C2'        -1.5620    0.5790   -0.2780 c3        1 NF2     -0.078000
     13 O2'        -2.9570    0.3020   -0.7380 oh        1 NF2     -0.393000
     14 C3'        -0.8960    1.0710   -1.2010 c3        1 NF2      0.165000
     15 O3'        -1.7940    1.8040   -2.1500 oh        1 NF2     -0.716000
     16 C4'        -0.1740   -0.1920   -1.9700 c3        1 NF2     -0.064000
     17 C5'         1.0650    0.2860   -2.7240 c3        1 NF2      0.033000
     18 O5'         0.7260    0.5690   -4.0680 os        1 NF2     -0.759000
     19 P           1.9050    0.8630   -5.1110 p5        1 NF2      1.583500
     20 OP1         2.7760    1.9490   -4.5890 o         1 NF2     -0.737500
     21 OP2         2.7210   -0.3770   -5.3020 o         1 NF2     -0.737500
     22 OP3         1.3170    1.2810   -6.4220 o         1 NF2     -0.737500
     23 H3          2.8390   -0.3130    2.5090 ha        1 NF2      0.147000
     24 H6         -1.8010   -0.9520    2.4580 ha        1 NF2      0.167000
     25 HM1        -1.3310   -0.3160    5.3610 hc        1 NF2      0.072000
     26 HM2        -0.3110   -1.5310    5.6190 hc        1 NF2      0.072000
     27 HM3        -1.6440   -1.7960    4.7890 hc        1 NF2      0.072000
     28 H1'        -1.4630   -1.5220    0.1260 h1        1 NF2      0.082000
     29 H2'        -1.5690    1.1770    0.4930 h1        1 NF2      0.062000
     30 HO2'       -3.5190    0.7530   -0.2460 ho        1 NF2      0.236000
     31 H3'        -0.2410    1.6590   -0.8500 h1        1 NF2     -0.025000
     32 HO3'       -1.7320    2.7050   -1.9950 ho        1 NF2      0.242000
     33 H4'        -0.7960   -0.6060   -2.5840 h1        1 NF2      0.100000
     34 H5'         1.7430   -0.4050   -2.7020 h1        1 NF2      0.069500
     35 H5''        1.4070    1.0840   -2.3040 h1        1 NF2      0.069500
@<TRIPOS>BOND
     1    1    2 1   
     2    2    3 1   
     3    2    6 1   
     4    3    4 1   
     5    3   23 1   
     6    4    8 1   
     7    6   10 1   
     8    7    8 1   
     9    7   24 1   
    10    8    9 1   
    11    9   25 1   
    12    9   26 1   
    13    9   27 1   
    14   10   11 1   
    15   10   12 1   
    16   10   28 1   
    17   11   16 1   
    18   12   13 1   
    19   12   14 1   
    20   12   29 1   
    21   13   30 1   
    22   14   15 1   
    23   14   16 1   
    24   14   31 1   
    25   15   32 1   
    26   16   17 1   
    27   16   33 1   
    28   17   18 1   
    29   17   34 1   
    30   17   35 1   
    31   18   19 1   
    32   19   20 1   
    33   19   21 1   
    34   19   22 1   
@<TRIPOS>SUBSTRUCTURE
     1 NF2         1 TEMP              0 ****  ****    0 ROOT
