@<TRIPOS>MOLECULE
NF5
   38    40     1     0     0
SMALL
bcc


@<TRIPOS>ATOM
      1 BR1        -0.1180   -0.5030   -0.4430 br        1 NF5     -0.076100
      2 C2          1.7220   -0.2050   -0.2620 ca        1 NF5     -0.008900
      3 C3          2.3510   -0.4400    0.9640 ca        1 NF5     -0.111000
      4 C4          3.7210   -0.2190    1.0970 ca        1 NF5     -0.093000
      5 C5          4.4680    0.2270    0.0020 ca        1 NF5     -0.135600
      6 C6          3.8370    0.4710   -1.2210 ca        1 NF5     -0.093000
      7 C7          2.4660    0.2560   -1.3520 ca        1 NF5     -0.111000
      8 C8          5.9320    0.4650    0.1960 c         1 NF5      0.677700
      9 O9          6.3570    1.0150    1.2290 o         1 NF5     -0.580100
     10 N10         6.7540    0.0260   -0.8310 n         1 NF5     -0.466100
     11 C11         8.1570    0.0990   -0.8900 ca        1 NF5      0.063600
     12 C12         8.8260   -0.6300   -1.9020 ca        1 NF5     -0.184000
     13 C13        10.2080   -0.5690   -2.0070 ca        1 NF5     -0.103000
     14 C14        10.9720    0.2030   -1.1250 ca        1 NF5     -0.098300
     15 C15        12.4500    0.2560   -1.2780 c3        1 NF5     -0.031100
     16 C16        13.1880   -0.3070   -0.0610 c3        1 NF5      0.170800
     17 N17        13.2930    0.6130    1.0510 n3        1 NF5     -0.827200
     18 C20        12.0490    0.9660    1.7010 c3        1 NF5      0.170800
     19 C21        11.0890    1.7800    0.8290 c3        1 NF5     -0.038100
     20 C22        10.3180    0.9290   -0.1190 ca        1 NF5     -0.047300
     21 C23         8.9250    0.8790   -0.0030 ca        1 NF5     -0.151000
     22 H3          1.7730   -0.7940    1.8320 ha        1 NF5      0.153000
     23 H4          4.2210   -0.3830    2.0660 ha        1 NF5      0.152500
     24 H6          4.4070    0.8510   -2.0830 ha        1 NF5      0.152500
     25 H7          1.9760    0.4560   -2.3190 ha        1 NF5      0.153000
     26 HN10        6.3200   -0.4730   -1.5760 hn        1 NF5      0.318500
     27 H12         8.2610   -1.2500   -2.6140 ha        1 NF5      0.128000
     28 H13        10.7100   -1.1430   -2.8030 ha        1 NF5      0.131000
     29 H15        12.7650    1.3180   -1.4660 hc        1 NF5      0.055200
     30 H15A       12.7630   -0.3490   -2.1710 hc        1 NF5      0.055200
     31 H16        12.6930   -1.2790    0.2330 h1        1 NF5      0.028700
     32 H16A       14.2430   -0.5480   -0.3820 h1        1 NF5      0.028700
     33 HN17       13.9260    0.2360    1.7330 hn        1 NF5      0.361800
     34 H20        11.4940    0.0580    2.0830 h1        1 NF5      0.031200
     35 H20A       12.3190    1.5990    2.5950 h1        1 NF5      0.031200
     36 H21        10.3860    2.3210    1.5190 hc        1 NF5      0.060700
     37 H21A       11.6560    2.5570    0.2490 hc        1 NF5      0.060700
     38 H23         8.4340    1.4580    0.7970 ha        1 NF5      0.171000
@<TRIPOS>BOND
     1    1    2 1   
     2    2    3 ar  
     3    2    7 ar  
     4    3    4 ar  
     5    3   22 1   
     6    4    5 ar  
     7    4   23 1   
     8    5    6 ar  
     9    5    8 1   
    10    6    7 ar  
    11    6   24 1   
    12    7   25 1   
    13    8    9 2   
    14    8   10 1   
    15   10   11 1   
    16   10   26 1   
    17   11   12 ar  
    18   11   21 ar  
    19   12   13 ar  
    20   12   27 1   
    21   13   14 ar  
    22   13   28 1   
    23   14   15 1   
    24   14   20 ar  
    25   15   16 1   
    26   15   29 1   
    27   15   30 1   
    28   16   17 1   
    29   16   31 1   
    30   16   32 1   
    31   17   18 1   
    32   17   33 1   
    33   18   19 1   
    34   18   34 1   
    35   18   35 1   
    36   19   20 1   
    37   19   36 1   
    38   19   37 1   
    39   20   21 ar  
    40   21   38 1   
@<TRIPOS>SUBSTRUCTURE
     1 NF5         1 TEMP              0 ****  ****    0 ROOT
