@<TRIPOS>MOLECULE
NF5
   38    40     1     0     0
SMALL
bcc


@<TRIPOS>ATOM
      1 BR1        -0.1180   -0.4950   -0.4570 br        1 NF5     -0.076100
      2 C2          1.7220   -0.2010   -0.2710 ca        1 NF5     -0.008900
      3 C3          2.3510   -0.4510    0.9530 ca        1 NF5     -0.111000
      4 C4          3.7200   -0.2330    1.0890 ca        1 NF5     -0.093000
      5 C5          4.4680    0.2270   -0.0010 ca        1 NF5     -0.135600
      6 C6          3.8380    0.4860   -1.2200 ca        1 NF5     -0.093000
      7 C7          2.4660    0.2740   -1.3550 ca        1 NF5     -0.111000
      8 C8          5.9320    0.4620    0.1970 c         1 NF5      0.677700
      9 O9          6.3570    0.9990    1.2360 o         1 NF5     -0.580100
     10 N10         6.7550    0.0350   -0.8350 n         1 NF5     -0.466100
     11 C11         8.1580    0.1080   -0.8920 ca        1 NF5      0.063600
     12 C12         8.8270   -0.6110   -1.9120 ca        1 NF5     -0.184000
     13 C13        10.2090   -0.5500   -2.0150 ca        1 NF5     -0.103000
     14 C14        10.9720    0.2120   -1.1250 ca        1 NF5     -0.098300
     15 C15        12.4500    0.2660   -1.2760 c3        1 NF5     -0.031100
     16 C16        13.1880   -0.3110   -0.0650 c3        1 NF5      0.170800
     17 N17        13.2920    0.5970    1.0580 n3        1 NF5     -0.827200
     18 C20        12.0480    0.9430    1.7110 c3        1 NF5      0.170800
     19 C21        11.0890    1.7670    0.8480 c3        1 NF5     -0.038100
     20 C22        10.3180    0.9270   -0.1100 ca        1 NF5     -0.047300
     21 C23         8.9260    0.8770    0.0040 ca        1 NF5     -0.151000
     22 H3          1.7720   -0.8160    1.8160 ha        1 NF5      0.153000
     23 H4          4.2200   -0.4090    2.0550 ha        1 NF5      0.152500
     24 H6          4.4080    0.8770   -2.0770 ha        1 NF5      0.152500
     25 H7          1.9770    0.4850   -2.3190 ha        1 NF5      0.153000
     26 HN10        6.3210   -0.4560   -1.5860 hn        1 NF5      0.318500
     27 H12         8.2610   -1.2230   -2.6310 ha        1 NF5      0.128000
     28 H13        10.7110   -1.1140   -2.8170 ha        1 NF5      0.131000
     29 H15        12.7670    1.3300   -1.4510 hc        1 NF5      0.055200
     30 H15A       12.7640   -0.3290   -2.1750 hc        1 NF5      0.055200
     31 H16        12.6910   -1.2860    0.2180 h1        1 NF5      0.028700
     32 H16A       14.2430   -0.5490   -0.3880 h1        1 NF5      0.028700
     33 HN17       13.9250    0.2110    1.7360 hn        1 NF5      0.361800
     34 H20        11.4920    0.0320    2.0820 h1        1 NF5      0.031200
     35 H20A       12.3180    1.5670    2.6120 h1        1 NF5      0.031200
     36 H21        10.3860    2.3010    1.5420 hc        1 NF5      0.060700
     37 H21A       11.6570    2.5510    0.2770 hc        1 NF5      0.060700
     38 H23         8.4340    1.4480    0.8100 ha        1 NF5      0.171000
@<TRIPOS>BOND
     1    1    2 1   
     2    2    3 ar  
     3    2    7 ar  
     4    3    4 ar  
     5    3   22 1   
     6    4    5 ar  
     7    4   23 1   
     8    5    6 ar  
     9    5    8 1   
    10    6    7 ar  
    11    6   24 1   
    12    7   25 1   
    13    8    9 2   
    14    8   10 1   
    15   10   11 1   
    16   10   26 1   
    17   11   12 ar  
    18   11   21 ar  
    19   12   13 ar  
    20   12   27 1   
    21   13   14 ar  
    22   13   28 1   
    23   14   15 1   
    24   14   20 ar  
    25   15   16 1   
    26   15   29 1   
    27   15   30 1   
    28   16   17 1   
    29   16   31 1   
    30   16   32 1   
    31   17   18 1   
    32   17   33 1   
    33   18   19 1   
    34   18   34 1   
    35   18   35 1   
    36   19   20 1   
    37   19   36 1   
    38   19   37 1   
    39   20   21 ar  
    40   21   38 1   
@<TRIPOS>SUBSTRUCTURE
     1 NF5         1 TEMP              0 ****  ****    0 ROOT
