@<TRIPOS>MOLECULE
NF5
   38    40     1     0     0
SMALL
bcc


@<TRIPOS>ATOM
      1 Br1        -0.1170   -0.5090   -0.4530 br        1 NF5     -0.076100
      2 C2          1.7220   -0.2100   -0.2700 ca        1 NF5     -0.008900
      3 C3          2.3510   -0.4440    0.9570 ca        1 NF5     -0.111000
      4 C4          3.7200   -0.2230    1.0910 ca        1 NF5     -0.093000
      5 C5          4.4680    0.2250   -0.0030 ca        1 NF5     -0.135600
      6 C6          3.8380    0.4690   -1.2260 ca        1 NF5     -0.093000
      7 C7          2.4670    0.2530   -1.3590 ca        1 NF5     -0.111000
      8 C8          5.9320    0.4640    0.1930 c         1 NF5      0.677700
      9 O9          6.3550    1.0130    1.2270 o         1 NF5     -0.580100
     10 N10         6.7550    0.0260   -0.8330 ns        1 NF5     -0.466100
     11 C11         8.1580    0.1000   -0.8900 ca        1 NF5      0.063600
     12 C12         8.8290   -0.6270   -1.9030 ca        1 NF5     -0.184000
     13 C13        10.2110   -0.5650   -2.0070 ca        1 NF5     -0.103000
     14 C14        10.9730    0.2060   -1.1230 ca        1 NF5     -0.098300
     15 C15        12.4510    0.2600   -1.2730 c3        1 NF5     -0.031100
     16 C16        13.1890   -0.3040   -0.0570 c3        1 NF5      0.170800
     17 N17        13.2910    0.6140    1.0570 n7        1 NF5     -0.827200
     18 C20        12.0460    0.9650    1.7060 c3        1 NF5      0.170800
     19 C21        11.0870    1.7800    0.8350 c3        1 NF5     -0.038100
     20 C22        10.3170    0.9300   -0.1150 ca        1 NF5     -0.047300
     21 C23         8.9250    0.8790   -0.0020 ca        1 NF5     -0.151000
     22 H3          1.7710   -0.7990    1.8240 ha        1 NF5      0.153000
     23 H4          4.2190   -0.3870    2.0600 ha        1 NF5      0.152500
     24 H6          4.4090    0.8500   -2.0870 ha        1 NF5      0.152500
     25 H7          1.9780    0.4520   -2.3260 ha        1 NF5      0.153000
     26 HN10        6.3220   -0.4730   -1.5790 hn        1 NF5      0.318500
     27 H12         8.2640   -1.2460   -2.6170 ha        1 NF5      0.128000
     28 H13        10.7140   -1.1370   -2.8020 ha        1 NF5      0.131000
     29 H15        12.7660    1.3230   -1.4590 hc        1 NF5      0.055200
     30 H15A       12.7660   -0.3430   -2.1670 hc        1 NF5      0.055200
     31 H16        12.6930   -1.2770    0.2350 h1        1 NF5      0.028700
     32 H16A       14.2440   -0.5440   -0.3770 h1        1 NF5      0.028700
     33 HN17       13.9240    0.2360    1.7390 hn        1 NF5      0.361800
     34 H20        12.3150    1.5970    2.6020 h1        1 NF5      0.031200
     35 H20A       11.4910    0.0570    2.0860 h1        1 NF5      0.031200
     36 H21        11.6540    2.5590    0.2570 hc        1 NF5      0.060700
     37 H21A       10.3830    2.3190    1.5240 hc        1 NF5      0.060700
     38 H23         8.4320    1.4570    0.7990 ha        1 NF5      0.171000
@<TRIPOS>BOND
     1    1    2 1   
     2    2    3 ar  
     3    2    7 ar  
     4    3    4 ar  
     5    3   22 1   
     6    4    5 ar  
     7    4   23 1   
     8    5    6 ar  
     9    5    8 1   
    10    6    7 ar  
    11    6   24 1   
    12    7   25 1   
    13    8    9 2   
    14    8   10 1   
    15   10   11 1   
    16   10   26 1   
    17   11   12 ar  
    18   11   21 ar  
    19   12   13 ar  
    20   12   27 1   
    21   13   14 ar  
    22   13   28 1   
    23   14   15 1   
    24   14   20 ar  
    25   15   16 1   
    26   15   29 1   
    27   15   30 1   
    28   16   17 1   
    29   16   31 1   
    30   16   32 1   
    31   17   18 1   
    32   17   33 1   
    33   18   19 1   
    34   18   34 1   
    35   18   35 1   
    36   19   20 1   
    37   19   36 1   
    38   19   37 1   
    39   20   21 ar  
    40   21   38 1   
@<TRIPOS>SUBSTRUCTURE
     1 NF5         1 TEMP              0 ****  ****    0 ROOT
