@<TRIPOS>MOLECULE
NF6
   50    53     1     0     0
SMALL
bcc


@<TRIPOS>ATOM
      1 OAH         0.2180    0.1240   -0.2340 o         1 NF6     -0.640500
      2 CAC         1.4560    0.0130   -0.1390 c         1 NF6      0.735100
      3 CAD         2.1900    0.0750    1.1360 ca        1 NF6     -0.188600
      4 CAE         3.6000   -0.1280    1.1540 ca        1 NF6      0.065000
      5 CAF         4.2900   -0.4480   -0.0450 ca        1 NF6     -0.227600
      6 CAM         5.6540   -0.6960   -0.0110 ca        1 NF6      0.026000
      7 CAL         6.3690   -0.5810    1.1840 ca        1 NF6     -0.240000
      8 CAK         5.7410   -0.2180    2.3860 ca        1 NF6      0.243600
      9 NAZ         6.4650   -0.0990    3.5780 nh        1 NF6     -0.661000
     10 CBA         7.7660   -0.7190    3.6430 c3        1 NF6      0.175600
     11 CBB         6.3550    1.1290    4.3340 c3        1 NF6      0.175600
     12 CAJ         4.3030   -0.0380    2.3840 ca        1 NF6     -0.093000
     13 CAP         3.5500    0.1730    3.5710 ca        1 NF6     -0.039000
     14 CAO         2.1840    0.3540    3.5320 ca        1 NF6     -0.172000
     15 CAN         1.4940    0.3220    2.3070 ca        1 NF6     -0.005000
     16 CAG         3.5730   -0.5220   -1.3230 c         1 NF6      0.741100
     17 OAI         4.0990   -0.8530   -2.4020 o         1 NF6     -0.627500
     18 NAB         2.1920   -0.1990   -1.3270 n         1 NF6     -0.511400
     19 CAA         1.4980   -0.1030   -2.5830 c3        1 NF6      0.081000
     20 CAW         0.6870   -1.3900   -2.8910 c3        1 NF6      0.066800
     21 NAX        -0.0610   -1.2640   -4.1720 ny        1 NF6     -0.748000
     22 CAY        -0.8770   -2.4870   -4.4530 c3        1 NF6      0.115500
     23 CAQ        -1.5710   -2.4250   -5.7660 cc        1 NF6      0.176700
     24 SAU        -2.2780   -3.7570   -6.5420 ss        1 NF6     -0.008800
     25 NAR        -1.7360   -1.2610   -6.4690 nd        1 NF6     -0.318000
     26 NAS        -2.3880   -1.4120   -7.5710 nd        1 NF6     -0.291000
     27 CAT        -2.7790   -2.7040   -7.7940 cc        1 NF6      0.389700
     28 CAV        -3.5430   -3.1480   -8.9730 c3        1 NF6     -0.151400
     29 H1          6.1840   -0.9620   -0.9430 ha        1 NF6      0.165000
     30 H2          7.4560   -0.7630    1.1510 ha        1 NF6      0.156000
     31 H3          7.7090   -1.7610    3.2310 h1        1 NF6      0.051200
     32 H4          8.5480   -0.1420    3.0770 h1        1 NF6      0.051200
     33 H5          8.0720   -0.7720    4.7220 h1        1 NF6      0.051200
     34 H6          6.1840    0.8660    5.4120 h1        1 NF6      0.051200
     35 H7          5.5060    1.7620    3.9660 h1        1 NF6      0.051200
     36 H8          7.3020    1.7310    4.2590 h1        1 NF6      0.051200
     37 H9          4.0560    0.1670    4.5510 ha        1 NF6      0.158000
     38 H10         1.6180    0.5180    4.4630 ha        1 NF6      0.156000
     39 H11         0.4020    0.4820    2.2780 ha        1 NF6      0.166000
     40 H12         0.7850    0.7710   -2.5320 h1        1 NF6      0.090200
     41 H13         1.3810   -2.2740   -2.9710 hx        1 NF6      0.117700
     42 H14         0.5980   -1.1080   -4.9450 hn        1 NF6      0.465300
     43 H15        -1.6370   -2.5870   -3.6210 hx        1 NF6      0.113200
     44 H16        -0.1830   -3.3790   -4.4250 hx        1 NF6      0.113200
     45 H17        -3.7350   -4.2480   -8.9300 hc        1 NF6      0.084367
     46 H18        -4.5270   -2.6120   -9.0230 hc        1 NF6      0.084367
     47 H19        -2.9780   -2.9160   -9.9140 hc        1 NF6      0.084367
     48 H20         2.2510    0.0720   -3.4050 h1        1 NF6      0.090200
     49 H21        -0.0580   -1.5690   -2.0600 hx        1 NF6      0.117700
     50 HAX2       -0.6840   -0.4450   -4.1270 hn        1 NF6      0.465300
@<TRIPOS>BOND
     1    1    2 2   
     2    2    3 1   
     3    2   18 1   
     4    3    4 ar  
     5    3   15 ar  
     6    4    5 ar  
     7    4   12 ar  
     8    5    6 ar  
     9    5   16 1   
    10    6    7 ar  
    11    6   29 1   
    12    7    8 ar  
    13    7   30 1   
    14    8    9 1   
    15    8   12 ar  
    16    9   10 1   
    17    9   11 1   
    18   10   31 1   
    19   10   32 1   
    20   10   33 1   
    21   11   34 1   
    22   11   35 1   
    23   11   36 1   
    24   12   13 ar  
    25   13   14 ar  
    26   13   37 1   
    27   14   15 ar  
    28   14   38 1   
    29   15   39 1   
    30   16   17 2   
    31   16   18 1   
    32   18   19 1   
    33   19   20 1   
    34   19   40 1   
    35   19   48 1   
    36   20   21 1   
    37   20   41 1   
    38   20   49 1   
    39   21   22 1   
    40   21   42 1   
    41   21   50 1   
    42   22   23 1   
    43   22   43 1   
    44   22   44 1   
    45   23   24 1   
    46   23   25 2   
    47   24   27 1   
    48   25   26 1   
    49   26   27 2   
    50   27   28 1   
    51   28   45 1   
    52   28   46 1   
    53   28   47 1   
@<TRIPOS>SUBSTRUCTURE
     1 NF6         1 TEMP              0 ****  ****    0 ROOT
