@<TRIPOS>MOLECULE
NF6
   50    53     1     0     0
SMALL
bcc


@<TRIPOS>ATOM
      1 OAH         0.2700   -0.0290   -0.3650 o         1 NF6     -0.643500
      2 CAC         1.5090   -0.0880   -0.2310 c         1 NF6      0.735100
      3 CAD         2.1970   -0.0100    1.0690 ca        1 NF6     -0.188600
      4 CAE         3.6120   -0.1490    1.1320 ca        1 NF6      0.065000
      5 CAF         4.3560   -0.4210   -0.0470 ca        1 NF6     -0.227600
      6 CAM         5.7280   -0.6070    0.0300 ca        1 NF6      0.026000
      7 CAL         6.3970   -0.4770    1.2500 ca        1 NF6     -0.240000
      8 CAK         5.7140   -0.1600    2.4340 ca        1 NF6      0.243600
      9 NAZ         6.3920   -0.0270    3.6520 nh        1 NF6     -0.661000
     10 CBA         7.7170   -0.5890    3.7520 c3        1 NF6      0.175600
     11 CBB         6.2030    1.1850    4.4180 c3        1 NF6      0.175600
     12 CAJ         4.2690   -0.0460    2.3860 ca        1 NF6     -0.093000
     13 CAP         3.4700    0.1150    3.5490 ca        1 NF6     -0.038000
     14 CAO         2.0990    0.2350    3.4670 ca        1 NF6     -0.172000
     15 CAN         1.4520    0.1890    2.2190 ca        1 NF6     -0.005000
     16 CAG         3.6860   -0.5090   -1.3500 c         1 NF6      0.741100
     17 OAI         4.2630   -0.7960   -2.4150 o         1 NF6     -0.624500
     18 NAB         2.2910   -0.2520   -1.3950 n         1 NF6     -0.511400
     19 CAA         1.6330   -0.1730   -2.6720 c3        1 NF6      0.080000
     20 CAW         0.8720   -1.4820   -3.0100 c3        1 NF6      0.066800
     21 NAX         0.1110   -1.3530   -4.2830 n4        1 NF6     -0.748000
     22 CAY        -0.6250   -2.6140   -4.6130 c3        1 NF6      0.116500
     23 CAQ        -1.4660   -2.4810   -5.8320 cc        1 NF6      0.174700
     24 SAU        -2.7490   -3.5140   -6.2330 ss        1 NF6     -0.006800
     25 NAR        -1.2530   -1.5150   -6.7790 nd        1 NF6     -0.317000
     26 NAS        -2.0670   -1.5850   -7.7770 nd        1 NF6     -0.291000
     27 CAT        -2.9620   -2.6150   -7.6730 cc        1 NF6      0.389700
     28 CAV        -3.9920   -2.9230   -8.6790 c3        1 NF6     -0.151400
     29 H1          6.3000   -0.8360   -0.8870 ha        1 NF6      0.165000
     30 H2          7.4910   -0.6090    1.2510 ha        1 NF6      0.156000
     31 H3          7.7200   -1.6260    3.3250 h1        1 NF6      0.051200
     32 H4          7.9880   -0.6450    4.8400 h1        1 NF6      0.051200
     33 H5          8.4900    0.0300    3.2210 h1        1 NF6      0.051200
     34 H6          6.0090    0.9000    5.4870 h1        1 NF6      0.051200
     35 H7          7.1230    1.8300    4.3810 h1        1 NF6      0.051200
     36 H8          5.3380    1.7840    4.0310 h1        1 NF6      0.051200
     37 H9          3.9430    0.1190    4.5460 ha        1 NF6      0.158000
     38 H10         1.4960    0.3610    4.3800 ha        1 NF6      0.156000
     39 H11         0.3550    0.2990    2.1560 ha        1 NF6      0.165000
     40 H12         0.8930    0.6790   -2.6380 h1        1 NF6      0.090200
     41 H13         1.6010   -2.3350   -3.1170 hx        1 NF6      0.117200
     42 H14         0.7580   -1.1260   -5.0500 hn        1 NF6      0.464800
     43 H15         0.1460   -3.4270   -4.7650 hx        1 NF6      0.113200
     44 H16        -1.2690   -2.8810   -3.7240 hx        1 NF6      0.113200
     45 H17        -4.6040   -3.8030   -8.3640 hc        1 NF6      0.084367
     46 H18        -3.5150   -3.1510   -9.6690 hc        1 NF6      0.084367
     47 H19        -4.6730   -2.0430   -8.8220 hc        1 NF6      0.084367
     48 H20         2.4050    0.0290   -3.4700 h1        1 NF6      0.090200
     49 H21         0.1400   -1.7140   -2.1800 hx        1 NF6      0.117200
     50 HAX2       -0.5600   -0.5780   -4.2050 hn        1 NF6      0.464800
@<TRIPOS>BOND
     1    1    2 2   
     2    2    3 1   
     3    2   18 1   
     4    3    4 ar  
     5    3   15 ar  
     6    4    5 ar  
     7    4   12 ar  
     8    5    6 ar  
     9    5   16 1   
    10    6    7 ar  
    11    6   29 1   
    12    7    8 ar  
    13    7   30 1   
    14    8    9 1   
    15    8   12 ar  
    16    9   10 1   
    17    9   11 1   
    18   10   31 1   
    19   10   32 1   
    20   10   33 1   
    21   11   34 1   
    22   11   35 1   
    23   11   36 1   
    24   12   13 ar  
    25   13   14 ar  
    26   13   37 1   
    27   14   15 ar  
    28   14   38 1   
    29   15   39 1   
    30   16   17 2   
    31   16   18 1   
    32   18   19 1   
    33   19   20 1   
    34   19   40 1   
    35   19   48 1   
    36   20   21 1   
    37   20   41 1   
    38   20   49 1   
    39   21   22 1   
    40   21   42 1   
    41   21   50 1   
    42   22   23 1   
    43   22   43 1   
    44   22   44 1   
    45   23   24 1   
    46   23   25 2   
    47   24   27 1   
    48   25   26 1   
    49   26   27 2   
    50   27   28 1   
    51   28   45 1   
    52   28   46 1   
    53   28   47 1   
@<TRIPOS>SUBSTRUCTURE
     1 NF6         1 TEMP              0 ****  ****    0 ROOT
