@<TRIPOS>MOLECULE
NF6
   49    52     1     0     0
SMALL
bcc


@<TRIPOS>ATOM
      1 OAH        -0.0400   -0.3380    0.1650 o         1 NF6     -0.618500
      2 CAC         1.2020   -0.2620    0.0950 c         1 NF6      0.721100
      3 CAD         2.0510   -0.2390    1.3090 ca        1 NF6     -0.164600
      4 CAE         3.4650   -0.1450    1.1850 ca        1 NF6      0.038000
      5 CAF         4.0620   -0.1100   -0.1030 ca        1 NF6     -0.184600
      6 CAM         5.4360   -0.0460   -0.2240 ca        1 NF6     -0.010000
      7 CAL         6.2500    0.0170    0.9190 ca        1 NF6     -0.214000
      8 CAK         5.7050    0.0090    2.2040 ca        1 NF6      0.188600
      9 NAZ         6.5180    0.0450    3.3650 nh        1 NF6     -0.650000
     10 CBA         7.8790   -0.4090    3.2070 c3        1 NF6      0.168600
     11 CBB         6.4020    1.2400    4.1740 c3        1 NF6      0.168600
     12 CAJ         4.2720   -0.1060    2.3500 ca        1 NF6     -0.069000
     13 CAP         3.6310   -0.2180    3.6150 ca        1 NF6     -0.061000
     14 CAO         2.2620   -0.3180    3.7130 ca        1 NF6     -0.165000
     15 CAN         1.4580   -0.3190    2.5540 ca        1 NF6     -0.029000
     16 CAG         3.2200   -0.1460   -1.3200 c         1 NF6      0.726100
     17 OAI         3.7160   -0.1310   -2.4620 o         1 NF6     -0.613500
     18 NAB         1.8210   -0.1870   -1.1650 n         1 NF6     -0.493400
     19 CAA         0.9800   -0.1980   -2.3490 c3        1 NF6      0.084000
     20 CAW         0.5490   -1.6230   -2.7690 c3        1 NF6      0.145800
     21 NAX        -0.3570   -1.5900   -3.9000 n3        1 NF6     -0.831200
     22 CAY        -0.8500   -2.9080   -4.2600 c3        1 NF6      0.132500
     23 CAQ        -1.5460   -2.8870   -5.5830 cc        1 NF6      0.330700
     24 SAU        -1.1670   -1.7920   -6.8450 ss        1 NF6     -0.110800
     25 NAR        -2.5250   -3.7630   -5.9280 nd        1 NF6     -0.321000
     26 NAS        -2.9670   -3.5920   -7.1390 nd        1 NF6     -0.321000
     27 CAT        -2.3590   -2.5710   -7.7990 cc        1 NF6      0.330700
     28 CAV        -2.6790   -2.1660   -9.1800 c3        1 NF6     -0.127400
     29 H1          5.8980   -0.0310   -1.2270 ha        1 NF6      0.164000
     30 H2          7.3390    0.0840    0.7700 ha        1 NF6      0.145000
     31 H3          8.5380    0.3380    2.6850 h1        1 NF6      0.043033
     32 H4          8.2990   -0.5980    4.2310 h1        1 NF6      0.043033
     33 H5          7.8890   -1.3690    2.6280 h1        1 NF6      0.043033
     34 H6          6.6490    0.9650    5.2340 h1        1 NF6      0.043033
     35 H7          5.3570    1.6430    4.1340 h1        1 NF6      0.043033
     36 H8          7.1080    2.0490    3.8390 h1        1 NF6      0.043033
     37 H9          4.2400   -0.2440    4.5340 ha        1 NF6      0.151000
     38 H10         1.7780   -0.4050    4.6970 ha        1 NF6      0.145000
     39 H11         0.3600   -0.3910    2.6380 ha        1 NF6      0.165000
     40 H12         0.0640    0.4210   -2.1250 h1        1 NF6      0.079700
     41 H13         0.0920   -2.1420   -1.8750 h1        1 NF6      0.046200
     42 H14        -1.1250   -0.9680   -3.7170 hn        1 NF6      0.364800
     43 H15         0.0310   -3.6110   -4.3430 h1        1 NF6      0.064200
     44 H16        -1.5450   -3.3370   -3.4760 h1        1 NF6      0.064200
     45 H17        -2.4980   -3.0140   -9.8890 hc        1 NF6      0.060033
     46 H18        -3.7550   -1.8680   -9.2620 hc        1 NF6      0.060033
     47 H19        -2.0430   -1.3000   -9.4900 hc        1 NF6      0.060033
     48 H20         1.5480    0.2820   -3.1960 h1        1 NF6      0.079700
     49 H21         1.4630   -2.2050   -3.0780 h1        1 NF6      0.046200
@<TRIPOS>BOND
     1    1    2 2   
     2    2    3 1   
     3    2   18 1   
     4    3    4 ar  
     5    3   15 ar  
     6    4    5 ar  
     7    4   12 ar  
     8    5    6 ar  
     9    5   16 1   
    10    6    7 ar  
    11    6   29 1   
    12    7    8 ar  
    13    7   30 1   
    14    8    9 1   
    15    8   12 ar  
    16    9   10 1   
    17    9   11 1   
    18   10   31 1   
    19   10   32 1   
    20   10   33 1   
    21   11   34 1   
    22   11   35 1   
    23   11   36 1   
    24   12   13 ar  
    25   13   14 ar  
    26   13   37 1   
    27   14   15 ar  
    28   14   38 1   
    29   15   39 1   
    30   16   17 2   
    31   16   18 1   
    32   18   19 1   
    33   19   20 1   
    34   19   40 1   
    35   19   48 1   
    36   20   21 1   
    37   20   41 1   
    38   20   49 1   
    39   21   22 1   
    40   21   42 1   
    41   22   23 1   
    42   22   43 1   
    43   22   44 1   
    44   23   24 1   
    45   23   25 2   
    46   24   27 1   
    47   25   26 1   
    48   26   27 2   
    49   27   28 1   
    50   28   45 1   
    51   28   46 1   
    52   28   47 1   
@<TRIPOS>SUBSTRUCTURE
     1 NF6         1 TEMP              0 ****  ****    0 ROOT
