@<TRIPOS>MOLECULE
NFA
   24    22     1     0     0
SMALL
bcc


@<TRIPOS>ATOM
      1 N          -0.9920   -0.3740    1.9150 n3        1 NFA     -0.315000
      2 CA          0.2660   -0.6180    1.2970 c3        1 NFA     -0.036000
      3 C           1.2840   -0.9840    2.3530 c2        1 NFA      0.251000
      4 O           1.7710   -0.1190    3.0530 o         1 NFA     -0.384000
      5 CB          0.7200    0.6270    0.5700 c3        1 NFA     -0.115000
      6 CG         -0.0200    0.7410   -0.7450 c2        1 NFA     -0.074000
      7 CD1         0.3750   -0.0270   -1.8300 c1        1 NFA     -0.131000
      8 CD2        -1.0530    1.6540   -0.8820 c2        1 NFA     -0.101000
      9 CE1        -0.2650    0.1190   -3.0510 c1        1 NFA     -0.130000
     10 CE2        -1.6930    1.8000   -2.1030 c1        1 NFA     -0.130000
     11 CZ         -1.2990    1.0320   -3.1870 c1        1 NFA     -0.130000
     12 NXT         1.6720   -2.3390    2.5250 n         1 NFA     -0.431000
     13 H          -0.8620   -0.1460    2.7930 hn        1 NFA      0.155500
     14 H2         -1.5060   -1.1310    1.8690 hn        1 NFA      0.155500
     15 HA          0.1780   -1.3540    0.6600 h1        1 NFA      0.116000
     16 HB2         0.5300    1.4130    1.1200 hc        1 NFA      0.096000
     17 HB3         1.6810    0.5720    0.4000 hc        1 NFA      0.096000
     18 HD1         1.1030   -0.6700   -1.7340 ha        1 NFA      0.123000
     19 HD2        -1.3310    2.1950   -0.1170 ha        1 NFA      0.140000
     20 HE1         0.0130   -0.4210   -3.8150 ha        1 NFA      0.130500
     21 HE2        -2.4210    2.4430   -2.1990 ha        1 NFA      0.132000
     22 HZ         -1.7490    1.1350   -4.0480 ha        1 NFA      0.130500
     23 HXT1        1.3590   -2.9800    1.9540 hn        1 NFA      0.225000
     24 HXT2        2.2390   -2.5690    3.2040 hn        1 NFA      0.225000
@<TRIPOS>BOND
     1    1    2 1   
     2    1   13 1   
     3    1   14 1   
     4    2    3 1   
     5    2    5 1   
     6    2   15 1   
     7    3    4 1   
     8    3   12 1   
     9    5    6 1   
    10    5   16 1   
    11    5   17 1   
    12    6    7 1   
    13    6    8 1   
    14    7   18 1   
    15    8   10 1   
    16    8   19 1   
    17    9   11 1   
    18    9   20 1   
    19   10   21 1   
    20   11   22 1   
    21   12   23 1   
    22   12   24 1   
@<TRIPOS>SUBSTRUCTURE
     1 NFA         1 TEMP              0 ****  ****    0 ROOT
