@<TRIPOS>MOLECULE
NFA
   24    24     1     0     0
SMALL
bcc


@<TRIPOS>ATOM
      1 N           0.8240    1.1220    1.2490 n3        1 NFA     -0.907800
      2 CA         -0.3190    0.2310    1.2900 c3        1 NFA      0.098500
      3 C          -0.5710   -0.3030    2.7160 c         1 NFA      0.654100
      4 O          -0.7870   -1.5140    2.9280 o         1 NFA     -0.621100
      5 CB         -0.2540   -0.9730    0.3310 c3        1 NFA     -0.070100
      6 CG         -0.1380   -0.5320   -1.0830 ca        1 NFA     -0.088300
      7 CD1         1.1200   -0.2970   -1.6520 ca        1 NFA     -0.130500
      8 CD2        -1.2860   -0.3550   -1.8650 ca        1 NFA     -0.130500
      9 CE1         1.2270    0.1100   -2.9810 ca        1 NFA     -0.126000
     10 CE2        -1.1760    0.0520   -3.1940 ca        1 NFA     -0.126000
     11 CZ          0.0800    0.2870   -3.7530 ca        1 NFA     -0.130000
     12 NXT        -0.6130    0.6020    3.7430 n         1 NFA     -0.658000
     13 H           0.9120    1.5120    0.3290 hn        1 NFA      0.357800
     14 H2          1.6650    0.6240    1.4680 hn        1 NFA      0.357800
     15 HA         -1.2300    0.8450    1.0100 h1        1 NFA      0.079700
     16 HB2         0.6150   -1.6260    0.6110 hc        1 NFA      0.073700
     17 HB3        -1.1820   -1.5870    0.4770 hc        1 NFA      0.073700
     18 HD1         2.0280   -0.4470   -1.0500 ha        1 NFA      0.131500
     19 HD2        -2.2780   -0.5440   -1.4280 ha        1 NFA      0.131500
     20 HE1         2.2190    0.2890   -3.4210 ha        1 NFA      0.132500
     21 HE2        -2.0830    0.1870   -3.8020 ha        1 NFA      0.132500
     22 HZ          0.1650    0.6070   -4.8020 ha        1 NFA      0.133000
     23 HXT1       -0.7400    0.2780    4.6690 hn        1 NFA      0.316000
     24 HXT2       -0.3450    1.5420    3.6000 hn        1 NFA      0.316000
@<TRIPOS>BOND
     1    1    2 1   
     2    1   13 1   
     3    1   14 1   
     4    2    3 1   
     5    2    5 1   
     6    2   15 1   
     7    3    4 2   
     8    3   12 1   
     9    5    6 1   
    10    5   16 1   
    11    5   17 1   
    12    6    7 ar  
    13    6    8 ar  
    14    7    9 ar  
    15    7   18 1   
    16    8   10 ar  
    17    8   19 1   
    18    9   11 ar  
    19    9   20 1   
    20   10   11 ar  
    21   10   21 1   
    22   11   22 1   
    23   12   23 1   
    24   12   24 1   
@<TRIPOS>SUBSTRUCTURE
     1 NFA         1 TEMP              0 ****  ****    0 ROOT
