@<TRIPOS>MOLECULE
NFF
   52    54     1     0     0
SMALL
bcc


@<TRIPOS>ATOM
      1 C          -1.1420    2.3200   -1.2000 c         1 NFF      0.573900
      2 N           0.4750    0.5530   -0.5140 n         1 NFF     -0.531900
      3 O          -0.3730    3.2380   -0.9150 o         1 NFF     -0.550100
      4 CA         -0.8050    0.8330   -1.1110 c3        1 NFF     -0.007300
      5 CB         -1.9530    0.1320   -0.3480 c3        1 NFF      0.290600
      6 CAA         2.4770    4.2570    0.5940 c3        1 NFF     -0.110100
      7 CAI         4.2320   -4.2100    0.0170 ca        1 NFF     -0.133000
      8 CAJ         3.0560   -3.9720   -0.7340 ca        1 NFF     -0.121000
      9 CAK         4.6510    0.5450    0.9110 ca        1 NFF     -0.191000
     10 CAL         4.9060   -3.1630    0.5940 ca        1 NFF     -0.121000
     11 CAM         2.5770   -2.6950   -0.8940 ca        1 NFF     -0.104000
     12 CAN         5.1140   -0.7390    1.0470 ca        1 NFF     -0.079000
     13 CAO         3.3520    3.0610    0.8940 c3        1 NFF      0.133400
     14 NAQ        -3.1480   -0.1160   -1.1160 n3        1 NFF     -0.740200
     15 SAS        -2.4360    1.2180    1.0820 ss        1 NFF     -0.547200
     16 CAT        -4.3250   -1.8040    0.3490 c         1 NFF      0.940600
     17 CAU         1.5240    0.0050   -1.2200 c         1 NFF      0.697700
     18 CAV         3.4690    0.7900    0.1620 ca        1 NFF      0.146100
     19 CAW         2.7710   -0.2550   -0.4340 ca        1 NFF     -0.150600
     20 CAX         4.4320   -1.8300    0.4480 ca        1 NFF     -0.069000
     21 CAY         3.2530   -1.5880   -0.3050 ca        1 NFF      0.024000
     22 CBB        -4.2590   -0.3210   -0.1890 c3        1 NFF      0.015500
     23 CBC        -4.1830    0.6900    0.9960 c3        1 NFF      0.087100
     24 H          -2.1630    2.5210   -1.5960 h4        1 NFF     -0.000800
     25 HN          0.6360    0.9130    0.3970 hn        1 NFF      0.328500
     26 HAA        -0.7810    0.4380   -2.1780 h1        1 NFF      0.118700
     27 HB         -1.6420   -0.8600    0.0950 h2        1 NFF      0.160700
     28 HAAA        2.8160    4.7630   -0.3410 hc        1 NFF      0.057700
     29 HAAB        1.4150    3.9370    0.4450 hc        1 NFF      0.057700
     30 HAAC        2.5350    4.9770    1.4440 hc        1 NFF      0.057700
     31 HAI         4.5930   -5.2420    0.1330 ha        1 NFF      0.125000
     32 HAJ         2.5260   -4.8240   -1.1840 ha        1 NFF      0.137000
     33 HAK         5.1860    1.3850    1.3740 ha        1 NFF      0.135000
     34 HAL         5.8200   -3.3340    1.1810 ha        1 NFF      0.122000
     35 HAM         1.6650   -2.5040   -1.4860 ha        1 NFF      0.169000
     36 HAN         6.0270   -0.9420    1.6270 ha        1 NFF      0.128000
     37 HAO         4.4390    3.3070    0.7640 h1        1 NFF      0.031200
     38 HAOA        3.1770    2.6740    1.9320 h1        1 NFF      0.031200
     39 HNAQ       -3.3490    0.6660   -1.7180 hn        1 NFF      0.320800
     40 HBB        -5.2210   -0.1490   -0.7490 h1        1 NFF      0.065700
     41 CAB        -5.0160    1.9160    0.7100 c3        1 NFF     -0.082600
     42 CAC        -4.5820    0.0570    2.3030 c3        1 NFF     -0.082600
     43 HAB        -4.8640    2.6900    1.5000 hc        1 NFF      0.041200
     44 HABA       -4.7420    2.3580   -0.2790 hc        1 NFF      0.041200
     45 HABB       -6.1000    1.6410    0.6880 hc        1 NFF      0.041200
     46 HAC        -5.5890   -0.4210    2.1950 hc        1 NFF      0.041200
     47 HACA       -3.8510   -0.7450    2.5810 hc        1 NFF      0.041200
     48 HACB       -4.6200    0.8210    3.1160 hc        1 NFF      0.041200
     49 OAR         2.9810    2.0600   -0.0650 os        1 NFF     -0.323900
     50 OAE        -5.4780   -2.3100    0.3630 o         1 NFF     -0.820800
     51 OAF         1.4290   -0.2940   -2.4280 o         1 NFF     -0.619100
     52 OAG        -3.2670   -2.3650    0.7320 o         1 NFF     -0.820800
@<TRIPOS>BOND
     1    1    3 2   
     2    1    4 1   
     3    1   24 1   
     4    2    4 1   
     5    2   17 1   
     6    2   25 1   
     7    4    5 1   
     8    4   26 1   
     9    5   14 1   
    10    5   15 1   
    11    5   27 1   
    12    6   13 1   
    13    6   28 1   
    14    6   29 1   
    15    6   30 1   
    16    7    8 ar  
    17    7   10 ar  
    18    7   31 1   
    19    8   11 ar  
    20    8   32 1   
    21    9   12 ar  
    22    9   18 ar  
    23    9   33 1   
    24   10   20 ar  
    25   10   34 1   
    26   11   21 ar  
    27   11   35 1   
    28   12   20 ar  
    29   12   36 1   
    30   13   37 1   
    31   13   38 1   
    32   13   49 1   
    33   14   22 1   
    34   14   39 1   
    35   15   23 1   
    36   16   22 1   
    37   16   50 1   
    38   16   52 1   
    39   17   19 1   
    40   17   51 2   
    41   18   19 ar  
    42   18   49 1   
    43   19   21 ar  
    44   20   21 ar  
    45   22   23 1   
    46   22   40 1   
    47   23   41 1   
    48   23   42 1   
    49   41   43 1   
    50   41   44 1   
    51   41   45 1   
    52   42   46 1   
    53   42   47 1   
    54   42   48 1   
@<TRIPOS>SUBSTRUCTURE
     1 NFF         1 TEMP              0 ****  ****    0 ROOT
