@<TRIPOS>MOLECULE
NFF
   53    47     1     0     0
SMALL
bcc


@<TRIPOS>ATOM
      1 C          -0.3350   -1.6290   -1.6620 c2        1 NFF      0.178000
      2 N           1.1180    0.1290   -2.6330 ns        1 NFF     -0.375000
      3 O          -0.5250   -0.9830   -0.6310 o         1 NFF     -0.291000
      4 CA          0.5090   -1.1560   -2.8220 c3        1 NFF     -0.091000
      5 CB          2.7440    1.7080    0.4680 c2        1 NFF     -0.280000
      6 CAA         1.2180    5.5980    0.3500 c1        1 NFF      0.139000
      7 CAI         6.2830    1.6960   -2.1870 c2        1 NFF     -0.493000
      8 CAJ         5.7760    1.1270   -3.4120 c2        1 NFF     -0.031000
      9 CAK         2.9620    5.8600   -2.3550 c2        1 NFF     -0.173000
     10 CAL         7.5260    1.8930   -1.8120 c1        1 NFF      0.212000
     11 CAM         4.6040    1.4280   -3.9890 c2        1 NFF     -0.182000
     12 CAN         3.5430    4.7890   -2.7990 c1        1 NFF     -0.135000
     13 CAO         0.3620    4.6990    0.7390 c2        1 NFF     -0.551000
     14 NAQ         2.7840    0.7040    4.9010 n2        1 NFF     -0.202000
     15 SAS         4.2540    1.7670    0.5990 s         1 NFF      0.038000
     16 CAT         3.8070    0.2290    7.5210 c1        1 NFF      0.429000
     17 CAU         1.8270    0.7350   -3.6510 c2        1 NFF      0.356000
     18 CAV         1.3220    3.0940   -2.9500 c2        1 NFF      0.246000
     19 CAW         2.3340    2.1120   -3.3700 c2        1 NFF     -0.273000
     20 CAX         4.2000    3.7450   -3.2370 c2        1 NFF     -0.130000
     21 CAY         3.6470    2.4280   -3.5180 c2        1 NFF      0.118000
     22 CBB         1.8470    0.7830    4.0990 c1        1 NFF     -0.010000
     23 CBC         0.7480    0.8260    3.3680 c2        1 NFF     -0.164000
     24 H          -0.7830   -2.6350   -1.8210 h4        1 NFF      0.105000
     25 HN          2.1670    1.9650   -0.4430 h4        1 NFF      0.126500
     26 HAA         1.3210   -1.9230   -3.0020 h1        1 NFF      0.117000
     27 HB         -0.1420   -1.1480   -3.7480 h1        1 NFF      0.117000
     28 HAAA       -0.0450    1.5460    0.0170 ha        1 NFF      0.003500
     29 HAAB        0.0230    3.8810    0.0690 ha        1 NFF      0.206000
     30 HAAC       -0.6390    1.5040   -0.3080 ha        1 NFF      0.003500
     31 HAI         5.5030    1.9930   -1.4250 ha        1 NFF      0.233000
     32 HAJ         6.4230    0.3610   -3.8800 ha        1 NFF      0.135000
     33 HAK         1.2780    4.0250   -3.5620 h4        1 NFF      0.116000
     34 HAL         5.2910    3.8370   -3.4170 ha        1 NFF      0.164000
     35 HAM         4.2790    0.8890   -4.9000 ha        1 NFF      0.173000
     36 HAN         2.8600    6.0800   -1.2760 ha        1 NFF      0.161000
     37 HAO         2.5190    6.6090   -3.0300 ha        1 NFF      0.161000
     38 HAOA       -0.1040    4.6530    1.7350 ha        1 NFF      0.206000
     39 HNAQ        3.7190    0.8700    4.5820 hn        1 NFF      0.193000
     40 HBB         2.0450    1.4010    1.2730 h4        1 NFF      0.126500
     41 CAB         0.2200   -0.3790    2.6870 c3        1 NFF     -0.163000
     42 CAC        -0.0370    2.0740    3.2210 c3        1 NFF     -0.163000
     43 HAB         0.0540   -0.1650    1.5980 hc        1 NFF      0.085000
     44 HABA       -0.7620   -0.6690    3.1380 hc        1 NFF      0.085000
     45 HABB        0.9180   -1.2470    2.7770 hc        1 NFF      0.085000
     46 HAC         0.4250    2.9270    3.7740 hc        1 NFF      0.085000
     47 HACA       -1.0740    1.9170    3.6120 hc        1 NFF      0.085000
     48 HACB       -0.1100    2.3490    2.1360 hc        1 NFF      0.085000
     49 OAE         2.7920   -0.0000    8.0960 o         1 NFF     -0.215000
     50 OAF         2.0380    0.1440   -4.7290 o         1 NFF     -0.367000
     51 OAG         4.8380    0.4550    6.9690 o         1 NFF     -0.215000
     52 H2          0.8250    0.6670   -1.8440 hn        1 NFF      0.254000
     53 OAR         0.5620    2.9160   -1.9910 o         1 NFF     -0.328000
@<TRIPOS>BOND
     1    1    3 1   
     2    1    4 1   
     3    1   24 1   
     4    2    4 1   
     5    2   17 1   
     6    2   52 1   
     7    4   26 1   
     8    4   27 1   
     9    5   15 1   
    10    5   25 1   
    11    5   40 1   
    12    6   13 1   
    13    7    8 1   
    14    7   10 1   
    15    7   31 1   
    16    8   11 1   
    17    8   32 1   
    18    9   12 1   
    19    9   36 1   
    20    9   37 1   
    21   11   21 1   
    22   11   35 1   
    23   12   20 1   
    24   13   29 1   
    25   13   38 1   
    26   14   22 1   
    27   14   39 1   
    28   16   49 1   
    29   16   51 1   
    30   17   19 1   
    31   17   50 1   
    32   18   19 1   
    33   18   33 1   
    34   18   53 1   
    35   19   21 1   
    36   20   21 1   
    37   20   34 1   
    38   22   23 1   
    39   23   41 1   
    40   23   42 1   
    41   28   30 1   
    42   41   43 1   
    43   41   44 1   
    44   41   45 1   
    45   42   46 1   
    46   42   47 1   
    47   42   48 1   
@<TRIPOS>SUBSTRUCTURE
     1 NFF         1 TEMP              0 ****  ****    0 ROOT
