@<TRIPOS>MOLECULE
NFF
   53    47     1     0     0
SMALL
bcc


@<TRIPOS>ATOM
      1 C           1.3520   -0.1390    0.0370 c2        1 NFF      0.190000
      2 N           2.7260    0.8840   -1.7940 n         1 NFF     -0.157000
      3 O           0.3370    0.4290    0.4840 o         1 NFF     -0.378000
      4 CA          1.8710    0.0670   -1.2740 c1        1 NFF     -0.179000
      5 CB          4.3340    1.9880    1.7000 c2        1 NFF     -0.269000
      6 CAA        -0.6790    4.8370   -2.1040 c1        1 NFF      0.107000
      7 CAI         7.5330    2.5090   -4.0800 c2        1 NFF     -0.475000
      8 CAJ         6.7610    1.3760   -4.5270 c2        1 NFF     -0.025000
      9 CAK         2.6710    4.6380   -4.1770 c3        1 NFF     -0.224000
     10 CAL         8.8380    2.5910   -3.9190 c1        1 NFF      0.230000
     11 CAM         5.4300    1.3510   -4.7000 c2        1 NFF     -0.193000
     12 CAN         3.9170    4.8070   -4.9140 c1        1 NFF     -0.106000
     13 CAO        -1.7440    5.2250   -1.4720 c2        1 NFF     -0.491000
     14 NAQ         0.3220   -0.3660    3.4440 n2        1 NFF     -0.230000
     15 SAS         4.1770    2.8500    0.4610 s         1 NFF      0.031000
     16 CAT         2.7970   -1.6760    3.6430 c1        1 NFF      0.440000
     17 CAU         3.0170    0.9020   -3.2120 c2        1 NFF      0.382000
     18 CAV         2.4120    3.2900   -3.5940 c2        1 NFF      0.173000
     19 CAW         3.3070    2.2480   -3.7630 c2        1 NFF     -0.293000
     20 CAX         4.7760    3.7110   -5.0590 c2        1 NFF     -0.281000
     21 CAY         4.5160    2.4670   -4.5140 c2        1 NFF      0.156000
     22 CBB        -0.5290   -0.0870    4.2940 c1        1 NFF      0.000000
     23 CBC        -1.3360    0.1490    5.3130 c2        1 NFF     -0.169000
     24 H           1.8160   -1.0040    0.5740 h4        1 NFF      0.115000
     25 HN          4.0550    0.9170    1.7780 h4        1 NFF      0.128500
     26 HAA         4.0380   -0.9280    0.3720 ha        1 NFF      0.003750
     27 HB          4.5400   -1.2450    0.6990 ha        1 NFF      0.003750
     28 HAAA       -0.4970    2.7270   -1.2180 ha        1 NFF      0.003750
     29 HAAB       -2.2890    4.5890   -0.7520 ha        1 NFF      0.207500
     30 HAAC       -0.1110    2.1710   -1.1510 ha        1 NFF      0.003750
     31 HAI         6.9530    3.4350   -3.8450 ha        1 NFF      0.211000
     32 HAJ         7.3390    0.4520   -4.7150 ha        1 NFF      0.135000
     33 HAK         2.6540    5.4080   -3.3510 hc        1 NFF      0.167500
     34 HAL         5.6920    3.8580   -5.6560 ha        1 NFF      0.154000
     35 HAM         4.9420    0.4070   -5.0170 ha        1 NFF      0.171000
     36 HAN         1.8270    4.9030   -4.8830 hc        1 NFF      0.167500
     37 HAO        -2.2060    6.2200   -1.5950 ha        1 NFF      0.207500
     38 HAOA        0.7300    3.8960   -2.8290 ho        1 NFF      0.292000
     39 HNAQ        0.1390   -0.1650    2.4770 hn        1 NFF      0.220000
     40 HBB         4.7460    2.3400    2.6640 h4        1 NFF      0.128500
     41 CAB        -2.3140   -0.8620    5.7770 c3        1 NFF     -0.151500
     42 CAC        -1.2920    1.4300    6.0560 c3        1 NFF     -0.151500
     43 HAB        -2.2790   -1.7900    5.1560 hc        1 NFF      0.079667
     44 HABA       -3.3490   -0.4390    5.7260 hc        1 NFF      0.079667
     45 HABB       -2.1000   -1.1380    6.8400 hc        1 NFF      0.079667
     46 HAC        -0.5380    2.1340    5.6290 hc        1 NFF      0.079667
     47 HACA       -2.2970    1.9220    6.0220 hc        1 NFF      0.079667
     48 HACB       -1.0320    1.2380    7.1280 hc        1 NFF      0.079667
     49 OAE         2.5040   -2.2440    4.6430 o         1 NFF     -0.222500
     50 OAF         3.0280   -0.1410   -3.8650 o         1 NFF     -0.247000
     51 OAG         3.1340   -1.1290    2.6370 o         1 NFF     -0.222500
     52 H2          3.1700    1.6310   -1.2630 hn        1 NFF      0.222000
     53 OAR         1.2810    3.0660   -2.8940 oh        1 NFF     -0.268000
@<TRIPOS>BOND
     1    1    3 1   
     2    1    4 1   
     3    1   24 1   
     4    2    4 1   
     5    2   17 1   
     6    2   52 1   
     7    5   15 1   
     8    5   25 1   
     9    5   40 1   
    10    6   13 1   
    11    7    8 1   
    12    7   10 1   
    13    7   31 1   
    14    8   11 1   
    15    8   32 1   
    16    9   12 1   
    17    9   18 1   
    18    9   33 1   
    19    9   36 1   
    20   11   21 1   
    21   11   35 1   
    22   12   20 1   
    23   13   29 1   
    24   13   37 1   
    25   14   22 1   
    26   14   39 1   
    27   16   49 1   
    28   16   51 1   
    29   17   19 1   
    30   17   50 1   
    31   18   19 1   
    32   18   53 1   
    33   19   21 1   
    34   20   21 1   
    35   20   34 1   
    36   22   23 1   
    37   23   41 1   
    38   23   42 1   
    39   26   27 1   
    40   28   30 1   
    41   38   53 1   
    42   41   43 1   
    43   41   44 1   
    44   41   45 1   
    45   42   46 1   
    46   42   47 1   
    47   42   48 1   
@<TRIPOS>SUBSTRUCTURE
     1 NFF         1 TEMP              0 ****  ****    0 ROOT
