@<TRIPOS>MOLECULE
NFF
   52    48     1     0     0
SMALL
bcc


@<TRIPOS>ATOM
      1 C          -2.0070   -1.5710    0.5190 c1        1 NFF      0.197000
      2 N          -0.2770   -0.1230   -0.1000 n         1 NFF     -0.342000
      3 O          -2.7960   -0.6470    0.5810 o         1 NFF     -0.321000
      4 CA         -0.5530   -1.3060    0.5650 c2        1 NFF     -0.039000
      5 CB         -0.0770   -1.1830    2.1010 c3        1 NFF     -0.080000
      6 CAA        -4.0990    1.5950   -3.8700 c3        1 NFF     -0.230000
      7 CAB        -1.6770   -2.9320    4.6940 c3        1 NFF     -0.201000
      8 CAC        -0.4370   -0.9020    5.3930 c3        1 NFF     -0.201000
      9 OAE         2.5150   -2.5370    5.4860 o         1 NFF     -0.555500
     10 OAF        -0.5520   -1.0800   -2.1560 o         1 NFF     -0.388000
     11 OAG         2.3300   -0.9130    4.0430 o         1 NFF     -0.555500
     12 CAI         4.3880    1.6370   -3.0540 c1        1 NFF     -0.126167
     13 CAJ         3.9670    0.5630   -2.2760 c1        1 NFF     -0.126167
     14 CAK        -0.2080    3.0900   -3.5350 c1        1 NFF     -0.126167
     15 CAL         3.4590    2.5420   -3.5500 c1        1 NFF     -0.126167
     16 CAM         2.6170    0.3960   -1.9940 c1        1 NFF     -0.126167
     17 CAN         1.1440    3.2740   -3.7920 c1        1 NFF     -0.126167
     18 CAO        -2.6700    2.0850   -3.9410 c3        1 NFF     -0.016000
     19 NAQ         0.8020   -2.5490    2.5370 n3        1 NFF     -0.284000
     20 OAR        -2.0210    1.8180   -2.7180 os        1 NFF     -0.205000
     21 SAS        -1.1170   -1.1370    2.8840 ss        1 NFF     -0.128000
     22 CAT         1.9200   -2.0080    4.5120 c2        1 NFF      0.348000
     23 CAU        -0.2010   -0.1080   -1.5180 c2        1 NFF      0.363000
     24 CAV        -0.6290    2.0160   -2.7570 c1        1 NFF      0.107000
     25 CAW         0.3030    1.1270   -2.2360 c2        1 NFF     -0.133000
     26 CAX         2.0900    2.3740   -3.2650 c1        1 NFF     -0.072000
     27 CAY         1.6740    1.3120   -2.4960 c1        1 NFF      0.027000
     28 CBB         0.7560   -2.6460    3.9440 c3        1 NFF     -0.129000
     29 CBC        -0.6390   -1.9110    4.2850 c3        1 NFF     -0.091000
     30 H          -2.3340   -2.4910    0.4590 ha        1 NFF      0.129000
     31 HN         -0.1730    0.6520    0.3700 hn        1 NFF      0.246000
     32 HAA        -0.0740   -2.0410    0.1340 h4        1 NFF      0.148000
     33 HB          0.4690   -0.3800    2.2200 h2        1 NFF      0.107000
     34 HAAA       -4.5200    1.6910   -4.7500 hc        1 NFF      0.098667
     35 HAAB       -4.5940    2.1260   -3.2110 hc        1 NFF      0.098667
     36 HAAC       -4.1080    0.6520   -3.6040 hc        1 NFF      0.098667
     37 HAB        -1.6010   -3.7240    4.1200 hc        1 NFF      0.085167
     38 HABA       -2.5720   -2.5450    4.5980 hc        1 NFF      0.085167
     39 HABB       -1.5310   -3.1900    5.6280 hc        1 NFF      0.085167
     40 HAC        -1.2990   -0.5020    5.6320 hc        1 NFF      0.085167
     41 HACA        0.1760   -0.2000    5.0880 hc        1 NFF      0.085167
     42 HACB       -0.0560   -1.3500    6.1780 hc        1 NFF      0.085167
     43 HAI         5.3370    1.7550   -3.2510 ha        1 NFF      0.135500
     44 HAJ         4.6210   -0.0730   -1.9270 ha        1 NFF      0.135500
     45 HAK        -0.8630    3.7170   -3.8960 ha        1 NFF      0.135500
     46 HAL         3.7540    3.2960   -4.0960 ha        1 NFF      0.135500
     47 HAM         2.3200   -0.3700   -1.4670 ha        1 NFF      0.135500
     48 HAN         1.4380    4.0180   -4.3510 ha        1 NFF      0.135500
     49 HAO        -2.6630    3.0490   -4.1100 h1        1 NFF      0.070500
     50 HAOA       -2.2020    1.6230   -4.6660 h1        1 NFF      0.070500
     51 HNAQ        1.6690   -2.4520    2.2670 hn        1 NFF      0.198000
     52 HBB         0.8020   -3.5340    4.3500 h1        1 NFF      0.097000
@<TRIPOS>BOND
     1    1    3 1   
     2    1   30 1   
     3    2    4 1   
     4    2   23 1   
     5    2   31 1   
     6    4    5 1   
     7    4   32 1   
     8    5   19 1   
     9    5   21 1   
    10    5   33 1   
    11    6   18 1   
    12    6   34 1   
    13    6   35 1   
    14    6   36 1   
    15    7   29 1   
    16    7   37 1   
    17    7   38 1   
    18    7   39 1   
    19    8   29 1   
    20    8   40 1   
    21    8   41 1   
    22    8   42 1   
    23    9   22 1   
    24   10   23 1   
    25   11   22 1   
    26   12   15 1   
    27   12   43 1   
    28   13   16 1   
    29   13   44 1   
    30   14   17 1   
    31   14   45 1   
    32   15   46 1   
    33   16   47 1   
    34   17   48 1   
    35   18   20 1   
    36   18   49 1   
    37   18   50 1   
    38   19   28 1   
    39   19   51 1   
    40   20   24 1   
    41   21   29 1   
    42   22   28 1   
    43   23   25 1   
    44   24   25 1   
    45   25   27 1   
    46   26   27 1   
    47   28   29 1   
    48   28   52 1   
@<TRIPOS>SUBSTRUCTURE
     1 NFF         1 TEMP              0 ****  ****    0 ROOT
