@<TRIPOS>MOLECULE
NFF
   53    48     1     0     0
SMALL
bcc


@<TRIPOS>ATOM
      1 C           3.6070   -1.1980    0.2090 c2        1 NFF      0.200000
      2 N           4.3850    1.6220   -0.7520 n3        1 NFF     -0.284000
      3 O           3.2570   -0.2640    0.9930 o         1 NFF     -0.553000
      4 CA          3.7480   -1.1040   -1.1690 c2        1 NFF     -0.494000
      5 CB          4.2680    2.4690    2.5770 c2        1 NFF     -0.258000
      6 CAA         0.1770    5.2550   -0.0550 c1        1 NFF      0.093000
      7 CAI         5.5120    2.1100   -6.1570 c2        1 NFF     -0.476000
      8 CAJ         5.0510    0.9240   -5.4800 c2        1 NFF     -0.019000
      9 CAK         1.5870    4.1520   -3.2370 c3        1 NFF     -0.222000
     10 CAL         6.4400    2.2050   -7.0880 c1        1 NFF      0.237000
     11 CAM         4.0620    0.8670   -4.5730 c2        1 NFF     -0.194000
     12 CAN         1.8540    3.9310   -4.6520 c1        1 NFF     -0.104000
     13 CAO        -0.6630    5.9580    0.6400 c2        1 NFF     -0.483000
     14 NAQ         1.5190   -0.1220    3.4440 n2        1 NFF     -0.228000
     15 SAS         4.8750    3.5380    1.6760 s         1 NFF     -0.024000
     16 CAT         2.5980    0.5200    5.9700 c1        1 NFF      0.438000
     17 CAU         3.5960    1.2080   -1.7460 c2        1 NFF      0.300000
     18 CAV         2.2280    3.2070   -2.2760 c2        1 NFF      0.171000
     19 CAW         3.0070    2.1530   -2.7180 c2        1 NFF     -0.251000
     20 CAX         2.6620    2.8540   -5.0340 c2        1 NFF     -0.280000
     21 CAY         3.2350    1.9780   -4.1300 c2        1 NFF      0.162000
     22 CBB         0.3240   -0.2210    3.1570 c1        1 NFF      0.012000
     23 CBC        -0.9870   -0.2730    3.0050 c2        1 NFF     -0.188000
     24 H           3.8710   -2.1920    0.6390 h4        1 NFF      0.076000
     25 HN          4.4460    2.5960   -0.5100 hn        1 NFF      0.271500
     26 HAA         4.1370   -1.8870   -1.8210 h4        1 NFF      0.158000
     27 HB          3.8770    1.4890    2.2320 h4        1 NFF      0.150000
     28 HAAA        0.2430    3.0650    0.8450 ha        1 NFF      0.010000
     29 HAAB       -1.1330    5.6240    1.5810 ha        1 NFF      0.208000
     30 HAAC        0.5840    3.4270    1.3090 ha        1 NFF      0.010000
     31 HAI         5.0200    3.0680   -5.8590 ha        1 NFF      0.210000
     32 HAJ         5.5950   -0.0070   -5.7300 ha        1 NFF      0.136000
     33 HAK         1.9060    5.2070   -2.9870 hc        1 NFF      0.168000
     34 HAL         2.8230    2.6960   -6.1140 ha        1 NFF      0.157000
     35 HAM         3.8220   -0.1050   -4.0970 ha        1 NFF      0.171000
     36 HAN         0.4650    4.1120   -3.0970 hc        1 NFF      0.168000
     37 HAO        -0.9840    6.9740    0.3460 ha        1 NFF      0.208000
     38 HAOA        1.4210    4.1340   -0.7780 ho        1 NFF      0.296000
     39 HNAQ        2.2220   -0.3570    2.7630 hn        1 NFF      0.238000
     40 HBB         4.1490    2.5590    3.6740 h4        1 NFF      0.150000
     41 CAB        -1.7600   -1.4900    3.3430 c3        1 NFF     -0.147000
     42 CAC        -1.7540    0.8880    2.4970 c3        1 NFF     -0.147000
     43 HAB        -1.1050   -2.2980    3.7480 hc        1 NFF      0.075333
     44 HABA       -2.2780   -1.8780    2.4300 hc        1 NFF      0.075333
     45 HABB       -2.5380   -1.2460    4.1100 hc        1 NFF      0.075333
     46 HAC        -1.0810    1.7230    2.1810 hc        1 NFF      0.075333
     47 HACA       -2.4420    1.2690    3.2930 hc        1 NFF      0.075333
     48 HACB       -2.3720    0.5790    1.6170 hc        1 NFF      0.075333
     49 OAE         2.0420   -0.3900    6.4950 o         1 NFF     -0.220500
     50 OAF         3.2300   -0.0730   -1.9380 os        1 NFF     -0.051000
     51 OAG         3.1740    1.4420    5.4830 o         1 NFF     -0.220500
     52 H2          4.6630    0.9710   -0.0390 hn        1 NFF      0.271500
     53 OAR         2.0500    3.3750   -0.9500 oh        1 NFF     -0.278000
@<TRIPOS>BOND
     1    1    3 1   
     2    1    4 1   
     3    1   24 1   
     4    2   17 1   
     5    2   25 1   
     6    2   52 1   
     7    4   26 1   
     8    4   50 1   
     9    5   15 1   
    10    5   27 1   
    11    5   40 1   
    12    6   13 1   
    13    7    8 1   
    14    7   10 1   
    15    7   31 1   
    16    8   11 1   
    17    8   32 1   
    18    9   12 1   
    19    9   18 1   
    20    9   33 1   
    21    9   36 1   
    22   11   21 1   
    23   11   35 1   
    24   12   20 1   
    25   13   29 1   
    26   13   37 1   
    27   14   22 1   
    28   14   39 1   
    29   16   49 1   
    30   16   51 1   
    31   17   19 1   
    32   17   50 1   
    33   18   19 1   
    34   18   53 1   
    35   19   21 1   
    36   20   21 1   
    37   20   34 1   
    38   22   23 1   
    39   23   41 1   
    40   23   42 1   
    41   28   30 1   
    42   38   53 1   
    43   41   43 1   
    44   41   44 1   
    45   41   45 1   
    46   42   46 1   
    47   42   47 1   
    48   42   48 1   
@<TRIPOS>SUBSTRUCTURE
     1 NFF         1 TEMP              0 ****  ****    0 ROOT
