@<TRIPOS>MOLECULE
NFG
   37    38     1     0     0
SMALL
bcc


@<TRIPOS>ATOM
      1 C1         -0.1400   -0.1720    0.3650 c3        1 NFG      0.309900
      2 O1         -0.7240    0.0350   -0.9210 os        1 NFG     -0.273900
      3 C2          1.3930   -0.1780    0.1120 c3        1 NFG      0.116600
      4 F           1.7850   -1.3930   -0.4200 f         1 NFG     -0.222300
      5 C3          2.1290    0.0770    1.4470 c3        1 NFG      0.076100
      6 O3          3.4980    0.3510    1.2120 oh        1 NFG     -0.594800
      7 C4          1.5600    1.3200    2.1520 c3        1 NFG      0.123100
      8 O4          2.1400    1.4660    3.4340 oh        1 NFG     -0.590800
      9 C5          0.0480    1.1310    2.3500 c3        1 NFG      0.147100
     10 C6         -0.5900    2.3710    2.9800 c3        1 NFG      0.135400
     11 O6         -1.8090    1.9440    3.5660 oh        1 NFG     -0.603800
     12 O5         -0.5730    0.9750    1.0700 os        1 NFG     -0.429600
     13 C11        -2.0750   -0.1380   -1.0510 ca        1 NFG      0.240100
     14 C12        -2.5780   -0.1700   -2.3800 ca        1 NFG     -0.228200
     15 N1         -1.6780   -0.0160   -3.5510 no        1 NFG      0.328200
     16 O11        -2.1550   -0.1100   -4.6510 o         1 NFG     -0.193000
     17 O12        -0.5120    0.1970   -3.3720 o         1 NFG     -0.193000
     18 C13        -3.9520   -0.3450   -2.6040 ca        1 NFG      0.018000
     19 C14        -4.8120   -0.4860   -1.5100 ca        1 NFG     -0.228200
     20 N2         -6.2670   -0.6780   -1.7420 no        1 NFG      0.322200
     21 O21        -6.9900   -0.8040   -0.7900 o         1 NFG     -0.200000
     22 O22        -6.6770   -0.7020   -2.8700 o         1 NFG     -0.200000
     23 C15        -4.3210   -0.4410   -0.1910 ca        1 NFG      0.001000
     24 C16        -2.9650   -0.2680    0.0310 ca        1 NFG     -0.214000
     25 H1         -0.4970   -1.1210    0.8470 h2        1 NFG      0.073700
     26 H2          1.6430    0.6380   -0.6260 h1        1 NFG      0.112700
     27 H3          2.0310   -0.8260    2.1140 h1        1 NFG      0.065700
     28 H3O1        3.8640   -0.4150    0.7510 ho        1 NFG      0.426000
     29 H4          1.7640    2.2340    1.5280 h1        1 NFG      0.071700
     30 H4O1        3.0970    1.5050    3.2990 ho        1 NFG      0.430000
     31 H5         -0.1570    0.2260    2.9860 h1        1 NFG      0.078700
     32 H62        -0.7830    3.1510    2.1970 h1        1 NFG      0.055200
     33 H61         0.1030    2.7710    3.7680 h1        1 NFG      0.055200
     34 H6         -2.2240    2.7290    3.9400 ho        1 NFG      0.411000
     35 H13        -4.3470   -0.3730   -3.6420 ha        1 NFG      0.209000
     36 H15        -5.0170   -0.5380    0.6630 ha        1 NFG      0.183000
     37 H16        -2.5850   -0.1900    1.0640 ha        1 NFG      0.184000
@<TRIPOS>BOND
     1    1    2 1   
     2    1    3 1   
     3    1   12 1   
     4    1   25 1   
     5    2   13 1   
     6    3    4 1   
     7    3    5 1   
     8    3   26 1   
     9    5    6 1   
    10    5    7 1   
    11    5   27 1   
    12    6   28 1   
    13    7    8 1   
    14    7    9 1   
    15    7   29 1   
    16    8   30 1   
    17    9   10 1   
    18    9   12 1   
    19    9   31 1   
    20   10   11 1   
    21   10   32 1   
    22   10   33 1   
    23   11   34 1   
    24   13   14 ar  
    25   13   24 ar  
    26   14   15 1   
    27   14   18 ar  
    28   15   16 1   
    29   15   17 1   
    30   18   19 ar  
    31   18   35 1   
    32   19   20 1   
    33   19   23 ar  
    34   20   21 1   
    35   20   22 1   
    36   23   24 ar  
    37   23   36 1   
    38   24   37 1   
@<TRIPOS>SUBSTRUCTURE
     1 NFG         1 TEMP              0 ****  ****    0 ROOT
