@<TRIPOS>MOLECULE
NFG
   37    36     1     0     0
SMALL
bcc


@<TRIPOS>ATOM
      1 C1          0.8280    0.0190   -0.2580 c3        1 NFG      0.121000
      2 O1          0.3650    0.1510   -1.5690 os        1 NFG     -0.152000
      3 C2          2.3150    0.0340   -0.2660 c3        1 NFG      0.054000
      4 F           2.7640   -1.1060   -0.9020 f         1 NFG     -0.138000
      5 C3          2.8950    0.0740    1.1200 c3        1 NFG      0.009000
      6 O3          4.2880    0.2580    1.0240 oh        1 NFG     -0.308000
      7 C4          2.3070    1.1890    1.9550 c3        1 NFG     -0.027000
      8 O4          2.7780    1.0500    3.3240 oh        1 NFG     -0.330000
      9 C5          0.8040    1.1690    1.9510 c3        1 NFG      0.003000
     10 C6          0.2850    2.3970    2.6560 c3        1 NFG     -0.024000
     11 O6          0.2260    2.1440    4.0680 oh        1 NFG     -0.341000
     12 O5          0.2430    1.1250    0.5820 os        1 NFG     -0.293000
     13 C11        -0.8200   -0.6670   -1.7490 c2        1 NFG      0.199000
     14 C12        -1.9860   -0.1050   -2.3170 c2        1 NFG     -0.183000
     15 N1         -1.9780    1.2540   -2.7630 no        1 NFG      0.583000
     16 O11        -2.7700    2.2150   -2.1060 o         1 NFG     -0.339500
     17 O12        -1.2730    1.5840   -3.7080 o         1 NFG     -0.339500
     18 C13        -3.1090   -0.8820   -2.4990 c1        1 NFG      0.021000
     19 C14        -3.0980   -2.2350   -2.1210 c1        1 NFG     -0.184000
     20 N2         -4.2340   -3.0530   -2.3830 no        1 NFG      0.577000
     21 O21        -4.8740   -2.9640   -3.5780 o         1 NFG     -0.349500
     22 O22        -4.6020   -3.8680   -1.5530 o         1 NFG     -0.349500
     23 C15        -1.9420   -2.7970   -1.5570 c1        1 NFG      0.002000
     24 C16        -0.8060   -2.0130   -1.3720 c1        1 NFG     -0.221000
     25 H1          0.5330   -0.8170    0.0890 h2        1 NFG      0.111000
     26 H2          2.6360    0.8510   -0.7850 h1        1 NFG      0.154000
     27 H3          2.7170   -0.7890    1.5670 h1        1 NFG      0.104000
     28 H3O1        4.7150   -0.4340    1.4430 ho        1 NFG      0.227000
     29 H4          2.6210    2.0710    1.5910 h1        1 NFG      0.108000
     30 H4O1        3.3430    1.8040    3.5520 ho        1 NFG      0.234000
     31 H5          0.5050    0.3880    2.4310 h1        1 NFG      0.112000
     32 H62         0.8870    3.1560    2.4830 h1        1 NFG      0.088500
     33 H61        -0.5970    2.6050    2.3300 h1        1 NFG      0.088500
     34 H6         -0.1200    2.8510    4.4820 ho        1 NFG      0.220000
     35 H13        -3.9330   -0.4820   -2.9040 ha        1 NFG      0.210000
     36 H15        -1.9350   -3.7620   -1.2870 ha        1 NFG      0.182000
     37 H16         0.0230   -2.4140   -0.9700 ha        1 NFG      0.170000
@<TRIPOS>BOND
     1    1    2 1   
     2    1    3 1   
     3    1   12 1   
     4    1   25 1   
     5    2   13 1   
     6    3    4 1   
     7    3    5 1   
     8    3   26 1   
     9    5    6 1   
    10    5    7 1   
    11    5   27 1   
    12    6   28 1   
    13    7    8 1   
    14    7    9 1   
    15    7   29 1   
    16    8   30 1   
    17    9   10 1   
    18    9   12 1   
    19    9   31 1   
    20   10   11 1   
    21   10   32 1   
    22   10   33 1   
    23   11   34 1   
    24   13   14 1   
    25   13   24 1   
    26   14   15 1   
    27   14   18 1   
    28   15   16 1   
    29   15   17 1   
    30   18   35 1   
    31   19   20 1   
    32   19   23 1   
    33   20   21 1   
    34   20   22 1   
    35   23   36 1   
    36   24   37 1   
@<TRIPOS>SUBSTRUCTURE
     1 NFG         1 TEMP              0 ****  ****    0 ROOT
