@<TRIPOS>MOLECULE
NFG
   37    38     1     0     0
SMALL
bcc


@<TRIPOS>ATOM
      1 C1         -1.3760   -0.2030   -0.4990 c3        1 NFG      0.311900
      2 O1         -0.2470   -0.8560    0.0800 os        1 NFG     -0.272900
      3 C2         -2.5230   -1.2480   -0.4260 c3        1 NFG      0.118600
      4 F          -2.3690   -2.1950   -1.4220 f         1 NFG     -0.221300
      5 C3         -3.8780   -0.5230   -0.5910 c3        1 NFG      0.075100
      6 O3         -4.9460   -1.3970   -0.2750 oh        1 NFG     -0.593800
      7 C4         -3.9820    0.6520    0.3950 c3        1 NFG      0.126100
      8 O4         -5.1550    1.4020    0.1410 oh        1 NFG     -0.589800
      9 C5         -2.7910    1.5960    0.1860 c3        1 NFG      0.107100
     10 C6         -2.7870    2.7230    1.2240 c3        1 NFG      0.140400
     11 O6         -1.7250    3.6180    0.9870 oh        1 NFG     -0.589800
     12 O5         -1.5640    0.8860    0.3840 os        1 NFG     -0.445600
     13 C11         0.9840   -0.2810   -0.0810 ca        1 NFG      0.240100
     14 C12         2.1020   -1.0770    0.2850 ca        1 NFG     -0.227200
     15 N1          1.9290   -2.4540    0.8180 no        1 NFG      0.328200
     16 O11         2.9150   -3.1000    1.0540 o         1 NFG     -0.190500
     17 O12         0.8220   -2.8770    0.9990 o         1 NFG     -0.190500
     18 C13         3.4010   -0.5660    0.1490 ca        1 NFG      0.020000
     19 C14         3.5780    0.7310   -0.3480 ca        1 NFG     -0.227200
     20 N2          4.9520    1.2750   -0.5010 no        1 NFG      0.322200
     21 O21         5.0840    2.3880   -0.9360 o         1 NFG     -0.198000
     22 O22         5.8860    0.5900   -0.1870 o         1 NFG     -0.198000
     23 C15         2.4740    1.5300   -0.6990 ca        1 NFG      0.002000
     24 C16         1.1910    1.0240   -0.5630 ca        1 NFG     -0.222000
     25 H1         -1.1800    0.1410   -1.5500 h2        1 NFG      0.073700
     26 H2         -2.4820   -1.7650    0.5770 h1        1 NFG      0.113700
     27 H3         -3.9870   -0.1550   -1.6490 h1        1 NFG      0.065700
     28 H3O1       -4.8840   -2.1500   -0.8770 ho        1 NFG      0.426000
     29 H4         -3.9940    0.2580    1.4500 h1        1 NFG      0.072700
     30 H4O1       -5.8970    0.7860    0.2210 ho        1 NFG      0.431000
     31 H5         -2.8090    2.0250   -0.8540 h1        1 NFG      0.071700
     32 H62        -3.7280    3.3260    1.1050 h1        1 NFG      0.071700
     33 H61        -2.7250    2.2920    2.2580 h1        1 NFG      0.071700
     34 H6         -0.9050    3.1370    1.1550 ho        1 NFG      0.407000
     35 H13         4.2770   -1.1880    0.4320 ha        1 NFG      0.210000
     36 H15         2.6310    2.5570   -1.0780 ha        1 NFG      0.184000
     37 H16         0.3240    1.6610   -0.8040 ha        1 NFG      0.174000
@<TRIPOS>BOND
     1    1    2 1   
     2    1    3 1   
     3    1   12 1   
     4    1   25 1   
     5    2   13 1   
     6    3    4 1   
     7    3    5 1   
     8    3   26 1   
     9    5    6 1   
    10    5    7 1   
    11    5   27 1   
    12    6   28 1   
    13    7    8 1   
    14    7    9 1   
    15    7   29 1   
    16    8   30 1   
    17    9   10 1   
    18    9   12 1   
    19    9   31 1   
    20   10   11 1   
    21   10   32 1   
    22   10   33 1   
    23   11   34 1   
    24   13   14 ar  
    25   13   24 ar  
    26   14   15 1   
    27   14   18 ar  
    28   15   16 1   
    29   15   17 1   
    30   18   19 ar  
    31   18   35 1   
    32   19   20 1   
    33   19   23 ar  
    34   20   21 1   
    35   20   22 1   
    36   23   24 ar  
    37   23   36 1   
    38   24   37 1   
@<TRIPOS>SUBSTRUCTURE
     1 NFG         1 TEMP              0 ****  ****    0 ROOT
