@<TRIPOS>MOLECULE
NFG
   37    38     1     0     0
SMALL
bcc


@<TRIPOS>ATOM
      1 C1         -0.1470   -0.1420    0.4030 c3        1 NFG      0.311900
      2 O1         -0.7460    0.0920   -0.8720 os        1 NFG     -0.272900
      3 C2          1.3810   -0.1540    0.1300 c3        1 NFG      0.118600
      4 F           1.7560   -1.3580   -0.4370 f         1 NFG     -0.221300
      5 C3          2.1340    0.0600    1.4630 c3        1 NFG      0.075100
      6 O3          3.5060    0.3110    1.2210 oh        1 NFG     -0.593800
      7 C4          1.5950    1.3020    2.1910 c3        1 NFG      0.126100
      8 O4          2.1790    1.4090    3.4750 oh        1 NFG     -0.589800
      9 C5          0.0820    1.1520    2.3970 c3        1 NFG      0.107100
     10 C6         -0.5220    2.4170    3.0160 c3        1 NFG      0.140400
     11 O6         -1.9000    2.2470    3.2580 oh        1 NFG     -0.589800
     12 O5         -0.5700    0.9930    1.1330 os        1 NFG     -0.445600
     13 C11        -2.0940   -0.1060   -0.9980 ca        1 NFG      0.240100
     14 C12        -2.6070   -0.1070   -2.3230 ca        1 NFG     -0.227200
     15 N1         -1.7180    0.1020   -3.4960 no        1 NFG      0.328200
     16 O11        -2.2010    0.0300   -4.5950 o         1 NFG     -0.190500
     17 O12        -0.5570    0.3360   -3.3170 o         1 NFG     -0.190500
     18 C13        -3.9780   -0.3060   -2.5430 ca        1 NFG      0.020000
     19 C14        -4.8270   -0.5000   -1.4470 ca        1 NFG     -0.227200
     20 N2         -6.2790   -0.7180   -1.6740 no        1 NFG      0.322200
     21 O21        -6.9900   -0.8900   -0.7210 o         1 NFG     -0.198000
     22 O22        -6.6960   -0.7170   -2.8000 o         1 NFG     -0.198000
     23 C15        -4.3260   -0.4850   -0.1310 ca        1 NFG      0.002000
     24 C16        -2.9720   -0.2870    0.0850 ca        1 NFG     -0.222000
     25 H1         -0.5030   -1.0970    0.8740 h2        1 NFG      0.073700
     26 H2          1.6300    0.6790   -0.5900 h1        1 NFG      0.113700
     27 H3          2.0230   -0.8520    2.1140 h1        1 NFG      0.065700
     28 H3O1        3.8550   -0.4560    0.7480 ho        1 NFG      0.426000
     29 H4          1.8210    2.2220    1.5840 h1        1 NFG      0.072700
     30 H4O1        3.1370    1.4480    3.3380 ho        1 NFG      0.431000
     31 H5         -0.1390    0.2590    3.0440 h1        1 NFG      0.071700
     32 H62        -0.3380    3.2970    2.3460 h1        1 NFG      0.071700
     33 H61        -0.0530    2.5840    4.0230 h1        1 NFG      0.071700
     34 H6         -2.3320    2.1740    2.3970 ho        1 NFG      0.407000
     35 H13        -4.3800   -0.3110   -3.5780 ha        1 NFG      0.210000
     36 H15        -5.0130   -0.6270    0.7240 ha        1 NFG      0.184000
     37 H16        -2.5840   -0.2410    1.1160 ha        1 NFG      0.174000
@<TRIPOS>BOND
     1    1    2 1   
     2    1    3 1   
     3    1   12 1   
     4    1   25 1   
     5    2   13 1   
     6    3    4 1   
     7    3    5 1   
     8    3   26 1   
     9    5    6 1   
    10    5    7 1   
    11    5   27 1   
    12    6   28 1   
    13    7    8 1   
    14    7    9 1   
    15    7   29 1   
    16    8   30 1   
    17    9   10 1   
    18    9   12 1   
    19    9   31 1   
    20   10   11 1   
    21   10   32 1   
    22   10   33 1   
    23   11   34 1   
    24   13   14 ar  
    25   13   24 ar  
    26   14   15 1   
    27   14   18 ar  
    28   15   16 1   
    29   15   17 1   
    30   18   19 ar  
    31   18   35 1   
    32   19   20 1   
    33   19   23 ar  
    34   20   21 1   
    35   20   22 1   
    36   23   24 ar  
    37   23   36 1   
    38   24   37 1   
@<TRIPOS>SUBSTRUCTURE
     1 NFG         1 TEMP              0 ****  ****    0 ROOT
