@<TRIPOS>MOLECULE
NFG
   37    38     1     0     0
SMALL
bcc


@<TRIPOS>ATOM
      1 C1         -0.1390   -0.1710    0.3670 c3        1 NFG      0.309900
      2 O1         -0.7220    0.0340   -0.9200 os        1 NFG     -0.273900
      3 C2          1.3930   -0.1770    0.1150 c3        1 NFG      0.116600
      4 F           1.7880   -1.3920   -0.4150 f         1 NFG     -0.222300
      5 C3          2.1280    0.0800    1.4510 c3        1 NFG      0.076100
      6 O3          3.4970    0.3550    1.2170 oh        1 NFG     -0.594800
      7 C4          1.5570    1.3230    2.1540 c3        1 NFG      0.123100
      8 O4          2.1360    1.4720    3.4360 oh        1 NFG     -0.590800
      9 C5          0.0450    1.1340    2.3510 c3        1 NFG      0.147100
     10 C6         -0.5940    2.3730    2.9790 c3        1 NFG      0.135400
     11 O6         -1.8130    1.9450    3.5640 oh        1 NFG     -0.603800
     12 O5         -0.5740    0.9750    1.0700 os        1 NFG     -0.429600
     13 C11        -2.0730   -0.1400   -1.0520 ca        1 NFG      0.240100
     14 C12        -2.5750   -0.1720   -2.3810 ca        1 NFG     -0.228200
     15 N1         -1.6730   -0.0170   -3.5510 no        1 NFG      0.328200
     16 O11        -2.1500   -0.1110   -4.6520 o         1 NFG     -0.193000
     17 O12        -0.5080    0.1960   -3.3710 o         1 NFG     -0.193000
     18 C13        -3.9480   -0.3480   -2.6070 ca        1 NFG      0.018000
     19 C14        -4.8100   -0.4900   -1.5130 ca        1 NFG     -0.228200
     20 N2         -6.2640   -0.6830   -1.7460 no        1 NFG      0.322200
     21 O21        -6.9880   -0.8100   -0.7950 o         1 NFG     -0.200000
     22 O22        -6.6730   -0.7080   -2.8750 o         1 NFG     -0.200000
     23 C15        -4.3200   -0.4450   -0.1930 ca        1 NFG      0.001000
     24 C16        -2.9640   -0.2710    0.0290 ca        1 NFG     -0.214000
     25 H1         -0.4960   -1.1200    0.8490 h2        1 NFG      0.073700
     26 H2          1.6440    0.6390   -0.6240 h1        1 NFG      0.112700
     27 H3          2.0300   -0.8220    2.1180 h1        1 NFG      0.065700
     28 H3O1        3.8650   -0.4110    0.7570 ho        1 NFG      0.426000
     29 H4          1.7610    2.2370    1.5290 h1        1 NFG      0.071700
     30 H4O1        3.0930    1.5110    3.3020 ho        1 NFG      0.430000
     31 H5         -0.1600    0.2290    2.9870 h1        1 NFG      0.078700
     32 H62        -0.7880    3.1520    2.1950 h1        1 NFG      0.055200
     33 H61         0.0980    2.7750    3.7670 h1        1 NFG      0.055200
     34 H6         -2.2300    2.7310    3.9370 ho        1 NFG      0.411000
     35 H13        -4.3420   -0.3770   -3.6440 ha        1 NFG      0.209000
     36 H15        -5.0160   -0.5430    0.6600 ha        1 NFG      0.183000
     37 H16        -2.5850   -0.1930    1.0630 ha        1 NFG      0.184000
@<TRIPOS>BOND
     1    1    2 1   
     2    1    3 1   
     3    1   12 1   
     4    1   25 1   
     5    2   13 1   
     6    3    4 1   
     7    3    5 1   
     8    3   26 1   
     9    5    6 1   
    10    5    7 1   
    11    5   27 1   
    12    6   28 1   
    13    7    8 1   
    14    7    9 1   
    15    7   29 1   
    16    8   30 1   
    17    9   10 1   
    18    9   12 1   
    19    9   31 1   
    20   10   11 1   
    21   10   32 1   
    22   10   33 1   
    23   11   34 1   
    24   13   14 ar  
    25   13   24 ar  
    26   14   15 1   
    27   14   18 ar  
    28   15   16 1   
    29   15   17 1   
    30   18   19 ar  
    31   18   35 1   
    32   19   20 1   
    33   19   23 ar  
    34   20   21 1   
    35   20   22 1   
    36   23   24 ar  
    37   23   36 1   
    38   24   37 1   
@<TRIPOS>SUBSTRUCTURE
     1 NFG         1 TEMP              0 ****  ****    0 ROOT
