@<TRIPOS>MOLECULE
NFH
   54    50     1     0     0
SMALL
bcc


@<TRIPOS>ATOM
      1 C         -12.0860   54.0730  -63.4050 c3        1 NFH      0.116000
      2 N         -12.2130   56.6240  -65.2540 nx        1 NFH      0.004000
      3 O         -13.2820   54.7460  -63.0980 oh        1 NFH     -0.338000
      4 C1        -13.1040   49.9990  -65.5830 c2        1 NFH      0.208000
      5 N1        -12.1620   52.6360  -62.8890 ny        1 NFH     -0.132000
      6 CA        -11.8990   54.1010  -64.9440 c3        1 NFH     -0.152000
      7 CB        -10.4240   54.1530  -65.2740 c3        1 NFH     -0.249000
      8 CG         69.1400 -305.4000  361.6060 c2        1 NFH     -0.144000
      9 CM        -13.0670   57.6700  -66.0100 c2        1 NFH      0.225000
     10 OM        -13.9910   58.1520  -65.4000 o         1 NFH     -0.101000
     11 CN        -12.6820   55.2340  -65.6010 c3        1 NFH     -0.128000
     12 ON        -12.2110   56.8540  -63.9200 oh        1 NFH     -0.222000
     13 CA1       -12.2830   52.6580  -61.4530 c1        1 NFH      0.107000
     14 CB1       -11.9080   51.4880  -60.6430 c3        1 NFH     -0.174000
     15 CD1        69.3000 -304.3700  360.5420 c3        1 NFH     -0.170000
     16 CD2        70.0270 -305.9130  362.3680 c1        1 NFH      0.254000
     17 CG1       -11.3110   50.3070  -61.3860 c3        1 NFH     -0.212000
     18 CG2       -10.9090   52.0000  -59.5910 c3        1 NFH     -0.212000
     19 CG3       -13.1950   51.0530  -59.9190 c3        1 NFH     -0.212000
     20 CN2       -15.5820   48.5590  -65.1950 c1        1 NFH     -0.048000
     21 HN1       -11.3750   52.0910  -63.2790 hn        1 NFH      0.281500
     22 H2        -11.4430   49.8300  -66.7900 hn        1 NFH      0.230500
     23 HA        -11.2070   54.5560  -62.8770 hx        1 NFH      0.149000
     24 HB         -9.9240   53.2050  -64.9530 hc        1 NFH      0.110667
     25 HBA       -12.3360   53.1520  -65.3990 hc        1 NFH      0.198000
     26 HG         -9.9090   55.0030  -64.7620 hc        1 NFH      0.110667
     27 HM        -11.2130   56.7270  -65.5350 hn        1 NFH      0.287000
     28 HN        -13.7700   55.1630  -65.3030 hx        1 NFH      0.165000
     29 HNA       -12.5890   55.1390  -66.7220 hx        1 NFH      0.165000
     30 HON       -13.1480   56.8770  -63.6030 ho        1 NFH      0.286000
     31 HA1       -13.0220   52.1870  -63.2880 hn        1 NFH      0.281500
     32 HD1        68.6560 -303.4860  360.7980 hc        1 NFH      0.153333
     33 HD1A       68.0660 -305.7480  361.7190 ha        1 NFH      0.304000
     34 HD1B       68.9540 -304.8030  359.5660 hc        1 NFH      0.153333
     35 HD2        70.3620 -304.0360  360.4420 hc        1 NFH      0.153333
     36 HD2A      -10.2750   54.2520  -66.3780 hc        1 NFH      0.110667
     37 HD2B       70.7560 -306.3650  363.0270 ha        1 NFH      0.296000
     38 HG1       -12.0110   49.9220  -62.1670 hc        1 NFH      0.109889
     39 HG1A      -10.3370   50.5780  -61.8610 hc        1 NFH      0.109889
     40 HG1B      -11.1140   49.4740  -60.6640 hc        1 NFH      0.109889
     41 HG2        -9.9460   52.2860  -60.0750 hc        1 NFH      0.109889
     42 HG2A      -10.7130   51.1750  -58.8620 hc        1 NFH      0.109889
     43 HG2B      -11.3290   52.8750  -59.0400 hc        1 NFH      0.109889
     44 HG3       -12.9250   50.2740  -59.1630 hc        1 NFH      0.109889
     45 HG3A      -13.6650   51.9170  -59.3910 hc        1 NFH      0.109889
     46 HG3B      -13.9190   50.6150  -60.6450 hc        1 NFH      0.109889
     47 HN2       -12.6250   48.6440  -67.0350 hn        1 NFH      0.230500
     48 HN2A      -16.3140   48.6830  -64.3880 ha        1 NFH      0.067500
     49 H29       -15.8470   47.7790  -65.9200 ha        1 NFH      0.067500
     50 O1        -12.7080   51.0330  -64.9680 o         1 NFH     -0.598000
     51 H         -12.6910   57.8400  -67.0430 hx        1 NFH      0.253000
     52 H12       -13.3670   54.8150  -62.1290 ho        1 NFH      0.276000
     53 H22       -14.1260   49.4770  -65.3630 h5        1 NFH      0.255000
     54 N2        -12.3290   49.4560  -66.5490 nt        1 NFH     -0.395000
@<TRIPOS>BOND
     1    1    3 1   
     2    1    5 1   
     3    1    6 1   
     4    1   23 1   
     5    2    9 1   
     6    2   11 1   
     7    2   12 1   
     8    2   27 1   
     9    3   52 1   
    10    4   50 1   
    11    4   53 1   
    12    4   54 1   
    13    5   13 1   
    14    5   21 1   
    15    5   31 1   
    16    6    7 1   
    17    6   11 1   
    18    6   25 1   
    19    7   24 1   
    20    7   26 1   
    21    7   36 1   
    22    8   15 1   
    23    8   16 1   
    24    8   33 1   
    25    9   10 1   
    26    9   51 1   
    27   11   28 1   
    28   11   29 1   
    29   12   30 1   
    30   13   14 1   
    31   14   17 1   
    32   14   18 1   
    33   14   19 1   
    34   15   32 1   
    35   15   34 1   
    36   15   35 1   
    37   16   37 1   
    38   17   38 1   
    39   17   39 1   
    40   17   40 1   
    41   18   41 1   
    42   18   42 1   
    43   18   43 1   
    44   19   44 1   
    45   19   45 1   
    46   19   46 1   
    47   20   48 1   
    48   20   49 1   
    49   22   54 1   
    50   47   54 1   
@<TRIPOS>SUBSTRUCTURE
     1 NFH         1 TEMP              0 ****  ****    0 ROOT
