@<TRIPOS>MOLECULE
NFH
   51    50     1     0     0
SMALL
bcc


@<TRIPOS>ATOM
      1 C          -0.3410   -0.0390    1.2500 c         1 NFH      0.654100
      2 N          -4.0890   -0.6780    1.4210 n         1 NFH     -0.297300
      3 O          -0.0950    0.2110    2.4470 o         1 NFH     -0.609100
      4 C1          2.6390    0.9410    0.2440 c         1 NFH      0.633100
      5 N1          0.6490   -0.4950    0.3900 n         1 NFH     -0.536900
      6 N2          3.4160    1.6610    1.1200 n         1 NFH     -0.563900
      7 CA         -1.7560    0.0700    0.6860 c3        1 NFH     -0.156700
      8 CB         -2.0170    1.4880    0.2030 c3        1 NFH     -0.080400
      9 CG         -1.2700    1.8750   -1.0660 c3        1 NFH     -0.078700
     10 CM         -4.2170   -1.7810    0.5320 c         1 NFH      0.608900
     11 OM         -5.1750   -1.9060   -0.2390 o         1 NFH     -0.550100
     12 CN         -2.7320   -0.3080    1.8150 c3        1 NFH      0.070000
     13 ON         -4.8160    0.3970    1.0960 oh        1 NFH     -0.433100
     14 CA1         2.0450   -0.4030    0.7500 c3        1 NFH      0.034700
     15 CB1         2.8920   -1.5840    0.1960 c3        1 NFH     -0.047000
     16 CD1        -1.6740    1.0160   -2.2470 c3        1 NFH     -0.089600
     17 CD2        -1.5400    3.3360   -1.3730 c3        1 NFH     -0.089600
     18 CG1         2.6950   -1.7630   -1.3000 c3        1 NFH     -0.094767
     19 CG2         4.3620   -1.3030    0.4800 c3        1 NFH     -0.094767
     20 CG3         2.4870   -2.8600    0.9200 c3        1 NFH     -0.094767
     21 CN2         3.9750    2.9360    0.7990 c3        1 NFH      0.076300
     22 HN1         0.4650   -0.4560   -0.5910 hn        1 NFH      0.320500
     23 H2          3.5410    1.3240    2.0440 hn        1 NFH      0.315500
     24 HA         -1.8900   -0.6460   -0.1730 hc        1 NFH      0.068700
     25 HB         -3.1200    1.6020    0.0220 hc        1 NFH      0.065700
     26 HBA        -1.7370    2.2040    1.0230 hc        1 NFH      0.065700
     27 HG         -0.1610    1.7580   -0.8990 hc        1 NFH      0.061700
     28 HM         -3.4460   -2.5680    0.6930 h5        1 NFH      0.038200
     29 HN         -2.8070    0.5590    2.5300 h1        1 NFH      0.084700
     30 HNA        -2.3210   -1.1950    2.3750 h1        1 NFH      0.084700
     31 HON        -5.7210    0.2030    1.4130 ho        1 NFH      0.428000
     32 HA1         2.1050   -0.4470    1.8810 h1        1 NFH      0.093700
     33 HD1        -1.2290    1.4240   -3.1860 hc        1 NFH      0.035533
     34 HD1A       -1.3120   -0.0320   -2.1200 hc        1 NFH      0.035533
     35 HD1B       -2.7850    0.9970   -2.3600 hc        1 NFH      0.035533
     36 HD2        -1.2320    3.9780   -0.5130 hc        1 NFH      0.035533
     37 HD2A       -0.9640    3.6510   -2.2760 hc        1 NFH      0.035533
     38 HD2B       -2.6270    3.5020   -1.5690 hc        1 NFH      0.035533
     39 HG1         2.7620   -0.7780   -1.8240 hc        1 NFH      0.042811
     40 HG1A        3.4840   -2.4410   -1.7080 hc        1 NFH      0.042811
     41 HG1B        1.7000   -2.2220   -1.5200 hc        1 NFH      0.042811
     42 HG2         4.5110   -1.0310    1.5520 hc        1 NFH      0.042811
     43 HG2A        4.9690   -2.2140    0.2600 hc        1 NFH      0.042811
     44 HG2B        4.7350   -0.4700   -0.1630 hc        1 NFH      0.042811
     45 HG3         1.4100   -3.0950    0.7430 hc        1 NFH      0.042811
     46 HG3A        3.0990   -3.7160    0.5460 hc        1 NFH      0.042811
     47 HG3B        2.6540   -2.7560    2.0190 hc        1 NFH      0.042811
     48 HN2         3.5340    3.7320    1.4590 h1        1 NFH      0.046033
     49 HN2A        5.0870    2.9140    0.9570 h1        1 NFH      0.046033
     50 H29         3.7620    3.1940   -0.2730 h1        1 NFH      0.046033
     51 O1          2.3960    1.3540   -0.9100 o         1 NFH     -0.624100
@<TRIPOS>BOND
     1    1    3 2   
     2    1    5 1   
     3    1    7 1   
     4    2   10 1   
     5    2   12 1   
     6    2   13 1   
     7    4    6 1   
     8    4   14 1   
     9    4   51 2   
    10    5   14 1   
    11    5   22 1   
    12    6   21 1   
    13    6   23 1   
    14    7    8 1   
    15    7   12 1   
    16    7   24 1   
    17    8    9 1   
    18    8   25 1   
    19    8   26 1   
    20    9   16 1   
    21    9   17 1   
    22    9   27 1   
    23   10   11 2   
    24   10   28 1   
    25   12   29 1   
    26   12   30 1   
    27   13   31 1   
    28   14   15 1   
    29   14   32 1   
    30   15   18 1   
    31   15   19 1   
    32   15   20 1   
    33   16   33 1   
    34   16   34 1   
    35   16   35 1   
    36   17   36 1   
    37   17   37 1   
    38   17   38 1   
    39   18   39 1   
    40   18   40 1   
    41   18   41 1   
    42   19   42 1   
    43   19   43 1   
    44   19   44 1   
    45   20   45 1   
    46   20   46 1   
    47   20   47 1   
    48   21   48 1   
    49   21   49 1   
    50   21   50 1   
@<TRIPOS>SUBSTRUCTURE
     1 NFH         1 TEMP              0 ****  ****    0 ROOT
