@<TRIPOS>MOLECULE
NFH
   51    48     1     0     0
SMALL
bcc


@<TRIPOS>ATOM
      1 C           0.1090    0.5360    0.5140 c1        1 NFH      0.298000
      2 N           3.5470    1.6040   -0.4900 n         1 NFH     -0.187000
      3 O          -0.5000    0.7650    1.5460 o         1 NFH     -0.370000
      4 C1         -2.2040   -1.4530   -1.1960 c1        1 NFH      0.277000
      5 N1         -0.6190    0.2820   -0.7180 n3        1 NFH     -0.346000
      6 O1         -1.6300   -1.8110   -2.2120 o         1 NFH     -0.385000
      7 N2         -3.0130   -2.3900   -0.4590 n3        1 NFH     -0.373000
      8 CA          1.6300    0.5270    0.5140 c2        1 NFH     -0.146000
      9 CB          2.1370    0.5190    1.9490 c3        1 NFH     -0.159000
     10 CG          2.3690   -0.9400    2.4070 c3        1 NFH     -0.118000
     11 CM          3.9600    1.1280   -1.7770 c2        1 NFH      0.210000
     12 OM          5.1160    0.7820   -1.9570 o         1 NFH     -0.311000
     13 CN          2.1430    1.7650   -0.1980 c3        1 NFH     -0.046000
     14 ON          4.4900    2.0140    0.4250 oh        1 NFH     -0.238000
     15 CA1        -2.0050   -0.0520   -0.6710 c2        1 NFH      0.008000
     16 CB1        -2.8000    0.9370   -1.5330 c3        1 NFH     -0.047000
     17 CD1         3.8750   -1.2460    2.3990 c3        1 NFH     -0.207500
     18 CD2         1.8160   -1.1260    3.8290 c3        1 NFH     -0.207500
     19 CG1        -2.3180    0.8470   -2.9980 c3        1 NFH     -0.212667
     20 CG2        -4.2990    0.5890   -1.4630 c3        1 NFH     -0.212667
     21 CG3        -2.5820    2.3670   -1.0080 c3        1 NFH     -0.212667
     22 CN2        -3.2230   -3.7200   -0.9720 c3        1 NFH     -0.079000
     23 HN1        -0.1750    0.2810   -1.5210 hn        1 NFH      0.234000
     24 H2         -3.3740   -2.1480    0.3490 hn        1 NFH      0.229000
     25 HA          1.9520   -0.2760    0.0490 ha        1 NFH      0.108000
     26 HB          1.4710    0.9440    2.5350 hc        1 NFH      0.105000
     27 HBA         2.9820    1.0170    2.0000 hc        1 NFH      0.105000
     28 HG          1.9080   -1.5530    1.7940 hc        1 NFH      0.101000
     29 HM          3.3250    1.1250   -2.5240 h5        1 NFH      0.131000
     30 HN          1.6470    1.8900   -1.0360 h1        1 NFH      0.124000
     31 HNA         2.0170    2.5520    0.3790 h1        1 NFH      0.124000
     32 HON         5.0060    2.6440    0.0580 ho        1 NFH      0.227000
     33 HA1        -2.3210   -0.0030    0.2590 h4        1 NFH      0.133000
     34 HD1         4.2010   -1.2660    1.4730 hc        1 NFH      0.074833
     35 HD1A        4.3540   -0.5490    2.9000 hc        1 NFH      0.074833
     36 HD1B        4.0340   -2.1210    2.8220 hc        1 NFH      0.074833
     37 HD2         0.8430   -0.9860    3.8230 hc        1 NFH      0.074833
     38 HD2A        2.2370   -0.4740    4.4330 hc        1 NFH      0.074833
     39 HD2B        2.0140   -2.0380    4.1420 hc        1 NFH      0.074833
     40 HG1        -2.9240    0.0750   -2.9760 hc        1 NFH      0.082111
     41 HG1A       -1.7570    0.1830   -3.4630 hc        1 NFH      0.082111
     42 HG1B       -1.4620    1.0140   -2.5530 hc        1 NFH      0.082111
     43 HG2        -4.4480   -0.2970   -1.8620 hc        1 NFH      0.082111
     44 HG2A       -4.8160    1.2630   -1.9600 hc        1 NFH      0.082111
     45 HG2B       -4.5900    0.5790   -0.5240 hc        1 NFH      0.082111
     46 HG3        -1.6460    2.6280   -1.1490 hc        1 NFH      0.082111
     47 HG3A       -2.7890    2.3980   -0.0470 hc        1 NFH      0.082111
     48 HG3B       -3.1730    2.9880   -1.4920 hc        1 NFH      0.082111
     49 HN2        -3.7180   -4.4910   -0.6080 h1        1 NFH      0.085333
     50 HN2A       -2.6550   -3.9300   -0.1970 h1        1 NFH      0.085333
     51 H29        -4.1410   -3.3720   -1.0340 h1        1 NFH      0.085333
@<TRIPOS>BOND
     1    1    3 1   
     2    1    5 1   
     3    2   11 1   
     4    2   13 1   
     5    2   14 1   
     6    4    6 1   
     7    4    7 1   
     8    5   15 1   
     9    5   23 1   
    10    7   22 1   
    11    7   24 1   
    12    8    9 1   
    13    8   13 1   
    14    8   25 1   
    15    9   10 1   
    16    9   26 1   
    17    9   27 1   
    18   10   17 1   
    19   10   18 1   
    20   10   28 1   
    21   11   12 1   
    22   11   29 1   
    23   13   30 1   
    24   13   31 1   
    25   14   32 1   
    26   15   16 1   
    27   15   33 1   
    28   16   19 1   
    29   16   20 1   
    30   16   21 1   
    31   17   34 1   
    32   17   35 1   
    33   17   36 1   
    34   18   37 1   
    35   18   38 1   
    36   18   39 1   
    37   19   40 1   
    38   19   41 1   
    39   19   42 1   
    40   20   43 1   
    41   20   44 1   
    42   20   45 1   
    43   21   46 1   
    44   21   47 1   
    45   21   48 1   
    46   22   49 1   
    47   22   50 1   
    48   22   51 1   
@<TRIPOS>SUBSTRUCTURE
     1 NFH         1 TEMP              0 ****  ****    0 ROOT
