@<TRIPOS>MOLECULE
NFH
   54    49     1     0     0
SMALL
bcc


@<TRIPOS>ATOM
      1 C         217.5080  164.1360   30.4820 c2        1 NFH      0.324000
      2 N         219.2470  164.1720   32.9570 n3        1 NFH     -0.026000
      3 O         217.0590  164.9990   31.2610 o         1 NFH     -0.372000
      4 C1        214.4210  162.6410   29.3580 c2        1 NFH      0.193000
      5 N1        216.7150  163.6260   29.4640 n         1 NFH     -0.373000
      6 CA        218.9500  163.6660   30.5690 c3        1 NFH     -0.186000
      7 CB        220.0050  161.9520   32.1200 c3        1 NFH     -0.192000
      8 CG        221.4880  161.9660   31.7430 c3        1 NFH     -0.102000
      9 CM        218.0800  166.5740   33.0950 c1        1 NFH      0.174000
     10 OM        217.5100  167.5770   33.2040 o         1 NFH     -0.032000
     11 CN        219.3720  163.3070   31.9710 c2        1 NFH      0.071000
     12 ON        219.5910  163.9420   34.1990 oh        1 NFH     -0.161000
     13 CA1       215.3100  163.9310   29.3910 c3        1 NFH     -0.131000
     14 CB1       214.9040  164.8450   28.2760 c2        1 NFH      0.309000
     15 CD1       222.3250  162.6490   32.8020 c3        1 NFH     -0.230000
     16 CD2       221.9590  160.5390   31.5410 c3        1 NFH     -0.230000
     17 CG1       215.7680  165.1300   27.1450 c3        1 NFH     -0.316500
     18 CG2       213.5810  165.4260   28.3320 c3        1 NFH     -0.316500
     19 CG3       217.1260  160.1920   29.1000 c3        1 NFH     -0.275000
     20 CN2     -1660.4680-1261.0210 -295.6540 c2        1 NFH      0.119000
     21 HN1       217.0510  162.8650   28.9120 hn        1 NFH      0.260000
     22 H2      -1660.5230-1260.1880 -296.3940 h4        1 NFH      0.215000
     23 HA        219.6000  164.5090   30.1870 hc        1 NFH      0.170500
     24 HB        221.6030  162.5220   30.7690 hc        1 NFH      0.095000
     25 HBA       219.1480  162.7780   29.9040 hc        1 NFH      0.170500
     26 HG        219.8880  161.5530   33.1660 hc        1 NFH      0.139000
     27 HM        218.7180  165.1830   32.9130 hn        1 NFH      0.402000
     28 HN        219.4590  161.2340   31.4450 hc        1 NFH      0.139000
     29 HNA       -40.0480   24.6070  168.3560 ha        1 NFH      0.000000
     30 HON       220.3390  163.2970   34.2540 ho        1 NFH      0.270000
     31 HA1       217.8740  160.8400   29.6100 hc        1 NFH      0.070000
     32 HD1       222.2230  162.1350   33.7890 hc        1 NFH      0.098000
     33 HD1A      223.4060  162.6110   32.5100 hc        1 NFH      0.098000
     34 HD1B      222.0410  163.7240   32.9140 hc        1 NFH      0.098000
     35 HD2       223.0420  160.5350   31.2620 hc        1 NFH      0.098000
     36 HD2A      221.8370  159.9450   32.4800 hc        1 NFH      0.098000
     37 HD2B      221.3830  160.0420   30.7240 hc        1 NFH      0.098000
     38 HG1       216.4080  166.0310   27.4010 hc        1 NFH      0.191833
     39 HG1A      216.4690  164.2940   26.8850 hc        1 NFH      0.191833
     40 HG1B      215.1820  165.4160   26.2250 hc        1 NFH      0.191833
     41 HG2       212.8190  164.6120   28.0590 hc        1 NFH      0.191833
     42 HG2A      213.4330  166.2700   27.6050 hc        1 NFH      0.191833
     43 HG2B      213.2790  165.7550   29.3650 hc        1 NFH      0.191833
     44 HG3       216.6420  160.7520   28.2700 hc        1 NFH      0.070000
     45 HG3A      216.3570  159.8570   29.8300 hc        1 NFH      0.070000
     46 HG3B      217.6410  159.2980   28.6810 hc        1 NFH      0.070000
     47 HN2     -1660.1200-1262.9930 -295.3720 hn        1 NFH      0.293000
     48 HN2A    -1659.9840-1262.4630 -296.9860 hn        1 NFH      0.293000
     49 H29     -1660.6750-1260.7820 -294.5840 h4        1 NFH      0.215000
     50 O1        213.2530  162.7060   29.0150 o         1 NFH     -0.191000
     51 H         -39.9520   24.7190  169.0160 ha        1 NFH      0.000000
     52 H12       215.0070  164.4460   30.3730 h1        1 NFH      0.216000
     53 H22       214.9390  161.7170   29.6980 h4        1 NFH      0.183000
     54 N2      -1660.1750-1262.2240 -296.0240 n3        1 NFH     -0.136000
@<TRIPOS>BOND
     1    1    3 1   
     2    1    5 1   
     3    1    6 1   
     4    2   11 1   
     5    2   12 1   
     6    2   27 1   
     7    4   13 1   
     8    4   50 1   
     9    4   53 1   
    10    5   13 1   
    11    5   21 1   
    12    6   11 1   
    13    6   23 1   
    14    6   25 1   
    15    7    8 1   
    16    7   11 1   
    17    7   26 1   
    18    7   28 1   
    19    8   15 1   
    20    8   16 1   
    21    8   24 1   
    22    9   10 1   
    23   12   30 1   
    24   13   14 1   
    25   13   52 1   
    26   14   17 1   
    27   14   18 1   
    28   15   32 1   
    29   15   33 1   
    30   15   34 1   
    31   16   35 1   
    32   16   36 1   
    33   16   37 1   
    34   17   38 1   
    35   17   39 1   
    36   17   40 1   
    37   18   41 1   
    38   18   42 1   
    39   18   43 1   
    40   19   31 1   
    41   19   44 1   
    42   19   45 1   
    43   19   46 1   
    44   20   22 1   
    45   20   49 1   
    46   20   54 1   
    47   29   51 1   
    48   47   54 1   
    49   48   54 1   
@<TRIPOS>SUBSTRUCTURE
     1 NFH         1 TEMP              0 ****  ****    0 ROOT
