@<TRIPOS>MOLECULE
NFL
   28    29     1     0     0
SMALL
bcc


@<TRIPOS>ATOM
      1 F3          0.3410    0.5630   -0.1060 f         1 NFL     -0.247633
      2 C15         1.5220   -0.0530    0.2420 c3        1 NFL      0.685200
      3 F1          1.3560   -0.3240    1.5810 f         1 NFL     -0.247633
      4 F2          2.4360    0.9730    0.2290 f         1 NFL     -0.247633
      5 C9          1.8850   -1.2620   -0.6070 ca        1 NFL     -0.139300
      6 C10         3.2210   -1.5570   -0.8470 ca        1 NFL     -0.157000
      7 C11         3.5800   -2.6950   -1.6240 ca        1 NFL      0.203600
      8 C12         2.5300   -3.5050   -2.1240 ca        1 NFL     -0.139000
      9 C13         1.2020   -3.1780   -1.8790 ca        1 NFL     -0.116000
     10 C14         0.8610   -2.0590   -1.1220 ca        1 NFL     -0.152000
     11 N2          4.9280   -2.9930   -1.7680 nh        1 NFL     -0.742300
     12 C1          5.5480   -3.5810   -2.8830 ca        1 NFL      0.660200
     13 N1          4.7910   -4.0620   -3.9210 nb        1 NFL     -0.758000
     14 C2          6.9840   -3.6770   -2.8880 ca        1 NFL     -0.269900
     15 C6          7.8980   -3.1200   -1.8050 c         1 NFL      0.919200
     16 O8          9.0610   -3.6010   -1.7320 o         1 NFL     -0.823300
     17 O7          7.4790   -2.1920   -1.0500 o         1 NFL     -0.823300
     18 C3          7.5890   -4.3090   -3.9710 ca        1 NFL     -0.053000
     19 C4          6.8180   -4.8090   -5.0240 ca        1 NFL     -0.311300
     20 C5          5.4300   -4.6510   -4.9450 ca        1 NFL      0.404200
     21 H10         4.0050   -0.9000   -0.4320 ha        1 NFL      0.159000
     22 H12         2.7510   -4.4120   -2.7080 ha        1 NFL      0.163000
     23 H13         0.4060   -3.8190   -2.2860 ha        1 NFL      0.124000
     24 H14        -0.1900   -1.8030   -0.9330 ha        1 NFL      0.132000
     25 HN2         5.5720   -2.4630   -1.1860 hn        1 NFL      0.501800
     26 H3          8.6880   -4.4070   -3.9690 ha        1 NFL      0.161000
     27 H4          7.2790   -5.3060   -5.8840 ha        1 NFL      0.121000
     28 H5          4.7690   -5.0140   -5.7510 h4        1 NFL     -0.006900
@<TRIPOS>BOND
     1    1    2 1   
     2    2    3 1   
     3    2    4 1   
     4    2    5 1   
     5    5    6 ar  
     6    5   10 ar  
     7    6    7 ar  
     8    6   21 1   
     9    7    8 ar  
    10    7   11 1   
    11    8    9 ar  
    12    8   22 1   
    13    9   10 ar  
    14    9   23 1   
    15   10   24 1   
    16   11   12 1   
    17   11   25 1   
    18   12   13 ar  
    19   12   14 ar  
    20   13   20 ar  
    21   14   15 1   
    22   14   18 ar  
    23   15   16 1   
    24   15   17 1   
    25   18   19 ar  
    26   18   26 1   
    27   19   20 ar  
    28   19   27 1   
    29   20   28 1   
@<TRIPOS>SUBSTRUCTURE
     1 NFL         1 TEMP              0 ****  ****    0 ROOT
