@<TRIPOS>MOLECULE
NFL
   29    30     1     0     0
SMALL
bcc


@<TRIPOS>ATOM
      1 F3          0.2140    0.6430   -0.6180 f         1 NFL     -0.235633
      2 C15         1.4480    0.1900   -0.2200 c3        1 NFL      0.687200
      3 F1          1.3890    0.2210    1.1530 f         1 NFL     -0.235633
      4 F2          2.3040    1.2150   -0.5400 f         1 NFL     -0.235633
      5 C9          1.8390   -1.1680   -0.7940 ca        1 NFL     -0.149300
      6 C10         3.1870   -1.4610   -0.9900 ca        1 NFL     -0.120000
      7 C11         3.5640   -2.7240   -1.4980 ca        1 NFL      0.127600
      8 C12         2.5580   -3.6650   -1.8030 ca        1 NFL     -0.083000
      9 C13         1.2180   -3.3430   -1.6100 ca        1 NFL     -0.122000
     10 C14         0.8470   -2.0980   -1.1050 ca        1 NFL     -0.092000
     11 N2          4.9360   -3.0530   -1.6100 nh        1 NFL     -0.729300
     12 C1          5.5060   -3.4990   -2.8170 ca        1 NFL      0.672200
     13 N1          4.7070   -3.8120   -3.8900 nb        1 NFL     -0.711000
     14 C2          6.9280   -3.6660   -2.8810 ca        1 NFL     -0.347900
     15 C6          7.8130   -3.3230   -1.7570 c         1 NFL      0.641700
     16 O8          8.8000   -2.5870   -1.7910 o         1 NFL     -0.476000
     17 O7          7.5690   -3.8460   -0.5170 oh        1 NFL     -0.582100
     18 C3          7.5030   -4.1300   -4.0700 ca        1 NFL     -0.008000
     19 C4          6.6860   -4.4510   -5.1490 ca        1 NFL     -0.291300
     20 C5          5.2980   -4.2760   -4.9980 ca        1 NFL      0.459200
     21 H10         3.9450   -0.6990   -0.7440 ha        1 NFL      0.154000
     22 H12         2.8230   -4.6590   -2.1970 ha        1 NFL      0.156000
     23 H13         0.4410   -4.0830   -1.8570 ha        1 NFL      0.146000
     24 H14        -0.2140   -1.8450   -0.9540 ha        1 NFL      0.155000
     25 HN2         6.8740   -4.5170   -0.5650 ho        1 NFL      0.438000
     26 H3          8.5990   -4.2300   -4.1370 ha        1 NFL      0.160000
     27 H4          7.1040   -4.8220   -6.0930 ha        1 NFL      0.157000
     28 H5          4.6040   -4.5130   -5.8280 h4        1 NFL      0.032100
     29 H22         5.5420   -2.4520   -1.0830 hn        1 NFL      0.435800
@<TRIPOS>BOND
     1    1    2 1   
     2    2    3 1   
     3    2    4 1   
     4    2    5 1   
     5    5    6 ar  
     6    5   10 ar  
     7    6    7 ar  
     8    6   21 1   
     9    7    8 ar  
    10    7   11 1   
    11    8    9 ar  
    12    8   22 1   
    13    9   10 ar  
    14    9   23 1   
    15   10   24 1   
    16   11   12 1   
    17   11   29 1   
    18   12   13 ar  
    19   12   14 ar  
    20   13   20 ar  
    21   14   15 1   
    22   14   18 ar  
    23   15   16 2   
    24   15   17 1   
    25   17   25 1   
    26   18   19 ar  
    27   18   26 1   
    28   19   20 ar  
    29   19   27 1   
    30   20   28 1   
@<TRIPOS>SUBSTRUCTURE
     1 NFL         1 TEMP              0 ****  ****    0 ROOT
