@<TRIPOS>MOLECULE
NFL
   28    25     1     0     0
SMALL
bcc


@<TRIPOS>ATOM
      1 F3         -0.9990   -3.7160    2.5830 f         1 NFL     -0.177333
      2 C15        -0.0900   -4.1040    1.6800 c3        1 NFL      0.465000
      3 F1          0.9070   -4.7500    2.2990 f         1 NFL     -0.177333
      4 F2         -0.6660   -4.9210    0.7890 f         1 NFL     -0.177333
      5 C9          0.4630   -2.8890    0.9660 c2        1 NFL     -0.138000
      6 C10        -0.4020   -1.9580    0.4120 c1        1 NFL     -0.118000
      7 C11         0.1050   -0.8540   -0.2550 c1        1 NFL      0.116000
      8 C12         1.4750   -0.6810   -0.3690 c1        1 NFL     -0.174000
      9 C13         2.3400   -1.6130    0.1840 c1        1 NFL     -0.112000
     10 C14         1.8330   -2.7170    0.8520 c2        1 NFL     -0.150000
     11 N2         -0.7800    0.0750   -0.8610 n3        1 NFL     -0.258000
     12 C1         -0.8230    1.4170   -0.4020 c2        1 NFL      0.135000
     13 N1         -1.1010    1.6810    0.9050 n2        1 NFL     -0.228000
     14 C2         -0.6060    2.4600   -1.2900 c1        1 NFL     -0.185000
     15 C6         -0.3410    2.1680   -2.7500 c1        1 NFL      0.368000
     16 O8         -1.3050    2.0360   -3.5500 o         1 NFL     -0.560000
     17 O7          0.8420    2.0790   -3.1700 o         1 NFL     -0.560000
     18 C3         -0.6710    3.7510   -0.8530 c2        1 NFL     -0.054000
     19 C4         -0.9500    4.0140    0.4570 c1        1 NFL     -0.245000
     20 C5         -1.1670    2.9700    1.3420 c1        1 NFL     -0.059000
     21 H10        -1.3670   -2.0740    0.5020 ha        1 NFL      0.176000
     22 H12         1.8320    0.0970   -0.8400 ha        1 NFL      0.149000
     23 H13         3.3050   -1.4910    0.1040 ha        1 NFL      0.125000
     24 H14         2.4420   -3.3730    1.2420 ha        1 NFL      0.133000
     25 HN2        -1.3320   -0.1940   -1.5350 hn        1 NFL      0.292000
     26 H3         -0.5590    4.4870   -1.4850 ha        1 NFL      0.160000
     27 H4         -1.0130    4.9380    0.7670 ha        1 NFL      0.122000
     28 H5         -1.3720    3.1580    2.2780 ha        1 NFL      0.133000
@<TRIPOS>BOND
     1    1    2 1   
     2    2    3 1   
     3    2    4 1   
     4    2    5 1   
     5    5    6 1   
     6    5   10 1   
     7    6   21 1   
     8    7    8 1   
     9    7   11 1   
    10    8   22 1   
    11    9   10 1   
    12    9   23 1   
    13   10   24 1   
    14   11   12 1   
    15   11   25 1   
    16   12   13 1   
    17   12   14 1   
    18   13   20 1   
    19   14   18 1   
    20   15   16 1   
    21   15   17 1   
    22   18   19 1   
    23   18   26 1   
    24   19   27 1   
    25   20   28 1   
@<TRIPOS>SUBSTRUCTURE
     1 NFL         1 TEMP              0 ****  ****    0 ROOT
