@<TRIPOS>MOLECULE
NFL
   28    29     1     0     0
SMALL
bcc


@<TRIPOS>ATOM
      1 F3          0.0600   -0.6460   -5.0440 f         1 NFL     -0.247633
      2 C15         0.7390   -0.1540   -3.9510 c3        1 NFL      0.685200
      3 F1          1.4510    0.9030   -4.4700 f         1 NFL     -0.247633
      4 F2          1.6980   -1.1080   -3.7130 f         1 NFL     -0.247633
      5 C9         -0.1410    0.2000   -2.7610 ca        1 NFL     -0.139300
      6 C10         0.3570    0.0550   -1.4720 ca        1 NFL     -0.157000
      7 C11        -0.4450    0.3990   -0.3470 ca        1 NFL      0.203600
      8 C12        -1.7480    0.8960   -0.5980 ca        1 NFL     -0.139000
      9 C13        -2.2240    1.0170   -1.8980 ca        1 NFL     -0.116000
     10 C14        -1.4340    0.6730   -2.9920 ca        1 NFL     -0.152000
     11 N2          0.1250    0.3140    0.9160 nh        1 NFL     -0.742300
     12 C1         -0.5270   -0.0180    2.1150 ca        1 NFL      0.660200
     13 N1         -1.8910   -0.1530    2.1460 nb        1 NFL     -0.758000
     14 C2          0.2760   -0.1900    3.2980 ca        1 NFL     -0.269900
     15 C6          1.7950   -0.1120    3.3380 c         1 NFL      0.919200
     16 O8          2.3300    0.1090    4.4580 o         1 NFL     -0.823300
     17 O7          2.4590   -0.2960    2.2730 o         1 NFL     -0.823300
     18 C3         -0.3820   -0.4660    4.4940 ca        1 NFL     -0.053000
     19 C4         -1.7730   -0.5940    4.5280 ca        1 NFL     -0.311300
     20 C5         -2.4690   -0.4330    3.3250 ca        1 NFL      0.404200
     21 H10         1.3810   -0.3300   -1.3250 ha        1 NFL      0.159000
     22 H12        -2.4010    1.2020    0.2340 ha        1 NFL      0.163000
     23 H13        -3.2430    1.3970   -2.0650 ha        1 NFL      0.124000
     24 H14        -1.8150    0.7680   -4.0180 ha        1 NFL      0.132000
     25 HN2         1.1280    0.1520    0.9480 hn        1 NFL      0.501800
     26 H3          0.2270   -0.5750    5.4080 ha        1 NFL      0.161000
     27 H4         -2.3030   -0.8140    5.4610 ha        1 NFL      0.121000
     28 H5         -3.5680   -0.5340    3.2870 h4        1 NFL     -0.006900
@<TRIPOS>BOND
     1    1    2 1   
     2    2    3 1   
     3    2    4 1   
     4    2    5 1   
     5    5    6 ar  
     6    5   10 ar  
     7    6    7 ar  
     8    6   21 1   
     9    7    8 ar  
    10    7   11 1   
    11    8    9 ar  
    12    8   22 1   
    13    9   10 ar  
    14    9   23 1   
    15   10   24 1   
    16   11   12 1   
    17   11   25 1   
    18   12   13 ar  
    19   12   14 ar  
    20   13   20 ar  
    21   14   15 1   
    22   14   18 ar  
    23   15   16 1   
    24   15   17 1   
    25   18   19 ar  
    26   18   26 1   
    27   19   20 ar  
    28   19   27 1   
    29   20   28 1   
@<TRIPOS>SUBSTRUCTURE
     1 NFL         1 TEMP              0 ****  ****    0 ROOT
