@<TRIPOS>MOLECULE
NFL
   28    29     1     0     0
SMALL
bcc


@<TRIPOS>ATOM
      1 F3          0.3420    0.5720   -0.1180 f         1 NFL     -0.247633
      2 C15         1.5220   -0.0450    0.2330 c3        1 NFL      0.685200
      3 F1          1.3520   -0.3150    1.5720 f         1 NFL     -0.247633
      4 F2          2.4380    0.9790    0.2210 f         1 NFL     -0.247633
      5 C9          1.8840   -1.2570   -0.6140 ca        1 NFL     -0.139300
      6 C10         3.2210   -1.5540   -0.8500 ca        1 NFL     -0.157000
      7 C11         3.5790   -2.6940   -1.6250 ca        1 NFL      0.203600
      8 C12         2.5290   -3.5030   -2.1250 ca        1 NFL     -0.139000
      9 C13         1.2010   -3.1730   -1.8830 ca        1 NFL     -0.116000
     10 C14         0.8600   -2.0530   -1.1290 ca        1 NFL     -0.152000
     11 N2          4.9270   -2.9940   -1.7660 nu        1 NFL     -0.742300
     12 C1          5.5480   -3.5840   -2.8790 ca        1 NFL      0.660200
     13 N1          4.7930   -4.0660   -3.9170 nb        1 NFL     -0.758000
     14 C2          6.9840   -3.6820   -2.8820 ca        1 NFL     -0.269900
     15 C6          7.8970   -3.1240   -1.7990 c         1 NFL      0.919200
     16 O8          9.0590   -3.6070   -1.7230 o         1 NFL     -0.823300
     17 O7          7.4780   -2.1940   -1.0460 o         1 NFL     -0.823300
     18 C3          7.5900   -4.3160   -3.9640 ca        1 NFL     -0.053000
     19 C4          6.8200   -4.8170   -5.0170 ca        1 NFL     -0.311300
     20 C5          5.4320   -4.6570   -4.9400 ca        1 NFL      0.404200
     21 H10         4.0050   -0.8980   -0.4350 ha        1 NFL      0.159000
     22 H12         2.7500   -4.4110   -2.7080 ha        1 NFL      0.163000
     23 H13         0.4050   -3.8140   -2.2910 ha        1 NFL      0.124000
     24 H14        -0.1910   -1.7950   -0.9420 ha        1 NFL      0.132000
     25 HN2         5.5710   -2.4630   -1.1840 hn        1 NFL      0.501800
     26 H3          8.6890   -4.4150   -3.9590 ha        1 NFL      0.161000
     27 H4          7.2820   -5.3160   -5.8750 ha        1 NFL      0.121000
     28 H5          4.7720   -5.0210   -5.7470 h4        1 NFL     -0.006900
@<TRIPOS>BOND
     1    1    2 1   
     2    2    3 1   
     3    2    4 1   
     4    2    5 1   
     5    5    6 ar  
     6    5   10 ar  
     7    6    7 ar  
     8    6   21 1   
     9    7    8 ar  
    10    7   11 1   
    11    8    9 ar  
    12    8   22 1   
    13    9   10 ar  
    14    9   23 1   
    15   10   24 1   
    16   11   12 1   
    17   11   25 1   
    18   12   13 ar  
    19   12   14 ar  
    20   13   20 ar  
    21   14   15 1   
    22   14   18 ar  
    23   15   16 1   
    24   15   17 1   
    25   18   19 ar  
    26   18   26 1   
    27   19   20 ar  
    28   19   27 1   
    29   20   28 1   
@<TRIPOS>SUBSTRUCTURE
     1 NFL         1 TEMP              0 ****  ****    0 ROOT
