@<TRIPOS>MOLECULE
NFM
   22    19     1     0     0
SMALL
bcc


@<TRIPOS>ATOM
      1 C1          0.3800    0.2820   -1.2130 c1        1 NFM      0.148000
      2 N1          1.7240    0.2750   -1.1960 n1        1 NFM     -0.235000
      3 O1         -4.4100   -0.5970    1.1100 o         1 NFM     -0.365000
      4 C2          2.3950    0.3140   -0.0070 c1        1 NFM      0.068000
      5 N2          1.7000    0.3590    1.1680 n2        1 NFM     -0.204000
      6 C3          0.3530    0.3650    1.1540 c1        1 NFM      0.011000
      7 N3         -0.3150    0.2200   -2.4510 n3        1 NFM     -0.330000
      8 C4         -0.3190    0.3270   -0.0390 c1        1 NFM     -0.277000
      9 N4         -2.2070   -1.0320    0.6500 n         1 NFM     -0.386000
     10 C5          3.9140    0.4200    0.0040 c2        1 NFM     -0.162000
     11 C6         -1.8180    0.2980    0.2310 c3        1 NFM      0.020000
     12 C7         -3.4080   -1.2210    1.4000 c2        1 NFM      0.255000
     13 H3         -0.1500    0.3980    2.0030 ha        1 NFM      0.172000
     14 HN3         0.1460    0.0830   -3.2260 hn        1 NFM      0.208500
     15 HN3A       -1.2230    0.3460   -2.4750 hn        1 NFM      0.208500
     16 HN4        -1.7110   -1.7570    0.3920 hn        1 NFM      0.228000
     17 H5          4.1850    1.2700   -0.4080 ha        1 NFM      0.103333
     18 H5A         4.2980   -0.3280   -0.5070 ha        1 NFM      0.103333
     19 H5B         4.2400    0.3850    0.9320 ha        1 NFM      0.103333
     20 H6         -2.3000    0.5370   -0.5860 h1        1 NFM      0.103500
     21 H6A        -2.0360    0.9450    0.9440 h1        1 NFM      0.103500
     22 H7         -3.4380   -1.8900    2.1190 h5        1 NFM      0.122000
@<TRIPOS>BOND
     1    1    7 1   
     2    1    8 1   
     3    2    4 1   
     4    3   12 1   
     5    4    5 1   
     6    5    6 1   
     7    6   13 1   
     8    7   14 1   
     9    7   15 1   
    10    8   11 1   
    11    9   11 1   
    12    9   12 1   
    13    9   16 1   
    14   10   17 1   
    15   10   18 1   
    16   10   19 1   
    17   11   20 1   
    18   11   21 1   
    19   12   22 1   
@<TRIPOS>SUBSTRUCTURE
     1 NFM         1 TEMP              0 ****  ****    0 ROOT
