@<TRIPOS>MOLECULE
NFM
   22    22     1     0     0
SMALL
bcc


@<TRIPOS>ATOM
      1 C1          0.4880    0.8540   -0.0240 ca        1 NFM      0.708200
      2 N1          1.8460    0.9880   -0.2390 nb        1 NFM     -0.774000
      3 O1         -3.3200    1.4480   -0.0910 o         1 NFM     -0.629100
      4 C2          2.6180   -0.1160   -0.0620 ca        1 NFM      0.693300
      5 N2          2.1690   -1.3580    0.3260 nb        1 NFM     -0.746000
      6 C3          0.8500   -1.4670    0.5450 ca        1 NFM      0.474200
      7 N3         -0.3320    1.9330   -0.2770 nh        1 NFM     -0.952500
      8 C4         -0.0590   -0.4060    0.3960 ca        1 NFM     -0.443900
      9 N4         -2.3660   -0.6160   -0.4680 n         1 NFM     -0.569900
     10 C5          4.1020    0.0270   -0.3060 c3        1 NFM     -0.137400
     11 C6         -1.5080   -0.6060    0.6890 c3        1 NFM      0.146300
     12 C7         -3.1880    0.4330   -0.8020 c         1 NFM      0.660900
     13 H3          0.4980   -2.4660    0.8640 h4        1 NFM      0.021100
     14 HN3        -1.2430    1.9300    0.1240 hn        1 NFM      0.441300
     15 HN3A        0.0850    2.8190   -0.4430 hn        1 NFM      0.441300
     16 HN4        -2.1720   -1.3050   -1.1560 hn        1 NFM      0.312500
     17 H5          4.4140   -0.6840   -1.1100 hc        1 NFM      0.062700
     18 H5A         4.3670    1.0660   -0.6180 hc        1 NFM      0.062700
     19 H5B         4.6560   -0.2230    0.6320 hc        1 NFM      0.062700
     20 H6         -1.6380   -1.5990    1.2140 h1        1 NFM      0.065700
     21 H6A        -1.8700    0.1990    1.3950 h1        1 NFM      0.065700
     22 H7         -3.7620    0.2830   -1.7460 h5        1 NFM      0.034200
@<TRIPOS>BOND
     1    1    2 ar  
     2    1    7 1   
     3    1    8 ar  
     4    2    4 ar  
     5    3   12 2   
     6    4    5 ar  
     7    4   10 1   
     8    5    6 ar  
     9    6    8 ar  
    10    6   13 1   
    11    7   14 1   
    12    7   15 1   
    13    8   11 1   
    14    9   11 1   
    15    9   12 1   
    16    9   16 1   
    17   10   17 1   
    18   10   18 1   
    19   10   19 1   
    20   11   20 1   
    21   11   21 1   
    22   12   22 1   
@<TRIPOS>SUBSTRUCTURE
     1 NFM         1 TEMP              0 ****  ****    0 ROOT
