@<TRIPOS>MOLECULE
NFM
   23    23     1     0     0
SMALL
bcc


@<TRIPOS>ATOM
      1 C1         -0.0060   -0.0650    0.0060 ca        1 NFM      0.669200
      2 N1          1.3610   -0.0490   -0.0420 nb        1 NFM     -0.733000
      3 O1         -4.8450   -0.5800    1.4110 o         1 NFM     -0.373100
      4 C2          2.0380   -0.0130    1.1420 ca        1 NFM      0.737300
      5 N2          1.4450    0.0190    2.3900 nb        1 NFM     -0.693000
      6 C3          0.1110   -0.0020    2.4250 ca        1 NFM      0.498200
      7 N3         -0.7610   -0.1790   -1.1850 nv        1 NFM     -0.941500
      8 C4         -0.6930   -0.0590    1.2610 ca        1 NFM     -0.478900
      9 N4         -2.7100   -1.4160    0.9060 ny        1 NFM     -0.701800
     10 C5          3.5440    0.0130    1.0940 c3        1 NFM     -0.154400
     11 C6         -2.1660   -0.0850    1.3580 c3        1 NFM      0.207100
     12 C7         -4.2020   -1.5330    1.0200 c         1 NFM      0.540900
     13 H3         -0.3490    0.0340    3.4320 h4        1 NFM      0.043100
     14 HN3        -1.3700    0.6090   -1.3060 hn        1 NFM      0.412300
     15 HN3A       -0.2000   -0.3240   -2.0060 hn        1 NFM      0.412300
     16 HN4        -2.4390   -1.5720   -0.0760 hn        1 NFM      0.471300
     17 H5          3.9230   -0.1060    0.0500 hc        1 NFM      0.086700
     18 H5A         3.9530   -0.8120    1.7290 hc        1 NFM      0.086700
     19 H5B         3.9040    0.9910    1.5040 hc        1 NFM      0.086700
     20 H6         -2.5100    0.0770    2.4220 hx        1 NFM      0.111200
     21 H6A        -2.6470    0.7070    0.7120 hx        1 NFM      0.111200
     22 H7         -4.5750   -2.5390    0.7140 hx        1 NFM      0.130200
     23 H42        -2.2730   -2.1580    1.4670 hn        1 NFM      0.471300
@<TRIPOS>BOND
     1    1    2 ar  
     2    1    7 1   
     3    1    8 ar  
     4    2    4 ar  
     5    3   12 2   
     6    4    5 ar  
     7    4   10 1   
     8    5    6 ar  
     9    6    8 ar  
    10    6   13 1   
    11    7   14 1   
    12    7   15 1   
    13    8   11 1   
    14    9   11 1   
    15    9   12 1   
    16    9   16 1   
    17    9   23 1   
    18   10   17 1   
    19   10   18 1   
    20   10   19 1   
    21   11   20 1   
    22   11   21 1   
    23   12   22 1   
@<TRIPOS>SUBSTRUCTURE
     1 NFM         1 TEMP              0 ****  ****    0 ROOT
