@<TRIPOS>MOLECULE
NFM
   23    23     1     0     0
SMALL
bcc


@<TRIPOS>ATOM
      1 C1          0.0100   -0.1770   -0.0220 ca        1 NFM      0.669200
      2 N1          1.3780   -0.1680   -0.0500 nb        1 NFM     -0.733000
      3 O1         -4.8520   -0.4920    1.3630 o         1 NFM     -0.373100
      4 C2          2.0350    0.0340    1.1290 ca        1 NFM      0.737300
      5 N2          1.4220    0.2400    2.3490 nb        1 NFM     -0.693000
      6 C3          0.0880    0.2240    2.3650 ca        1 NFM      0.498200
      7 N3         -0.7260   -0.4570   -1.1980 nh        1 NFM     -0.941500
      8 C4         -0.6980    0.0040    1.2080 ca        1 NFM     -0.478900
      9 N4         -2.7110   -1.3900    1.0140 n4        1 NFM     -0.701800
     10 C5          3.5420    0.0540    1.1010 c3        1 NFM     -0.154400
     11 C6         -2.1720   -0.0090    1.2840 c3        1 NFM      0.207100
     12 C7         -4.2050   -1.4910    1.1190 c         1 NFM      0.540900
     13 H3         -0.3880    0.4010    3.3500 h4        1 NFM      0.043100
     14 HN3        -0.1520   -0.7160   -1.9810 hn        1 NFM      0.412300
     15 HN3A       -1.3310    0.3060   -1.4370 hn        1 NFM      0.412300
     16 HN4        -2.4250   -1.6820    0.0670 hn        1 NFM      0.471300
     17 H5          3.9410   -0.6620    1.8630 hc        1 NFM      0.086700
     18 H5A         3.9380   -0.2230    0.0940 hc        1 NFM      0.086700
     19 H5B         3.8960    1.0850    1.3610 hc        1 NFM      0.086700
     20 H6         -2.5330    0.3010    2.3090 hx        1 NFM      0.111200
     21 H6A        -2.6400    0.6850    0.5260 hx        1 NFM      0.111200
     22 H7         -4.5740   -2.5290    0.9490 hx        1 NFM      0.130200
     23 H42        -2.2840   -2.0460    1.6790 hn        1 NFM      0.471300
@<TRIPOS>BOND
     1    1    2 ar  
     2    1    7 1   
     3    1    8 ar  
     4    2    4 ar  
     5    3   12 2   
     6    4    5 ar  
     7    4   10 1   
     8    5    6 ar  
     9    6    8 ar  
    10    6   13 1   
    11    7   14 1   
    12    7   15 1   
    13    8   11 1   
    14    9   11 1   
    15    9   12 1   
    16    9   16 1   
    17    9   23 1   
    18   10   17 1   
    19   10   18 1   
    20   10   19 1   
    21   11   20 1   
    22   11   21 1   
    23   12   22 1   
@<TRIPOS>SUBSTRUCTURE
     1 NFM         1 TEMP              0 ****  ****    0 ROOT
