@<TRIPOS>MOLECULE
NFM
   24    24     1     0     0
SMALL
bcc


@<TRIPOS>ATOM
      1 C1          0.0740    0.2980   -0.1010 ca        1 NFM      0.564200
      2 N1          1.4260    0.3510   -0.0720 nb        1 NFM     -0.688000
      3 O1         -4.7310   -1.0900    0.3900 o         1 NFM     -0.354100
      4 C2          2.0640   -0.1030    1.0570 ca        1 NFM      0.780300
      5 N2          1.3860   -0.5890    2.1570 nb        1 NFM     -0.619000
      6 C3          0.0560   -0.6290    2.0990 ca        1 NFM      0.479200
      7 N3         -0.5400    0.8550   -1.3310 n4        1 NFM     -0.840300
      8 C4         -0.7070   -0.2190    0.9630 ca        1 NFM     -0.403900
      9 N4         -2.7550   -1.5150    1.5920 n4        1 NFM     -0.710800
     10 C5          3.5640   -0.0550    1.1010 c3        1 NFM     -0.169400
     11 C6         -2.1940   -0.2660    0.9890 c3        1 NFM      0.167100
     12 C7         -4.2470   -1.7120    1.3070 c         1 NFM      0.567900
     13 H3         -0.4370   -0.9960    3.0230 h4        1 NFM      0.056100
     14 HN3        -1.1880    1.6110   -1.0780 hn        1 NFM      0.488800
     15 HN3A       -1.0400    0.1140   -1.8370 hn        1 NFM      0.488800
     16 HN4        -2.2490   -2.3340    1.2290 hn        1 NFM      0.471800
     17 H5          3.8840    0.6440    1.9200 hc        1 NFM      0.116033
     18 H5A         4.0000    0.2960    0.1310 hc        1 NFM      0.116033
     19 H5B         3.9660   -1.0760    1.3370 hc        1 NFM      0.116033
     20 H6         -2.6320   -0.1870   -0.0500 hx        1 NFM      0.120200
     21 H6A        -2.5890    0.6070    1.5980 hx        1 NFM      0.120200
     22 H7         -4.7090   -2.4450    2.0130 hx        1 NFM      0.173200
     23 H33         0.1920    1.2430   -1.9570 hn        1 NFM      0.488800
     24 H42        -2.6210   -1.4910    2.6110 hn        1 NFM      0.471800
@<TRIPOS>BOND
     1    1    2 ar  
     2    1    7 1   
     3    1    8 ar  
     4    2    4 ar  
     5    3   12 2   
     6    4    5 ar  
     7    4   10 1   
     8    5    6 ar  
     9    6    8 ar  
    10    6   13 1   
    11    7   14 1   
    12    7   15 1   
    13    7   23 1   
    14    8   11 1   
    15    9   11 1   
    16    9   12 1   
    17    9   16 1   
    18    9   24 1   
    19   10   17 1   
    20   10   18 1   
    21   10   19 1   
    22   11   20 1   
    23   11   21 1   
    24   12   22 1   
@<TRIPOS>SUBSTRUCTURE
     1 NFM         1 TEMP              0 ****  ****    0 ROOT
