@<TRIPOS>MOLECULE
NFN
   50    53     1     0     0
SMALL
bcc


@<TRIPOS>ATOM
      1 O1          2.3180    1.7630    0.0120 os        1 NFN     -0.325900
      2 C4          4.8480   -0.5210   -1.4080 ca        1 NFN     -0.077000
      3 C3          4.1480    0.6370   -1.1830 ca        1 NFN     -0.192000
      4 C10         4.4890   -1.7300   -0.7570 ca        1 NFN     -0.072000
      5 C2          3.0410    0.6290   -0.2910 ca        1 NFN      0.154100
      6 C9          3.3910   -1.7390    0.1430 ca        1 NFN      0.027000
      7 C1          2.6600   -0.5380    0.3620 ca        1 NFN     -0.157600
      8 C5          5.2110   -2.9330   -0.9920 ca        1 NFN     -0.118000
      9 C6          4.8560   -4.0960   -0.3560 ca        1 NFN     -0.136000
     10 C7          3.7640   -4.1070    0.5460 ca        1 NFN     -0.124000
     11 C8          3.0500   -2.9610    0.7920 ca        1 NFN     -0.108000
     12 C14        -2.1150   -1.0240    1.1210 c         1 NFN      0.652500
     13 N2         -2.9850    0.1060    1.0230 n         1 NFN     -0.340800
     14 C16        -3.8310    0.3790   -0.1190 c3        1 NFN     -0.079300
     15 C21        -5.1940    1.0840    0.2800 c         1 NFN      0.941600
     16 O4         -6.2010    0.6330   -0.3270 o         1 NFN     -0.811800
     17 O5         -5.1840    2.0220    1.1130 o         1 NFN     -0.811800
     18 C15        -3.0690    1.2340   -1.1740 c3        1 NFN      0.093100
     19 C19        -3.9060    2.3700   -1.7010 c3        1 NFN     -0.089100
     20 C20        -2.5560    0.3710   -2.3010 c3        1 NFN     -0.089100
     21 S1         -1.6080    1.9590   -0.3220 ss        1 NFN     -0.450200
     22 C13        -1.8900    1.0780    1.2170 cy        1 NFN      0.138800
     23 C12        -0.9050   -0.1120    1.5450 cy        1 NFN     -0.016300
     24 N1          0.2730   -0.2200    0.7600 n         1 NFN     -0.523900
     25 C11         1.5000   -0.5430    1.3080 c         1 NFN      0.688700
     26 O2          1.6280   -0.8750    2.5040 o         1 NFN     -0.612100
     27 C17         2.4550    2.8690   -0.8940 c3        1 NFN      0.134400
     28 C18         1.3740    3.8520   -0.5090 c3        1 NFN     -0.114100
     29 H4          5.7040   -0.5280   -2.1000 ha        1 NFN      0.129000
     30 H3          4.4390    1.5700   -1.6860 ha        1 NFN      0.138000
     31 H5          6.0580   -2.9090   -1.6930 ha        1 NFN      0.124000
     32 H6          5.4100   -5.0280   -0.5370 ha        1 NFN      0.125000
     33 H7          3.4960   -5.0480    1.0490 ha        1 NFN      0.133000
     34 H8          2.2070   -2.9620    1.5040 ha        1 NFN      0.167000
     35 H16        -4.1200   -0.6070   -0.5870 h1        1 NFN      0.081700
     36 H191       -3.3590    2.9220   -2.5030 hc        1 NFN      0.046367
     37 H192       -4.8640    1.9660   -2.1180 hc        1 NFN      0.046367
     38 H193       -4.1660    3.0780   -0.8720 hc        1 NFN      0.046367
     39 H201       -1.9450   -0.4760   -1.9050 hc        1 NFN      0.046367
     40 H202       -3.4180   -0.0510   -2.8740 hc        1 NFN      0.046367
     41 H203       -1.9250    0.9690   -3.0020 hc        1 NFN      0.046367
     42 H13        -2.0740    1.7890    2.0500 h2        1 NFN      0.121700
     43 H12        -0.6720   -0.2030    2.6390 h1        1 NFN      0.111700
     44 HN1         0.2470    0.2310   -0.1340 hn        1 NFN      0.336500
     45 H171        2.3250    2.5130   -1.9500 h1        1 NFN      0.032700
     46 H172        3.4770    3.3140   -0.7690 h1        1 NFN      0.032700
     47 H181        1.3950    4.7130   -1.2170 hc        1 NFN      0.060367
     48 H182        0.3650    3.3620   -0.5510 hc        1 NFN      0.060367
     49 H183        1.5360    4.2240    0.5300 hc        1 NFN      0.060367
     50 O3         -2.2720   -2.2320    1.0060 o         1 NFN     -0.569500
@<TRIPOS>BOND
     1    1    5 1   
     2    1   27 1   
     3    2    3 ar  
     4    2    4 ar  
     5    2   29 1   
     6    3    5 ar  
     7    3   30 1   
     8    4    6 ar  
     9    4    8 ar  
    10    5    7 ar  
    11    6    7 ar  
    12    6   11 ar  
    13    7   25 1   
    14    8    9 ar  
    15    8   31 1   
    16    9   10 ar  
    17    9   32 1   
    18   10   11 ar  
    19   10   33 1   
    20   11   34 1   
    21   12   13 1   
    22   12   23 1   
    23   12   50 2   
    24   13   14 1   
    25   13   22 1   
    26   14   15 1   
    27   14   18 1   
    28   14   35 1   
    29   15   16 1   
    30   15   17 1   
    31   18   19 1   
    32   18   20 1   
    33   18   21 1   
    34   19   36 1   
    35   19   37 1   
    36   19   38 1   
    37   20   39 1   
    38   20   40 1   
    39   20   41 1   
    40   21   22 1   
    41   22   23 1   
    42   22   42 1   
    43   23   24 1   
    44   23   43 1   
    45   24   25 1   
    46   24   44 1   
    47   25   26 2   
    48   27   28 1   
    49   27   45 1   
    50   27   46 1   
    51   28   47 1   
    52   28   48 1   
    53   28   49 1   
@<TRIPOS>SUBSTRUCTURE
     1 NFN         1 TEMP              0 ****  ****    0 ROOT
