@<TRIPOS>MOLECULE
NFN
   51    50     1     0     0
SMALL
bcc


@<TRIPOS>ATOM
      1 O1          0.1560   -1.3660   -0.3830 oh        1 NFN     -0.229000
      2 C4          3.0460   -0.6250    1.5430 c2        1 NFN     -0.104000
      3 C3          2.2520   -0.7320    0.5260 c1        1 NFN     -0.254000
      4 C10         4.1060   -0.8120   -1.8570 c2        1 NFN     -0.094000
      5 C2          1.4130   -0.8020   -0.4910 c2        1 NFN      0.105000
      6 C9          2.9200   -0.1730   -2.3970 c2        1 NFN     -0.115000
      7 C1          1.6820   -0.2540   -1.8180 c2        1 NFN      0.116000
      8 C5          5.2940   -0.6990   -2.5060 c2        1 NFN     -0.171000
      9 C6          5.3900    0.0170   -3.7460 c2        1 NFN     -0.037000
     10 C7          4.2740    0.5850   -4.3030 c2        1 NFN     -0.199000
     11 C8          3.0600    0.6250   -3.5890 c1        1 NFN     -0.126000
     12 C14        -0.3880    2.5950   -5.1330 cv        1 NFN      0.305000
     13 N2         -0.7830    3.9020   -4.7630 n         1 NFN     -0.295000
     14 C16        -1.0750    4.9700   -5.5880 c2        1 NFN     -0.020000
     15 C21         0.6400    2.6470   -8.7190 c1        1 NFN      0.435000
     16 O4          0.1580    3.7190   -8.5230 o         1 NFN     -0.218500
     17 O5          1.1320    1.5920   -8.9540 o         1 NFN     -0.218500
     18 C15        -1.7150    6.1310   -5.3220 c2        1 NFN     -0.188000
     19 C19        -2.2990    6.5430   -4.0290 c3        1 NFN     -0.168500
     20 C20        -1.8560    7.1360   -6.4090 c3        1 NFN     -0.168500
     21 S1         -0.0520    4.3610   -2.1220 sh        1 NFN      0.000000
     22 C13        -1.0580    3.5890   -3.3670 cy        1 NFN     -0.094000
     23 C12        -0.6410    2.0850   -3.6760 cy        1 NFN      0.016000
     24 N1          0.4490    1.5550   -2.9460 ns        1 NFN     -0.325000
     25 C11         0.4650    0.2130   -2.5800 c2        1 NFN      0.345000
     26 O2         -0.4840   -0.5570   -2.8050 o         1 NFN     -0.320000
     27 C17        -0.1800   -1.6930    3.0940 c2        1 NFN     -0.225500
     28 C18        -1.3900   -1.3840    2.6470 c2        1 NFN     -0.225500
     29 H4          3.0340    0.2540    2.2090 ha        1 NFN      0.138500
     30 H3          3.7840   -1.4010    1.8000 ha        1 NFN      0.138500
     31 H5          4.0090   -1.4320   -0.9520 ha        1 NFN      0.140000
     32 H6          6.2020   -1.1830   -2.1150 ha        1 NFN      0.138000
     33 H7          6.3790    0.0930   -4.2250 ha        1 NFN      0.134000
     34 H8          4.3150    1.0830   -5.2840 ha        1 NFN      0.154000
     35 H16        -0.6890    4.7820   -6.6180 h4        1 NFN      0.171000
     36 H191       -3.2180    7.1600   -4.2010 hc        1 NFN      0.077500
     37 H192       -2.5900    5.6740   -3.3930 hc        1 NFN      0.077500
     38 H193       -1.5690    7.1730   -3.4590 hc        1 NFN      0.077500
     39 H201       -2.9380    7.2710   -6.6630 hc        1 NFN      0.077500
     40 H202       -1.3130    6.8310   -7.3360 hc        1 NFN      0.077500
     41 H203       -1.4510    8.1220   -6.0700 hc        1 NFN      0.077500
     42 H13        -0.3540    5.6270   -2.3700 hs        1 NFN      0.044000
     43 H12        -2.1360    3.6880   -3.0930 h2        1 NFN      0.127000
     44 HN1        -1.5270    1.3910   -3.6400 h1        1 NFN      0.166000
     45 H171        0.0150   -1.6240    0.5440 ho        1 NFN      0.230000
     46 H172        0.7330   -1.1920    2.7360 ha        1 NFN      0.113500
     47 H181       -0.0070   -2.4670    3.8540 ha        1 NFN      0.113500
     48 H182       -1.5660   -0.6070    1.8890 ha        1 NFN      0.113500
     49 H183       -2.3000   -1.8830    3.0060 ha        1 NFN      0.113500
     50 H121        1.3410    2.0060   -3.0570 hn        1 NFN      0.277000
     51 O3         -0.0240    2.1220   -6.2010 o         1 NFN     -0.301000
@<TRIPOS>BOND
     1    1    5 1   
     2    1   45 1   
     3    2    3 1   
     4    2   29 1   
     5    2   30 1   
     6    3    5 1   
     7    4    6 1   
     8    4    8 1   
     9    4   31 1   
    10    5    7 1   
    11    6    7 1   
    12    6   11 1   
    13    7   25 1   
    14    8    9 1   
    15    8   32 1   
    16    9   10 1   
    17    9   33 1   
    18   10   11 1   
    19   10   34 1   
    20   12   13 1   
    21   12   23 1   
    22   12   51 1   
    23   13   14 1   
    24   13   22 1   
    25   14   18 1   
    26   14   35 1   
    27   15   16 1   
    28   15   17 1   
    29   18   19 1   
    30   18   20 1   
    31   19   36 1   
    32   19   37 1   
    33   19   38 1   
    34   20   39 1   
    35   20   40 1   
    36   20   41 1   
    37   21   22 1   
    38   21   42 1   
    39   22   23 1   
    40   22   43 1   
    41   23   24 1   
    42   23   44 1   
    43   24   25 1   
    44   24   50 1   
    45   25   26 1   
    46   27   28 1   
    47   27   46 1   
    48   27   47 1   
    49   28   48 1   
    50   28   49 1   
@<TRIPOS>SUBSTRUCTURE
     1 NFN         1 TEMP              0 ****  ****    0 ROOT
