@<TRIPOS>MOLECULE
NFN
   50    48     1     0     0
SMALL
bcc


@<TRIPOS>ATOM
      1 O1         -0.7100   -2.3550    1.4670 os        1 NFN     -0.242000
      2 C4          2.7020   -2.3840    1.0180 c1        1 NFN     -0.119000
      3 C3          1.3880   -2.4160    1.4790 c1        1 NFN     -0.146000
      4 C10         3.0260   -1.6540   -0.1710 c1        1 NFN     -0.051000
      5 C2          0.3790   -1.7310    0.7780 c2        1 NFN      0.090000
      6 C9          2.0320   -0.9800   -0.8620 c1        1 NFN     -0.006000
      7 C1          0.6960   -1.0130   -0.3910 c2        1 NFN     -0.124000
      8 C5          4.2810   -1.8840   -0.7820 c1        1 NFN     -0.119000
      9 C6          4.5200   -1.4310   -2.0810 c1        1 NFN     -0.128000
     10 C7          3.5100   -0.7450   -2.7860 c1        1 NFN     -0.128000
     11 C8          2.2740   -0.5180   -2.1850 c1        1 NFN     -0.118000
     12 O3         -2.8370   -0.0530    0.3550 o         1 NFN     -0.224000
     13 C14        -2.3100    0.8070   -0.3330 c1        1 NFN      0.329000
     14 N2         -2.3460    1.5210   -0.3650 n2        1 NFN     -0.216000
     15 C16        -1.9220    2.9730    0.3460 c3        1 NFN     -0.105000
     16 C21        -2.1350    2.8760    1.9070 c2        1 NFN      0.355000
     17 O4         -1.8330    1.8130    2.5190 o         1 NFN     -0.536000
     18 O5         -2.6580    3.8420    2.5350 o         1 NFN     -0.536000
     19 C15        -0.8050    3.0900    0.0220 c3        1 NFN     -0.076000
     20 C19         0.1100    2.5240    1.0780 c3        1 NFN     -0.211500
     21 C20        -0.4740    4.5800   -0.2360 c3        1 NFN     -0.211500
     22 S1         -0.6880    2.2760   -1.2850 ss        1 NFN     -0.107000
     23 C13        -1.8580    1.4900   -1.3390 c3        1 NFN     -0.160000
     24 C12        -1.7490    0.8090   -1.2970 c3        1 NFN     -0.054000
     25 N1         -1.1400    0.6060   -1.2860 n         1 NFN     -0.335000
     26 C11        -0.7240   -0.3580   -0.2940 c2        1 NFN      0.349000
     27 O2         -1.5280   -0.7780    0.5110 o         1 NFN     -0.314000
     28 C17        -0.8090   -3.7720    1.2390 c3        1 NFN     -0.029000
     29 C18        -2.2400   -4.2510    1.5850 c3        1 NFN     -0.214000
     30 H4          3.4100   -2.8660    1.5110 ha        1 NFN      0.124500
     31 H3          1.1750   -2.8640    2.3480 ha        1 NFN      0.141000
     32 H5          4.9810   -2.3590   -0.2950 ha        1 NFN      0.124500
     33 H6          5.3690   -1.5870   -2.4940 ha        1 NFN      0.131000
     34 H7          3.6810   -0.4220   -3.7140 ha        1 NFN      0.131000
     35 H8          1.5690   -0.0400   -2.6770 ha        1 NFN      0.189000
     36 H16        -2.4480    3.7740    0.1250 h1        1 NFN      0.108000
     37 H191        1.0290    2.5010    0.7360 hc        1 NFN      0.091333
     38 H192        0.0730    3.0900    1.8820 hc        1 NFN      0.091333
     39 H193       -0.1720    1.6290    1.3010 hc        1 NFN      0.091333
     40 H201       -1.0500    4.9230   -0.9470 hc        1 NFN      0.091333
     41 H202       -0.6280    5.1010    0.5960 hc        1 NFN      0.091333
     42 H203        0.4790    4.6670   -0.5090 hc        1 NFN      0.091333
     43 H13        -2.4700    1.7400   -2.0800 h2        1 NFN      0.122000
     44 H12        -2.1670    0.2700   -2.0290 h1        1 NFN      0.105000
     45 HN1        -0.5720    0.8210   -1.9810 hn        1 NFN      0.221000
     46 H171       -0.1550   -4.2460    1.8110 h1        1 NFN      0.093500
     47 H172       -0.6180   -3.9660    0.2910 h1        1 NFN      0.093500
     48 H181       -2.2490   -5.2310    1.6590 hc        1 NFN      0.085000
     49 H182       -2.5220   -3.8520    2.4490 hc        1 NFN      0.085000
     50 H183       -2.8680   -3.9670    0.8690 hc        1 NFN      0.085000
@<TRIPOS>BOND
     1    1    5 1   
     2    1   28 1   
     3    2    4 1   
     4    2   30 1   
     5    3    5 1   
     6    3   31 1   
     7    4    8 1   
     8    5    7 1   
     9    6    7 1   
    10    6   11 1   
    11    7   26 1   
    12    8   32 1   
    13    9   10 1   
    14    9   33 1   
    15   10   34 1   
    16   11   35 1   
    17   12   13 1   
    18   13   24 1   
    19   14   15 1   
    20   14   23 1   
    21   15   16 1   
    22   15   19 1   
    23   15   36 1   
    24   16   17 1   
    25   16   18 1   
    26   19   20 1   
    27   19   21 1   
    28   19   22 1   
    29   20   37 1   
    30   20   38 1   
    31   20   39 1   
    32   21   40 1   
    33   21   41 1   
    34   21   42 1   
    35   22   23 1   
    36   23   24 1   
    37   23   43 1   
    38   24   25 1   
    39   24   44 1   
    40   25   26 1   
    41   25   45 1   
    42   26   27 1   
    43   28   29 1   
    44   28   46 1   
    45   28   47 1   
    46   29   48 1   
    47   29   49 1   
    48   29   50 1   
@<TRIPOS>SUBSTRUCTURE
     1 NFN         1 TEMP              0 ****  ****    0 ROOT
