@<TRIPOS>MOLECULE
NFN
   51    52     1     0     0
SMALL
bcc


@<TRIPOS>ATOM
      1 O1          0.5530    0.8250    0.7150 oh        1 NFN     -0.495100
      2 C4          3.6290   -0.3910    1.6990 c1        1 NFN     -0.070500
      3 C3          2.7440   -0.0660    0.9590 cg        1 NFN     -0.223300
      4 C10         4.2310    0.0750   -1.6370 c3        1 NFN     -0.019000
      5 C2          1.6760    0.2970    0.1110 ce        1 NFN      0.285400
      6 C9          2.7990   -0.1490   -2.0640 cf        1 NFN     -0.105300
      7 C1          1.6670    0.2080   -1.2500 cf        1 NFN     -0.136200
      8 C5          5.0360    0.5880   -2.8040 c2        1 NFN     -0.154200
      9 C6          4.7050    0.3740   -4.0970 ce        1 NFN     -0.149000
     10 C7          3.6030   -0.5720   -4.3470 ce        1 NFN     -0.131100
     11 C8          2.7520   -0.5790   -3.3290 c1        1 NFN     -0.042800
     12 C14        -0.4690    1.6600   -5.4070 c         1 NFN      0.651500
     13 N2         -1.1510    2.9390   -5.4480 n         1 NFN     -0.365800
     14 C16        -0.4020    4.1220   -5.8840 c3        1 NFN      0.077900
     15 C21        -1.1680    5.0400   -6.8290 c         1 NFN      0.652100
     16 O4         -0.6470    5.5160   -7.8410 o         1 NFN     -0.501000
     17 O5         -2.4540    5.4810   -6.6780 os        1 NFN     -0.403900
     18 C15         0.0770    4.8740   -4.6700 c2        1 NFN     -0.902400
     19 C19        -3.2260    5.0800   -5.5590 c3        1 NFN      0.130700
     20 C20         1.2150    5.7750   -4.8690 c3        1 NFN      0.023100
     21 S1         -0.5820    4.4330   -3.3180 s4        1 NFN      0.427700
     22 C13        -1.3470    2.9500   -3.9700 cy        1 NFN      0.089000
     23 C12        -0.7310    1.5020   -3.8720 cy        1 NFN      0.032700
     24 N1          0.3990    1.3270   -3.0360 n         1 NFN     -0.549900
     25 C11         0.3680    0.4400   -1.9590 c         1 NFN      0.696300
     26 O2         -0.6970   -0.0890   -1.5940 o         1 NFN     -0.582100
     27 C17        -1.7760   -0.3630    2.6630 c2        1 NFN     -0.232000
     28 C18        -1.7350   -1.1210    1.5750 c2        1 NFN     -0.232000
     29 H4          4.2330    0.8450   -0.8190 hc        1 NFN      0.078200
     30 H3          4.4140   -0.6780    2.3540 ha        1 NFN      0.177500
     31 H5          4.7200   -0.8530   -1.2380 hc        1 NFN      0.078200
     32 H6          5.9470    1.1400   -2.5290 ha        1 NFN      0.138000
     33 H7          5.2710    0.7730   -4.9460 ha        1 NFN      0.148000
     34 H8          3.6140   -1.2310   -5.2190 ha        1 NFN      0.169000
     35 H16         0.4960    3.7870   -6.4970 h1        1 NFN      0.096700
     36 H191       -3.5700    4.0250   -5.6830 h1        1 NFN      0.040367
     37 H192       -2.6520    5.2030   -4.6070 h1        1 NFN      0.040367
     38 H193       -4.1010    5.7790   -5.5770 h1        1 NFN      0.040367
     39 H201        1.3360    6.4790   -4.0080 hc        1 NFN      0.031033
     40 H202        1.0610    6.3830   -5.7980 hc        1 NFN      0.031033
     41 H203        2.1720    5.2030   -4.9890 hc        1 NFN      0.031033
     42 H13         0.3770    4.1030   -2.5150 hs        1 NFN      0.151000
     43 H12        -2.4280    2.9610   -3.6960 h2        1 NFN      0.120700
     44 HN1        -1.5220    0.7340   -3.6450 h1        1 NFN      0.127700
     45 H171        0.4050    0.3580    1.5550 ho        1 NFN      0.443000
     46 H172       -1.5950    0.7200    2.6340 ha        1 NFN      0.117250
     47 H181       -2.0090   -0.7610    3.6590 ha        1 NFN      0.117250
     48 H182       -1.5070   -0.7190    0.5740 ha        1 NFN      0.117250
     49 H183       -1.9290   -2.2030    1.6000 ha        1 NFN      0.117250
     50 H121        1.2900    1.5740   -3.4040 hn        1 NFN      0.326500
     51 O3          0.0580    0.9800   -6.2690 o         1 NFN     -0.506500
@<TRIPOS>BOND
     1    1    5 1   
     2    1   45 1   
     3    2    3 3   
     4    2   30 1   
     5    3    5 1   
     6    4    6 1   
     7    4    8 1   
     8    4   29 1   
     9    4   31 1   
    10    5    7 2   
    11    6    7 1   
    12    6   11 2   
    13    7   25 1   
    14    8    9 2   
    15    8   32 1   
    16    9   10 1   
    17    9   33 1   
    18   10   11 2   
    19   10   34 1   
    20   12   13 1   
    21   12   23 1   
    22   12   51 2   
    23   13   14 1   
    24   13   22 1   
    25   14   15 1   
    26   14   18 1   
    27   14   35 1   
    28   15   16 2   
    29   15   17 1   
    30   17   19 1   
    31   18   20 1   
    32   18   21 2   
    33   19   36 1   
    34   19   37 1   
    35   19   38 1   
    36   20   39 1   
    37   20   40 1   
    38   20   41 1   
    39   21   22 1   
    40   21   42 1   
    41   22   23 1   
    42   22   43 1   
    43   23   24 1   
    44   23   44 1   
    45   24   25 1   
    46   24   50 1   
    47   25   26 2   
    48   27   28 2   
    49   27   46 1   
    50   27   47 1   
    51   28   48 1   
    52   28   49 1   
@<TRIPOS>SUBSTRUCTURE
     1 NFN         1 TEMP              0 ****  ****    0 ROOT
