@<TRIPOS>MOLECULE
NFN
   51    50     1     0     0
SMALL
bcc


@<TRIPOS>ATOM
      1 O1          0.7260    0.1150    0.8890 oh        1 NFN     -0.488100
      2 C4          3.5280   -1.8510    1.3330 c1        1 NFN     -0.075500
      3 C3          2.7150   -1.1840    0.7600 cg        1 NFN     -0.221300
      4 C10         4.1930   -0.5850   -1.7700 c3        1 NFN     -0.018000
      5 C2          1.7270   -0.4170    0.1040 ce        1 NFN      0.286400
      6 C9          2.7400   -0.4510   -2.1660 cf        1 NFN     -0.106300
      7 C1          1.6970   -0.1270   -1.2290 cf        1 NFN     -0.138200
      8 C5          5.0670    0.0670   -2.8120 c2        1 NFN     -0.157200
      9 C6          4.6940    0.2450   -4.0990 ce        1 NFN     -0.149000
     10 C7          3.4420   -0.4080   -4.5210 ce        1 NFN     -0.141100
     11 C8          2.6120   -0.5340   -3.4930 c1        1 NFN     -0.030800
     12 C14        -0.2810    2.5810   -4.7710 c         1 NFN      0.680500
     13 N2         -0.3740    3.9720   -4.5250 n         1 NFN     -0.384000
     14 C16        -0.8040    4.9410   -5.4200 c2        1 NFN     -0.047400
     15 C21         0.2260    2.1220   -8.4150 c1        1 NFN      0.901000
     16 O4         -0.2680    3.2030   -8.3320 o         1 NFN     -0.451500
     17 O5          0.7290    1.0520   -8.5360 o         1 NFN     -0.451500
     18 C15        -1.3610    6.1460   -5.1660 c2        1 NFN     -0.163400
     19 C19        -1.6790    6.6730   -3.8220 c3        1 NFN     -0.057400
     20 C20        -1.6950    7.0440   -6.3000 c3        1 NFN     -0.057400
     21 S1          0.5650    4.7260   -2.0330 sh        1 NFN     -0.315900
     22 C13        -0.5500    3.8530   -3.0770 cy        1 NFN      0.142800
     23 C12        -0.4190    2.2730   -3.2480 cy        1 NFN      0.025700
     24 N1          0.6570    1.6180   -2.6110 n         1 NFN     -0.542900
     25 C11         0.4620    0.5210   -1.7780 c         1 NFN      0.705300
     26 O2         -0.6820    0.1200   -1.4990 o         1 NFN     -0.586100
     27 C17        -1.7700   -1.1130    2.5830 c2        1 NFN     -0.232500
     28 C18        -1.8820   -1.5290    1.3280 c2        1 NFN     -0.232500
     29 H4          4.3340   -0.0610   -0.7870 hc        1 NFN      0.077700
     30 H3          4.2490   -2.4420    1.8410 ha        1 NFN      0.176500
     31 H5          4.5160   -1.6520   -1.6410 hc        1 NFN      0.077700
     32 H6          6.0610    0.3730   -2.4550 ha        1 NFN      0.136000
     33 H7          5.3170    0.7440   -4.8500 ha        1 NFN      0.144000
     34 H8          3.3310   -0.8170   -5.5280 ha        1 NFN      0.170000
     35 H16        -0.6180    4.6200   -6.4710 h4        1 NFN      0.167000
     36 H191       -0.8350    6.4930   -3.1040 hc        1 NFN      0.043367
     37 H192       -1.8710    7.7740   -3.8620 hc        1 NFN      0.043367
     38 H193       -2.5970    6.1770   -3.4170 hc        1 NFN      0.043367
     39 H201       -2.7750    7.3320   -6.2520 hc        1 NFN      0.043367
     40 H202       -1.0820    7.9780   -6.2390 hc        1 NFN      0.043367
     41 H203       -1.5020    6.5610   -7.2900 hc        1 NFN      0.043367
     42 H13         1.7330    4.3210   -2.4930 hs        1 NFN      0.200800
     43 H12        -1.5630    4.1600   -2.7100 h2        1 NFN      0.106700
     44 HN1        -1.3920    1.7570   -3.0150 h1        1 NFN      0.134700
     45 H171        0.5080   -0.5240    1.5890 ho        1 NFN      0.441000
     46 H172       -1.3860   -0.1160    2.8420 ha        1 NFN      0.117250
     47 H181       -2.0670   -1.7260    3.4450 ha        1 NFN      0.117250
     48 H182       -2.2780   -2.5200    1.0680 ha        1 NFN      0.117250
     49 H183       -1.5880   -0.9090    0.4650 ha        1 NFN      0.117250
     50 H121        1.5810    1.8260   -2.9130 hn        1 NFN      0.324500
     51 O3         -0.1280    1.9360   -5.8010 o         1 NFN     -0.581500
@<TRIPOS>BOND
     1    1    5 1   
     2    1   45 1   
     3    2    3 3   
     4    2   30 1   
     5    3    5 1   
     6    4    6 1   
     7    4    8 1   
     8    4   29 1   
     9    4   31 1   
    10    5    7 2   
    11    6    7 1   
    12    6   11 2   
    13    7   25 1   
    14    8    9 2   
    15    8   32 1   
    16    9   10 1   
    17    9   33 1   
    18   10   11 2   
    19   10   34 1   
    20   12   13 1   
    21   12   23 1   
    22   12   51 2   
    23   13   14 1   
    24   13   22 1   
    25   14   18 2   
    26   14   35 1   
    27   15   16 2   
    28   15   17 2   
    29   18   19 1   
    30   18   20 1   
    31   19   36 1   
    32   19   37 1   
    33   19   38 1   
    34   20   39 1   
    35   20   40 1   
    36   20   41 1   
    37   21   22 1   
    38   21   42 1   
    39   22   23 1   
    40   22   43 1   
    41   23   24 1   
    42   23   44 1   
    43   24   25 1   
    44   24   50 1   
    45   25   26 2   
    46   27   28 2   
    47   27   46 1   
    48   27   47 1   
    49   28   48 1   
    50   28   49 1   
@<TRIPOS>SUBSTRUCTURE
     1 NFN         1 TEMP              0 ****  ****    0 ROOT
