@<TRIPOS>MOLECULE
NFP
   41    42     1     0     0
SMALL
bcc


@<TRIPOS>ATOM
      1 C1         -0.1110   -0.1060    0.2130 ce        1 NFP     -0.348100
      2 C2          1.1180    0.3930    0.1130 c2        1 NFP     -0.091200
      3 C3          2.1320    0.3890    1.2200 c3        1 NFP      0.148700
      4 N1          1.5480    1.0030    2.4700 n4        1 NFP     -0.842600
      5 C4          2.6450   -1.0290    1.4750 c3        1 NFP     -0.111400
      6 C5          3.7780   -1.0710    2.4840 c3        1 NFP     -0.037100
      7 C6          4.4300   -2.4100    2.4870 ca        1 NFP     -0.117300
      8 C7          5.3250   -2.7540    1.4670 ca        1 NFP     -0.121000
      9 C8          5.9490   -4.0000    1.4740 ca        1 NFP     -0.117500
     10 C9          5.6850   -4.9090    2.4990 ca        1 NFP     -0.106000
     11 C10         4.7950   -4.5690    3.5180 ca        1 NFP     -0.117500
     12 C11         4.1690   -3.3230    3.5140 ca        1 NFP     -0.121000
     13 C12        -1.8670   -4.3190   -2.0260 ca        1 NFP     -0.039000
     14 C13        -2.6170   -3.7300   -1.0060 ca        1 NFP     -0.150000
     15 C14        -2.4250   -2.3900   -0.6890 ca        1 NFP     -0.011000
     16 C15        -1.4780   -1.6120   -1.3770 ca        1 NFP     -0.434500
     17 S1         -1.2980   -0.0100   -1.0400 sy        1 NFP      1.433200
     18 O1         -2.4280    0.5280   -0.4180 o         1 NFP     -0.637300
     19 O2         -0.7020    0.6920   -2.0910 o         1 NFP     -0.637300
     20 C16        -0.7400   -2.2200   -2.4060 ca        1 NFP     -0.011000
     21 C17        -0.9280   -3.5600   -2.7280 ca        1 NFP     -0.150000
     22 H1         -0.4620   -0.6010    1.1340 h4        1 NFP      0.157000
     23 H3          1.4770    0.8520   -0.8320 ha        1 NFP      0.195000
     24 H5          3.0070    1.0530    0.9350 hx        1 NFP      0.117700
     25 H6          0.7230    0.4710    2.7650 hn        1 NFP      0.461133
     26 H7          3.0150   -1.4230    0.4870 hc        1 NFP      0.095700
     27 H8          1.8040   -1.6980    1.7990 hc        1 NFP      0.095700
     28 H9          4.5430   -0.2880    2.2290 hc        1 NFP      0.043700
     29 H10         3.3910   -0.8460    3.5140 hc        1 NFP      0.043700
     30 H11         5.5430   -2.0360    0.6620 ha        1 NFP      0.128000
     31 H12         6.6550   -4.2640    0.6710 ha        1 NFP      0.147500
     32 H13         6.1810   -5.8920    2.5050 ha        1 NFP      0.150000
     33 H14         4.5900   -5.2830    4.3310 ha        1 NFP      0.147500
     34 H15         3.4760   -3.0600    4.3270 ha        1 NFP      0.128000
     35 H18        -3.0400   -1.9180    0.0980 ha        1 NFP      0.156000
     36 H19        -0.0170   -1.6130   -2.9810 ha        1 NFP      0.156000
     37 H20        -0.3450   -4.0170   -3.5420 ha        1 NFP      0.157000
     38 H21         2.2470    0.9840    3.2190 hn        1 NFP      0.461133
     39 H16        -2.0220   -5.3800   -2.2830 ha        1 NFP      0.155000
     40 H131        1.2680    1.9710    2.2840 hn        1 NFP      0.461133
     41 H17        -3.3690   -4.3220   -0.4610 ha        1 NFP      0.157000
@<TRIPOS>BOND
     1    1    2 2   
     2    1   17 1   
     3    1   22 1   
     4    2    3 1   
     5    2   23 1   
     6    3    4 1   
     7    3    5 1   
     8    3   24 1   
     9    4   25 1   
    10    4   38 1   
    11    4   40 1   
    12    5    6 1   
    13    5   26 1   
    14    5   27 1   
    15    6    7 1   
    16    6   28 1   
    17    6   29 1   
    18    7    8 ar  
    19    7   12 ar  
    20    8    9 ar  
    21    8   30 1   
    22    9   10 ar  
    23    9   31 1   
    24   10   11 ar  
    25   10   32 1   
    26   11   12 ar  
    27   11   33 1   
    28   12   34 1   
    29   13   14 ar  
    30   13   21 ar  
    31   13   39 1   
    32   14   15 ar  
    33   14   41 1   
    34   15   16 ar  
    35   15   35 1   
    36   16   17 1   
    37   16   20 ar  
    38   17   18 2   
    39   17   19 2   
    40   20   21 ar  
    41   20   36 1   
    42   21   37 1   
@<TRIPOS>SUBSTRUCTURE
     1 NFP         1 TEMP              0 ****  ****    0 ROOT
