@<TRIPOS>MOLECULE
NFP
   40    34     1     0     0
SMALL
bcc


@<TRIPOS>ATOM
      1 C1         -1.4060   -0.9520   -0.6740 c1        1 NFP     -0.866000
      2 C2          0.0430   -0.9130   -0.6340 c1        1 NFP     -0.015500
      3 C3          0.7470   -0.8290    0.6790 c2        1 NFP     -0.028000
      4 N1          1.0160   -2.1710    1.1850 n3        1 NFP     -0.333000
      5 C4          2.0630   -0.0760    0.4970 c3        1 NFP     -0.147000
      6 C5          2.6870    0.2170    1.8650 c3        1 NFP     -0.119000
      7 C6          3.7270    1.3950    1.7220 c2        1 NFP     -0.076000
      8 C7          5.0820    1.1090    1.5710 c1        1 NFP     -0.126000
      9 C8          6.0140    2.1510    1.4910 c1        1 NFP     -0.109667
     10 C9          5.5860    3.4750    1.5630 c1        1 NFP     -0.109667
     11 C10         4.2280    3.7630    1.7150 c1        1 NFP     -0.127000
     12 C11         3.2970    2.7220    1.7940 c2        1 NFP     -0.128000
     13 C12        -6.7680   -1.2820   -1.6450 c1        1 NFP     -0.109667
     14 C13        -6.1570   -0.0520   -1.7950 c1        1 NFP     -0.109667
     15 C14        -4.7840    0.0230   -1.9630 c1        1 NFP     -0.109667
     16 C15        -4.0160   -1.1430   -1.9810 c1        1 NFP     -0.866000
     17 S1         -2.2730   -1.0440   -2.2550 s6        1 NFP      2.889000
     18 O1         -1.8180   -2.1120   -3.0300 o         1 NFP     -0.938500
     19 O2         -1.9550    0.0320   -3.0700 o         1 NFP     -0.938500
     20 C16        -4.6230   -2.3690   -1.8320 c1        1 NFP     -0.015500
     21 C17        -6.0070   -2.4430   -1.6620 c1        1 NFP     -0.109667
     22 H1         -1.9190   -0.9240    0.1610 DU        1 NFP      0.175000
     23 H3          0.5450   -0.9780   -1.4390 ha        1 NFP      0.149000
     24 H5          0.2110   -0.3720    1.2860 h4        1 NFP      0.114000
     25 H6          0.4340   -2.3540    1.9340 hn        1 NFP      0.149500
     26 H7          2.6700   -0.6140   -0.0230 hc        1 NFP      0.092000
     27 H8          1.8870    0.7950    0.0150 hc        1 NFP      0.092000
     28 H9          3.1440   -0.5810    2.1900 hc        1 NFP      0.097500
     29 H10         1.9880    0.4720    2.4960 hc        1 NFP      0.097500
     30 H11         5.3800    0.1920    1.5210 ha        1 NFP      0.131000
     31 H12         6.9290    1.9570    1.3890 ha        1 NFP      0.139167
     32 H13         6.2560    4.2230    1.5070 ha        1 NFP      0.139167
     33 H14         3.9300    4.6870    1.7640 ha        1 NFP      0.132000
     34 H15         2.3360    2.9260    1.9020 ha        1 NFP      0.131000
     35 H16        -7.7920   -1.3360   -1.5200 ha        1 NFP      0.139167
     36 H17        -6.6700    0.7310   -1.7820 ha        1 NFP      0.139167
     37 H18        -4.3460    0.9070   -2.0700 ha        1 NFP      0.139167
     38 H19        -4.1020   -3.1630   -1.8440 ha        1 NFP      0.149000
     39 H20        -6.4280   -3.2890   -1.5590 ha        1 NFP      0.139167
     40 H21         0.8650   -2.7790    0.5290 hn        1 NFP      0.149500
@<TRIPOS>BOND
     1    1    2 1   
     2    1   17 1   
     3    2   23 1   
     4    3    4 1   
     5    3    5 1   
     6    3   24 1   
     7    4   25 1   
     8    4   40 1   
     9    5    6 1   
    10    5   26 1   
    11    5   27 1   
    12    6    7 1   
    13    6   28 1   
    14    6   29 1   
    15    7    8 1   
    16    7   12 1   
    17    8   30 1   
    18    9   10 1   
    19    9   31 1   
    20   10   32 1   
    21   11   12 1   
    22   11   33 1   
    23   12   34 1   
    24   13   21 1   
    25   13   35 1   
    26   14   15 1   
    27   14   36 1   
    28   15   37 1   
    29   16   17 1   
    30   16   20 1   
    31   17   18 1   
    32   17   19 1   
    33   20   38 1   
    34   21   39 1   
@<TRIPOS>SUBSTRUCTURE
     1 NFP         1 TEMP              0 ****  ****    0 ROOT
