@<TRIPOS>MOLECULE
NFP
   40    41     1     0     0
SMALL
bcc


@<TRIPOS>ATOM
      1 C1          1.5600   -1.2980    0.1260 ce        1 NFP     -0.469100
      2 C2          0.2730   -1.1790   -0.2090 c2        1 NFP      0.029800
      3 C3         -0.9090   -1.4120    0.6890 c3        1 NFP      0.171700
      4 N1         -0.5880   -1.3650    2.1020 n3        1 NFP     -0.900800
      5 C4         -2.0440   -0.4680    0.2410 c3        1 NFP     -0.117400
      6 C5         -3.3460   -0.7700    0.9560 c3        1 NFP     -0.037100
      7 C6         -4.4890   -0.0450    0.3340 ca        1 NFP     -0.084300
      8 C7         -5.0010   -0.4670   -0.9000 ca        1 NFP     -0.126500
      9 C8         -6.0760    0.2030   -1.4810 ca        1 NFP     -0.126500
     10 C9         -6.6500    1.2990   -0.8360 ca        1 NFP     -0.129000
     11 C10        -6.1450    1.7220    0.3930 ca        1 NFP     -0.126500
     12 C11        -5.0700    1.0540    0.9770 ca        1 NFP     -0.126500
     13 C12         4.5230    2.7720    0.6200 ca        1 NFP     -0.069000
     14 C13         4.8730    1.5720    1.2380 ca        1 NFP     -0.156500
     15 C14         4.3500    0.3700    0.7670 ca        1 NFP     -0.019000
     16 C15         3.4690    0.3470   -0.3220 ca        1 NFP     -0.368500
     17 S1          2.8580   -1.1100   -0.8980 sy        1 NFP      1.435200
     18 O1          3.7890   -2.1330   -0.6650 o         1 NFP     -0.661300
     19 O2          2.4000   -0.9420   -2.2180 o         1 NFP     -0.661300
     20 C16         3.1340    1.5590   -0.9380 ca        1 NFP     -0.019000
     21 C17         3.6540    2.7650   -0.4720 ca        1 NFP     -0.156500
     22 H1          1.8170   -1.5870    1.1640 h4        1 NFP      0.192000
     23 H3         -0.0040   -0.9200   -1.2510 ha        1 NFP      0.143000
     24 H5         -1.2510   -2.4770    0.4790 h1        1 NFP      0.083700
     25 H6         -0.2020   -0.4760    2.3520 hn        1 NFP      0.354800
     26 H7         -1.7480    0.5970    0.4250 hc        1 NFP      0.055200
     27 H8         -2.1970   -0.5890   -0.8640 hc        1 NFP      0.055200
     28 H9         -3.5460   -1.8750    0.9190 hc        1 NFP      0.048200
     29 H10        -3.2650   -0.4820    2.0390 hc        1 NFP      0.048200
     30 H11        -4.5510   -1.3320   -1.4090 ha        1 NFP      0.131000
     31 H12        -6.4720   -0.1350   -2.4500 ha        1 NFP      0.132500
     32 H13        -7.4980    1.8260   -1.2950 ha        1 NFP      0.133000
     33 H14        -6.5960    2.5850    0.9050 ha        1 NFP      0.132500
     34 H15        -4.6780    1.3920    1.9480 ha        1 NFP      0.131000
     35 H17         5.5660    1.5720    2.0930 ha        1 NFP      0.140500
     36 H18         4.6420   -0.5830    1.2430 ha        1 NFP      0.153500
     37 H19         2.4620    1.5500   -1.8130 ha        1 NFP      0.153500
     38 H20         3.3830    3.7080   -0.9690 ha        1 NFP      0.140500
     39 H21        -1.4100   -1.5340    2.6470 hn        1 NFP      0.354800
     40 H16         4.9350    3.7230    0.9890 ha        1 NFP      0.136000
@<TRIPOS>BOND
     1    1    2 2   
     2    1   17 1   
     3    1   22 1   
     4    2    3 1   
     5    2   23 1   
     6    3    4 1   
     7    3    5 1   
     8    3   24 1   
     9    4   25 1   
    10    4   39 1   
    11    5    6 1   
    12    5   26 1   
    13    5   27 1   
    14    6    7 1   
    15    6   28 1   
    16    6   29 1   
    17    7    8 ar  
    18    7   12 ar  
    19    8    9 ar  
    20    8   30 1   
    21    9   10 ar  
    22    9   31 1   
    23   10   11 ar  
    24   10   32 1   
    25   11   12 ar  
    26   11   33 1   
    27   12   34 1   
    28   13   14 ar  
    29   13   21 ar  
    30   13   40 1   
    31   14   15 ar  
    32   14   35 1   
    33   15   16 ar  
    34   15   36 1   
    35   16   17 1   
    36   16   20 ar  
    37   17   18 2   
    38   17   19 2   
    39   20   21 ar  
    40   20   37 1   
    41   21   38 1   
@<TRIPOS>SUBSTRUCTURE
     1 NFP         1 TEMP              0 ****  ****    0 ROOT
