@<TRIPOS>MOLECULE
NFP
   41    42     1     0     0
SMALL
bcc


@<TRIPOS>ATOM
      1 C1         -0.1330   -0.0520    0.0670 ce        1 NFP     -0.363100
      2 C2          1.1720    0.1990    0.1140 c2        1 NFP     -0.080200
      3 C3          2.0390    0.2030    1.3350 c3        1 NFP      0.146700
      4 N1          1.2700    0.5850    2.5750 n4        1 NFP     -0.841600
      5 C4          2.7270   -1.1560    1.4990 c3        1 NFP     -0.110400
      6 C5          3.7670   -1.1520    2.6040 c3        1 NFP     -0.037100
      7 C6          4.5880   -2.3930    2.5580 ca        1 NFP     -0.118300
      8 C7          5.6010   -2.5250    1.6010 ca        1 NFP     -0.121000
      9 C8          6.3820   -3.6780    1.5630 ca        1 NFP     -0.117000
     10 C9          6.1580   -4.7060    2.4800 ca        1 NFP     -0.105000
     11 C10         5.1510   -4.5770    3.4370 ca        1 NFP     -0.117000
     12 C11         4.3670   -3.4240    3.4770 ca        1 NFP     -0.121000
     13 C12        -2.3810   -4.1700   -1.8880 ca        1 NFP     -0.041000
     14 C13        -3.1400   -3.2920   -1.1120 ca        1 NFP     -0.150000
     15 C14        -2.7190   -1.9780   -0.9410 ca        1 NFP     -0.012500
     16 C15        -1.5320   -1.5140   -1.5340 ca        1 NFP     -0.432500
     17 S1         -1.0720    0.0620   -1.3790 sy        1 NFP      1.435200
     18 O1         -2.1470    0.8890   -1.0480 o         1 NFP     -0.636800
     19 O2         -0.1910    0.4550   -2.3900 o         1 NFP     -0.636800
     20 C16        -0.7880   -2.4100   -2.3180 ca        1 NFP     -0.012500
     21 C17        -1.2040   -3.7260   -2.4930 ca        1 NFP     -0.150000
     22 H1         -0.7210   -0.3220    0.9570 h4        1 NFP      0.152000
     23 H3          1.7380    0.4360   -0.8150 ha        1 NFP      0.199000
     24 H5          2.8330    1.0070    1.2130 hx        1 NFP      0.120700
     25 H6          0.7650    1.4620    2.4130 hn        1 NFP      0.461800
     26 H7          1.9690   -1.9640    1.6770 hc        1 NFP      0.096700
     27 H8          3.2310   -1.3870    0.5180 hc        1 NFP      0.096700
     28 H9          4.4390   -0.2590    2.4900 hc        1 NFP      0.044200
     29 H10         3.2670   -1.0740    3.6080 hc        1 NFP      0.044200
     30 H11         5.7880   -1.7130    0.8820 ha        1 NFP      0.128000
     31 H12         7.1810   -3.7760    0.8110 ha        1 NFP      0.147500
     32 H13         6.7770   -5.6150    2.4510 ha        1 NFP      0.150000
     33 H14         4.9760   -5.3840    4.1650 ha        1 NFP      0.147500
     34 H15         3.5810   -3.3270    4.2400 ha        1 NFP      0.128000
     35 H18        -3.3360   -1.2750   -0.3520 ha        1 NFP      0.156000
     36 H19         0.1280   -2.0530   -2.8220 ha        1 NFP      0.156000
     37 H20        -0.6110   -4.4120   -3.1190 ha        1 NFP      0.157000
     38 H21         1.9210    0.6960    3.3580 hn        1 NFP      0.461800
     39 H16        -2.7160   -5.2110   -2.0310 ha        1 NFP      0.155000
     40 H131        0.5940   -0.1500    2.8050 hn        1 NFP      0.461800
     41 H17        -4.0770   -3.6350   -0.6470 ha        1 NFP      0.157000
@<TRIPOS>BOND
     1    1    2 2   
     2    1   17 1   
     3    1   22 1   
     4    2    3 1   
     5    2   23 1   
     6    3    4 1   
     7    3    5 1   
     8    3   24 1   
     9    4   25 1   
    10    4   38 1   
    11    4   40 1   
    12    5    6 1   
    13    5   26 1   
    14    5   27 1   
    15    6    7 1   
    16    6   28 1   
    17    6   29 1   
    18    7    8 ar  
    19    7   12 ar  
    20    8    9 ar  
    21    8   30 1   
    22    9   10 ar  
    23    9   31 1   
    24   10   11 ar  
    25   10   32 1   
    26   11   12 ar  
    27   11   33 1   
    28   12   34 1   
    29   13   14 ar  
    30   13   21 ar  
    31   13   39 1   
    32   14   15 ar  
    33   14   41 1   
    34   15   16 ar  
    35   15   35 1   
    36   16   17 1   
    37   16   20 ar  
    38   17   18 2   
    39   17   19 2   
    40   20   21 ar  
    41   20   36 1   
    42   21   37 1   
@<TRIPOS>SUBSTRUCTURE
     1 NFP         1 TEMP              0 ****  ****    0 ROOT
