@<TRIPOS>MOLECULE
NFP
   41    42     1     0     0
SMALL
bcc


@<TRIPOS>ATOM
      1 C1         -0.0950   -0.0970    0.1940 ce        1 NFP     -0.348100
      2 C2          1.1380    0.3950    0.1060 c2        1 NFP     -0.091200
      3 C3          2.1400    0.3850    1.2240 c3        1 NFP      0.148700
      4 N1          1.5460    1.0030    2.4680 nz        1 NFP     -0.842600
      5 C4          2.6430   -1.0360    1.4840 c3        1 NFP     -0.111400
      6 C5          3.7640   -1.0840    2.5060 c3        1 NFP     -0.037100
      7 C6          4.4090   -2.4260    2.5150 ca        1 NFP     -0.117300
      8 C7          5.3140   -2.7730    1.5050 ca        1 NFP     -0.121000
      9 C8          5.9330   -4.0220    1.5180 ca        1 NFP     -0.117500
     10 C9          5.6520   -4.9310    2.5390 ca        1 NFP     -0.106000
     11 C10         4.7530   -4.5880    3.5490 ca        1 NFP     -0.117500
     12 C11         4.1320   -3.3390    3.5380 ca        1 NFP     -0.121000
     13 C12        -1.8580   -4.3000   -2.0580 ca        1 NFP     -0.039000
     14 C13        -2.6150   -3.7040   -1.0470 ca        1 NFP     -0.150000
     15 C14        -2.4160   -2.3650   -0.7310 ca        1 NFP     -0.011000
     16 C15        -1.4560   -1.5950   -1.4090 ca        1 NFP     -0.434500
     17 S1         -1.2680    0.0070   -1.0720 sy        1 NFP      1.433200
     18 O1         -2.4000    0.5540   -0.4640 o         1 NFP     -0.637300
     19 O2         -0.6550    0.7020   -2.1180 o         1 NFP     -0.637300
     20 C16        -0.7110   -2.2100   -2.4290 ca        1 NFP     -0.011000
     21 C17        -0.9060   -3.5490   -2.7500 ca        1 NFP     -0.150000
     22 H1         -0.4590   -0.5890    1.1110 h4        1 NFP      0.157000
     23 H3          1.5100    0.8500   -0.8360 ha        1 NFP      0.195000
     24 H5          3.0220    1.0450    0.9480 hx        1 NFP      0.117700
     25 H6          1.2730    1.9710    2.2780 hn        1 NFP      0.461133
     26 H7          3.0220   -1.4310    0.5000 hc        1 NFP      0.095700
     27 H8          1.7950   -1.7010    1.7990 hc        1 NFP      0.095700
     28 H9          4.5350   -0.3050    2.2600 hc        1 NFP      0.043700
     29 H10         3.3670   -0.8580    3.5320 hc        1 NFP      0.043700
     30 H11         5.5460   -2.0560    0.7040 ha        1 NFP      0.128000
     31 H12         6.6470   -4.2890    0.7240 ha        1 NFP      0.147500
     32 H13         6.1440   -5.9160    2.5510 ha        1 NFP      0.150000
     33 H14         4.5350   -5.3010    4.3590 ha        1 NFP      0.147500
     34 H15         3.4310   -3.0730    4.3430 ha        1 NFP      0.128000
     35 H18        -3.0370   -1.8860    0.0490 ha        1 NFP      0.156000
     36 H19         0.0230   -1.6100   -2.9970 ha        1 NFP      0.156000
     37 H20        -0.3180   -4.0130   -3.5580 ha        1 NFP      0.157000
     38 H21         0.7160    0.4740    2.7550 hn        1 NFP      0.461133
     39 H16        -2.0180   -5.3600   -2.3150 ha        1 NFP      0.155000
     40 H131        2.2380    0.9800    3.2240 hn        1 NFP      0.461133
     41 H17        -3.3780   -4.2890   -0.5100 ha        1 NFP      0.157000
@<TRIPOS>BOND
     1    1    2 2   
     2    1   17 1   
     3    1   22 1   
     4    2    3 1   
     5    2   23 1   
     6    3    4 1   
     7    3    5 1   
     8    3   24 1   
     9    4   25 1   
    10    4   38 1   
    11    4   40 1   
    12    5    6 1   
    13    5   26 1   
    14    5   27 1   
    15    6    7 1   
    16    6   28 1   
    17    6   29 1   
    18    7    8 ar  
    19    7   12 ar  
    20    8    9 ar  
    21    8   30 1   
    22    9   10 ar  
    23    9   31 1   
    24   10   11 ar  
    25   10   32 1   
    26   11   12 ar  
    27   11   33 1   
    28   12   34 1   
    29   13   14 ar  
    30   13   21 ar  
    31   13   39 1   
    32   14   15 ar  
    33   14   41 1   
    34   15   16 ar  
    35   15   35 1   
    36   16   17 1   
    37   16   20 ar  
    38   17   18 2   
    39   17   19 2   
    40   20   21 ar  
    41   20   36 1   
    42   21   37 1   
@<TRIPOS>SUBSTRUCTURE
     1 NFP         1 TEMP              0 ****  ****    0 ROOT
