@<TRIPOS>MOLECULE
NFQ
   17    16     1     0     0
SMALL
bcc


@<TRIPOS>ATOM
      1 C           1.5060   -1.4610   -0.1900 c         1 NFQ      0.916600
      2 N           0.6990    0.8430   -0.7120 nh        1 NFQ     -0.756200
      3 O1          2.1660   -1.9500    0.7760 o         1 NFQ     -0.866300
      4 O2          1.6130   -1.8860   -1.3760 o         1 NFQ     -0.866300
      5 CA          0.4940   -0.3140    0.1480 c3        1 NFQ      0.095500
      6 CB         -0.9230   -0.8990    0.0190 c3        1 NFQ     -0.195400
      7 CF          0.9360    2.1130   -0.2270 c2        1 NFQ      0.640100
      8 NF          1.4410    2.4730    0.9230 n2        1 NFQ     -0.907100
      9 CG         -2.0690    0.1100   -0.0550 c         1 NFQ      0.900600
     10 OD1        -2.9820    0.0670    0.8260 o         1 NFQ     -0.885300
     11 OD2        -2.1260    0.9310   -1.0270 o         1 NFQ     -0.885300
     12 HN          0.0370    0.8460   -1.4710 hn        1 NFQ      0.431800
     13 HA          0.6700   -0.0250    1.2230 h1        1 NFQ      0.061700
     14 HB         -0.9640   -1.5190   -0.9140 hc        1 NFQ      0.037200
     15 HBA        -1.0860   -1.5750    0.8960 hc        1 NFQ      0.037200
     16 HF          0.7230    2.8760   -1.0280 h5        1 NFQ     -0.082200
     17 HNF         1.6060    3.4580    0.9440 hn        1 NFQ      0.323400
@<TRIPOS>BOND
     1    1    3 1   
     2    1    4 1   
     3    1    5 1   
     4    2    5 1   
     5    2    7 1   
     6    2   12 1   
     7    5    6 1   
     8    5   13 1   
     9    6    9 1   
    10    6   14 1   
    11    6   15 1   
    12    7    8 2   
    13    7   16 1   
    14    8   17 1   
    15    9   10 1   
    16    9   11 1   
@<TRIPOS>SUBSTRUCTURE
     1 NFQ         1 TEMP              0 ****  ****    0 ROOT
