@<TRIPOS>MOLECULE
NFQ
   17    14     1     0     0
SMALL
bcc


@<TRIPOS>ATOM
      1 C          -1.6820   -0.0480   -0.1160 c1        1 NFQ      0.327000
      2 N           0.4570    0.8950   -0.6480 n3        1 NFQ     -0.342000
      3 O1         -2.4120   -0.9560   -0.6080 o         1 NFQ     -0.600500
      4 O2         -2.2080    0.9820    0.3800 o         1 NFQ     -0.600500
      5 CA         -0.1810   -0.2310   -0.0590 c2        1 NFQ     -0.036000
      6 CB          0.2600   -0.3620    1.3890 c3        1 NFQ     -0.219000
      7 CF          0.8890    0.8410   -2.0270 c2        1 NFQ      0.066000
      8 NF          1.4820    1.8870   -2.5730 n1        1 NFQ     -0.439000
      9 CG         -0.1410   -1.7380    1.9260 c2        1 NFQ      0.320000
     10 OD1        -1.1750   -1.8610    2.6340 o         1 NFQ     -0.614000
     11 OD2         0.5590   -2.7530    1.6480 o         1 NFQ     -0.614000
     12 HN          0.6510    1.6190   -0.1420 hn        1 NFQ      0.203000
     13 HA          0.0680   -1.0400   -0.5500 h4        1 NFQ      0.104000
     14 HB          1.2380   -0.2610    1.4430 hc        1 NFQ      0.075500
     15 HBA        -0.1710    0.3380    1.9260 hc        1 NFQ      0.075500
     16 HF          0.7420    0.0290   -2.5560 h5        1 NFQ      0.218000
     17 HNF         1.6230    2.6600   -2.0690 DU        1 NFQ      0.076000
@<TRIPOS>BOND
     1    1    3 1   
     2    1    4 1   
     3    2    5 1   
     4    2    7 1   
     5    2   12 1   
     6    5    6 1   
     7    5   13 1   
     8    6    9 1   
     9    6   14 1   
    10    6   15 1   
    11    7    8 1   
    12    7   16 1   
    13    9   10 1   
    14    9   11 1   
@<TRIPOS>SUBSTRUCTURE
     1 NFQ         1 TEMP              0 ****  ****    0 ROOT
