@<TRIPOS>MOLECULE
NFQ
   17    16     1     0     0
SMALL
bcc


@<TRIPOS>ATOM
      1 C          -0.0010   -0.1470   -0.0240 c         1 NFQ      0.910600
      2 N           2.0210    1.1730   -0.6870 nh        1 NFQ     -0.834200
      3 O1         -0.4880   -0.8100   -0.9920 o         1 NFQ     -0.864300
      4 O2         -0.7140    0.3580    0.8870 o         1 NFQ     -0.864300
      5 CA          1.5540   -0.0070    0.0240 c3        1 NFQ      0.101500
      6 CB          2.0410   -0.0320    1.4760 c3        1 NFQ     -0.173400
      7 CF          2.0630    1.1740   -2.0770 c2        1 NFQ      0.622100
      8 NF          1.4120    0.5080   -2.9730 n2        1 NFQ     -0.940100
      9 CG          3.5580    0.0130    1.6450 c         1 NFQ      0.895600
     10 OD1         4.1300   -0.9190    2.2910 o         1 NFQ     -0.883800
     11 OD2         4.2230    0.9950    1.1780 o         1 NFQ     -0.883800
     12 HN          2.8250    1.5870   -0.2450 hn        1 NFQ      0.434800
     13 HA          1.9650   -0.9320   -0.4880 h1        1 NFQ      0.013700
     14 HB          1.6460   -0.9710    1.9410 hc        1 NFQ      0.041200
     15 HBA         1.5940    0.8340    2.0270 hc        1 NFQ      0.041200
     16 HF          2.7440    1.9680   -2.4730 h5        1 NFQ     -0.039200
     17 HNF         0.7810   -0.1940   -2.6340 hn        1 NFQ      0.423400
@<TRIPOS>BOND
     1    1    3 1   
     2    1    4 1   
     3    1    5 1   
     4    2    5 1   
     5    2    7 1   
     6    2   12 1   
     7    5    6 1   
     8    5   13 1   
     9    6    9 1   
    10    6   14 1   
    11    6   15 1   
    12    7    8 2   
    13    7   16 1   
    14    8   17 1   
    15    9   10 1   
    16    9   11 1   
@<TRIPOS>SUBSTRUCTURE
     1 NFQ         1 TEMP              0 ****  ****    0 ROOT
