@<TRIPOS>MOLECULE
NFT
   66    67     1     0     0
SMALL
bcc


@<TRIPOS>ATOM
      1 C46         0.8020    0.2610    0.9110 cp        1 NFT      0.031000
      2 C08         0.4320   -0.4440   -1.4580 ca        1 NFT     -0.095000
      3 C09        -0.0800   -0.1730   -0.1770 cp        1 NFT      0.022000
      4 C10        -1.4660   -0.2570    0.0310 ca        1 NFT     -0.095000
      5 C11        -2.3280   -0.5250   -1.0300 ca        1 NFT     -0.080500
      6 C07        -0.4270   -0.7110   -2.5200 ca        1 NFT     -0.080500
      7 C06        -1.8190   -0.7150   -2.3250 ca        1 NFT     -0.223300
      8 C15        -2.7700   -0.7480   -3.4690 c3        1 NFT      0.145800
      9 C16        -2.4800    0.4640   -4.4900 c3        1 NFT      0.640900
     10 F35        -2.4480    1.6640   -3.8630 f         1 NFT     -0.185967
     11 F36        -1.3140    0.3040   -5.1840 f         1 NFT     -0.185967
     12 F37        -3.4590    0.5320   -5.4460 f         1 NFT     -0.185967
     13 N26        -4.9600   -5.1270   -5.0420 n4        1 NFT     -0.672800
     14 C41        -5.0300   -5.9510   -6.2920 c3        1 NFT      0.084800
     15 N24        -2.7030   -2.0660   -4.2430 n4        1 NFT     -0.781000
     16 C17        -3.9900   -2.8520   -4.2450 c3        1 NFT      0.081500
     17 C18        -5.1600   -2.1120   -4.9200 c3        1 NFT     -0.144400
     18 C19        -6.5130   -2.1660   -4.2030 c3        1 NFT     -0.104700
     19 C20        -6.5530   -2.8930   -2.8800 c3        1 NFT     -0.110600
     20 C21        -7.5880   -2.6890   -5.1380 c3        1 NFT     -0.110600
     21 C22        -3.7700   -4.2010   -4.9620 c         1 NFT      0.513100
     22 O23        -2.7310   -4.5860   -5.4750 o         1 NFT     -0.388100
     23 C47         1.8030    1.2140    0.6620 ca        1 NFT     -0.129000
     24 C48         2.5630    1.7230    1.7100 ca        1 NFT      0.018500
     25 C50         2.3620    1.2930    3.0360 ca        1 NFT     -0.494500
     26 C51         1.3910    0.2960    3.2610 ca        1 NFT      0.018500
     27 C52         0.6210   -0.2110    2.2210 ca        1 NFT     -0.129000
     28 S60         3.0870    2.0540    4.2850 sy        1 NFT      1.467200
     29 N63         4.6590    1.0110    4.4350 n4        1 NFT     -0.798500
     30 O61         3.6300    3.2680    3.9360 o         1 NFT     -0.539300
     31 O62         2.4940    1.7840    5.4970 o         1 NFT     -0.539300
     32 C44        -4.2450   -7.2810   -6.2120 c3        1 NFT      0.079800
     33 N45        -4.4550   -8.1520   -7.3980 n4        1 NFT     -0.835600
     34 H08         1.5220   -0.4190   -1.6330 ha        1 NFT      0.182000
     35 H10        -1.8850   -0.0720    1.0370 ha        1 NFT      0.182000
     36 H11        -3.4150   -0.5360   -0.8440 ha        1 NFT      0.153000
     37 H07         0.0010   -0.8630   -3.5250 ha        1 NFT      0.153000
     38 H15        -3.8320   -0.6030   -3.1050 hx        1 NFT      0.142700
     39 HN26       -5.8300   -4.5490   -4.9890 hn        1 NFT      0.501800
     40 H411       -4.6350   -5.3230   -7.1460 hx        1 NFT      0.144700
     41 H412       -6.1300   -6.1610   -6.4780 hx        1 NFT      0.144700
     42 HN24       -1.9520   -2.6370   -3.8210 hn        1 NFT      0.476300
     43 H17        -4.2280   -3.0670   -3.1520 hx        1 NFT      0.168700
     44 H181       -5.2700   -2.4810   -5.9780 hc        1 NFT      0.105200
     45 H182       -4.9040   -1.0160   -5.0360 hc        1 NFT      0.105200
     46 H19        -6.7920   -1.0870   -3.9780 hc        1 NFT      0.126700
     47 H201       -6.2700   -3.9700   -2.9720 hc        1 NFT      0.057200
     48 H202       -7.6000   -2.8560   -2.4730 hc        1 NFT      0.057200
     49 H203       -5.8950   -2.4050   -2.1190 hc        1 NFT      0.057200
     50 H211       -8.5980   -2.5260   -4.6770 hc        1 NFT      0.057200
     51 H212       -7.4810   -3.7840   -5.3330 hc        1 NFT      0.057200
     52 H213       -7.5730   -2.1430   -6.1140 hc        1 NFT      0.057200
     53 H47         1.9700    1.5910   -0.3610 ha        1 NFT      0.171000
     54 H48         3.3130    2.5110    1.4970 ha        1 NFT      0.186000
     55 H51         1.2090   -0.0650    4.2940 ha        1 NFT      0.186000
     56 H52        -0.1420   -0.9780    2.4360 ha        1 NFT      0.171000
     57 H631        5.4880    1.6000    4.3130 hn        1 NFT      0.468133
     58 H632        4.7230    0.5970    5.3690 hn        1 NFT      0.468133
     59 H441       -3.1340   -7.0620   -6.1360 hx        1 NFT      0.143700
     60 H442       -4.5590   -7.8750   -5.2990 hx        1 NFT      0.143700
     61 H451       -4.1480   -7.6890   -8.2660 hn        1 NFT      0.496800
     62 H452       -3.8970   -9.0200   -7.2820 hn        1 NFT      0.496800
     63 H262       -4.9460   -5.7450   -4.2130 hn        1 NFT      0.501800
     64 H242       -2.4330   -1.8600   -5.2190 hn        1 NFT      0.476300
     65 H633        4.7200    0.2550    3.7600 hn        1 NFT      0.468133
     66 H453       -5.4450   -8.4210   -7.5000 hn        1 NFT      0.496800
@<TRIPOS>BOND
     1    1    3 1   
     2    1   23 ar  
     3    1   27 ar  
     4    2    3 ar  
     5    2    6 ar  
     6    2   34 1   
     7    3    4 ar  
     8    4    5 ar  
     9    4   35 1   
    10    5    7 ar  
    11    5   36 1   
    12    6    7 ar  
    13    6   37 1   
    14    7    8 1   
    15    8    9 1   
    16    8   15 1   
    17    8   38 1   
    18    9   10 1   
    19    9   11 1   
    20    9   12 1   
    21   13   14 1   
    22   13   21 1   
    23   13   39 1   
    24   13   63 1   
    25   14   32 1   
    26   14   40 1   
    27   14   41 1   
    28   15   16 1   
    29   15   42 1   
    30   15   64 1   
    31   16   17 1   
    32   16   21 1   
    33   16   43 1   
    34   17   18 1   
    35   17   44 1   
    36   17   45 1   
    37   18   19 1   
    38   18   20 1   
    39   18   46 1   
    40   19   47 1   
    41   19   48 1   
    42   19   49 1   
    43   20   50 1   
    44   20   51 1   
    45   20   52 1   
    46   21   22 2   
    47   23   24 ar  
    48   23   53 1   
    49   24   25 ar  
    50   24   54 1   
    51   25   26 ar  
    52   25   28 1   
    53   26   27 ar  
    54   26   55 1   
    55   27   56 1   
    56   28   29 1   
    57   28   30 2   
    58   28   31 2   
    59   29   57 1   
    60   29   58 1   
    61   29   65 1   
    62   32   33 1   
    63   32   59 1   
    64   32   60 1   
    65   33   61 1   
    66   33   62 1   
    67   33   66 1   
@<TRIPOS>SUBSTRUCTURE
     1 NFT         1 TEMP              0 ****  ****    0 ROOT
