@<TRIPOS>MOLECULE
NFT
   66    67     1     0     0
SMALL
bcc


@<TRIPOS>ATOM
      1 C46         0.8040    0.2360    0.9260 cp        1 NFT      0.031000
      2 C08         0.4390   -0.4660   -1.4450 ca        1 NFT     -0.095000
      3 C09        -0.0770   -0.1920   -0.1660 cp        1 NFT      0.022000
      4 C10        -1.4650   -0.2640    0.0360 ca        1 NFT     -0.095000
      5 C11        -2.3240   -0.5240   -1.0290 ca        1 NFT     -0.080500
      6 C07        -0.4170   -0.7270   -2.5110 ca        1 NFT     -0.080500
      7 C06        -1.8100   -0.7190   -2.3220 ca        1 NFT     -0.223300
      8 C15        -2.7560   -0.7440   -3.4710 c3        1 NFT      0.145800
      9 C16        -2.4520    0.4660   -4.4890 c3        1 NFT      0.640900
     10 F35        -2.4140    1.6650   -3.8620 f         1 NFT     -0.185967
     11 F36        -1.2840    0.2970   -5.1780 f         1 NFT     -0.185967
     12 F37        -3.4260    0.5420   -5.4500 f         1 NFT     -0.185967
     13 N26        -4.9730   -5.1060   -5.0550 ny        1 NFT     -0.672800
     14 C41        -5.0430   -5.9290   -6.3050 c3        1 NFT      0.084800
     15 N24        -2.6960   -2.0620   -4.2450 ny        1 NFT     -0.781000
     16 C17        -3.9890   -2.8380   -4.2530 c3        1 NFT      0.081500
     17 C18        -5.1500   -2.0890   -4.9340 c3        1 NFT     -0.144400
     18 C19        -6.5070   -2.1330   -4.2230 c3        1 NFT     -0.104700
     19 C20        -6.5590   -2.8600   -2.9000 c3        1 NFT     -0.110600
     20 C21        -7.5810   -2.6470   -5.1630 c3        1 NFT     -0.110600
     21 C22        -3.7760   -4.1890   -4.9690 c         1 NFT      0.513100
     22 O23        -2.7380   -4.5820   -5.4770 o         1 NFT     -0.388100
     23 C47         1.8140    1.1790    0.6810 ca        1 NFT     -0.129000
     24 C48         2.5740    1.6820    1.7320 ca        1 NFT      0.018500
     25 C50         2.3630    1.2540    3.0580 ca        1 NFT     -0.494500
     26 C51         1.3830    0.2670    3.2790 ca        1 NFT      0.018500
     27 C52         0.6130   -0.2340    2.2350 ca        1 NFT     -0.129000
     28 S60         3.0890    2.0100    4.3100 sy        1 NFT      1.467200
     29 N63         4.6510    0.9530    4.4680 nz        1 NFT     -0.798500
     30 O61         3.6450    3.2190    3.9630 o         1 NFT     -0.539300
     31 O62         2.4870    1.7460    5.5190 o         1 NFT     -0.539300
     32 C44        -4.2680   -7.2650   -6.2220 c3        1 NFT      0.079800
     33 N45        -4.4790   -8.1340   -7.4100 nz        1 NFT     -0.835600
     34 H08         1.5300   -0.4510   -1.6150 ha        1 NFT      0.182000
     35 H10        -1.8860   -0.0740    1.0400 ha        1 NFT      0.182000
     36 H11        -3.4120   -0.5260   -0.8490 ha        1 NFT      0.153000
     37 H07         0.0140   -0.8820   -3.5140 ha        1 NFT      0.153000
     38 H15        -3.8190   -0.5900   -3.1120 hx        1 NFT      0.142700
     39 HN26       -5.8390   -4.5200   -5.0060 hn        1 NFT      0.501800
     40 H411       -6.1440   -6.1300   -6.4970 hx        1 NFT      0.144700
     41 H412       -4.6400   -5.3030   -7.1580 hx        1 NFT      0.144700
     42 HN24       -2.4190   -1.8580   -5.2190 hn        1 NFT      0.476300
     43 H17        -4.2340   -3.0520   -3.1620 hx        1 NFT      0.168700
     44 H181       -4.8850   -0.9950   -5.0480 hc        1 NFT      0.105200
     45 H182       -5.2580   -2.4570   -5.9920 hc        1 NFT      0.105200
     46 H19        -6.7790   -1.0520   -3.9990 hc        1 NFT      0.126700
     47 H201       -6.2840   -3.9390   -2.9910 hc        1 NFT      0.057200
     48 H202       -7.6080   -2.8150   -2.4980 hc        1 NFT      0.057200
     49 H203       -5.9010   -2.3760   -2.1360 hc        1 NFT      0.057200
     50 H211       -7.5580   -2.1020   -6.1390 hc        1 NFT      0.057200
     51 H212       -8.5920   -2.4770   -4.7080 hc        1 NFT      0.057200
     52 H213       -7.4820   -3.7430   -5.3580 hc        1 NFT      0.057200
     53 H47         1.9900    1.5550   -0.3420 ha        1 NFT      0.171000
     54 H48         3.3320    2.4630    1.5230 ha        1 NFT      0.186000
     55 H51         1.1920   -0.0920    4.3110 ha        1 NFT      0.186000
     56 H52        -0.1580   -0.9950    2.4470 ha        1 NFT      0.171000
     57 H631        4.7080    0.1950    3.7940 hn        1 NFT      0.468133
     58 H632        5.4850    1.5340    4.3500 hn        1 NFT      0.468133
     59 H441       -3.1560   -7.0540   -6.1410 hx        1 NFT      0.143700
     60 H442       -4.5910   -7.8560   -5.3100 hx        1 NFT      0.143700
     61 H451       -4.1650   -7.6730   -8.2760 hn        1 NFT      0.496800
     62 H452       -3.9290   -9.0050   -7.2920 hn        1 NFT      0.496800
     63 H262       -4.9680   -5.7230   -4.2260 hn        1 NFT      0.501800
     64 H242       -1.9510   -2.6390   -3.8190 hn        1 NFT      0.476300
     65 H633        4.7060    0.5380    5.4020 hn        1 NFT      0.468133
     66 H453       -5.4710   -8.3960   -7.5160 hn        1 NFT      0.496800
@<TRIPOS>BOND
     1    1    3 1   
     2    1   23 ar  
     3    1   27 ar  
     4    2    3 ar  
     5    2    6 ar  
     6    2   34 1   
     7    3    4 ar  
     8    4    5 ar  
     9    4   35 1   
    10    5    7 ar  
    11    5   36 1   
    12    6    7 ar  
    13    6   37 1   
    14    7    8 1   
    15    8    9 1   
    16    8   15 1   
    17    8   38 1   
    18    9   10 1   
    19    9   11 1   
    20    9   12 1   
    21   13   14 1   
    22   13   21 1   
    23   13   39 1   
    24   13   63 1   
    25   14   32 1   
    26   14   40 1   
    27   14   41 1   
    28   15   16 1   
    29   15   42 1   
    30   15   64 1   
    31   16   17 1   
    32   16   21 1   
    33   16   43 1   
    34   17   18 1   
    35   17   44 1   
    36   17   45 1   
    37   18   19 1   
    38   18   20 1   
    39   18   46 1   
    40   19   47 1   
    41   19   48 1   
    42   19   49 1   
    43   20   50 1   
    44   20   51 1   
    45   20   52 1   
    46   21   22 2   
    47   23   24 ar  
    48   23   53 1   
    49   24   25 ar  
    50   24   54 1   
    51   25   26 ar  
    52   25   28 1   
    53   26   27 ar  
    54   26   55 1   
    55   27   56 1   
    56   28   29 1   
    57   28   30 2   
    58   28   31 2   
    59   29   57 1   
    60   29   58 1   
    61   29   65 1   
    62   32   33 1   
    63   32   59 1   
    64   32   60 1   
    65   33   61 1   
    66   33   62 1   
    67   33   66 1   
@<TRIPOS>SUBSTRUCTURE
     1 NFT         1 TEMP              0 ****  ****    0 ROOT
