@<TRIPOS>MOLECULE
NFT
   62    63     1     0     0
SMALL
bcc


@<TRIPOS>ATOM
      1 C46         5.1580   -4.7290    1.6150 cp        1 NFT      0.021000
      2 C08         3.4800   -3.4020    2.8800 ca        1 NFT     -0.116000
      3 C09         3.8290   -4.1330    1.7360 cp        1 NFT     -0.037000
      4 C10         2.8860   -4.2860    0.7090 ca        1 NFT     -0.116000
      5 C11         1.6190   -3.7190    0.8250 ca        1 NFT     -0.103500
      6 C07         2.2150   -2.8310    2.9940 ca        1 NFT     -0.103500
      7 C06         1.2760   -2.9890    1.9690 ca        1 NFT     -0.102300
      8 C15        -0.0950   -2.3760    2.0700 c3        1 NFT      0.201800
      9 C16        -0.9500   -3.1440    3.1650 c3        1 NFT      0.618900
     10 F35        -1.0850   -4.4810    2.9070 f         1 NFT     -0.232633
     11 F36        -0.4760   -3.0640    4.4450 f         1 NFT     -0.232633
     12 F37        -2.2390   -2.6760    3.2430 f         1 NFT     -0.232633
     13 N26         2.0420    1.1210    2.4840 n         1 NFT     -0.544900
     14 C41         2.6490    2.2700    3.0980 c3        1 NFT      0.078000
     15 N24        -0.0430   -0.9540    2.3880 n3        1 NFT     -0.822200
     16 C17         0.2700   -0.1130    1.2360 c3        1 NFT      0.101500
     17 C18        -0.9130    0.1660    0.2950 c3        1 NFT     -0.108400
     18 C19        -0.5760    0.0280   -1.1820 c3        1 NFT     -0.063700
     19 C20        -0.3500   -1.4150   -1.5780 c3        1 NFT     -0.098600
     20 C21         0.6010    0.8920   -1.5820 c3        1 NFT     -0.098600
     21 C22         0.8820    1.2200    1.7420 c         1 NFT      0.659100
     22 O23         0.3960    2.3220    1.4240 o         1 NFT     -0.607100
     23 C47         5.7630   -5.3470    2.7190 ca        1 NFT     -0.146500
     24 C48         7.0280   -5.9120    2.5970 ca        1 NFT     -0.017500
     25 C50         7.7230   -5.8720    1.3830 ca        1 NFT     -0.380500
     26 C51         7.1090   -5.2610    0.2840 ca        1 NFT     -0.017500
     27 C52         5.8430   -4.6950    0.3910 ca        1 NFT     -0.146500
     28 S60         9.2520   -6.5810    1.2360 sy        1 NFT      1.527200
     29 N63        10.2470   -5.3830    1.6100 n3        1 NFT     -1.026700
     30 O61         9.3650   -7.5960    2.2100 o         1 NFT     -0.657300
     31 O62         9.4450   -6.9390   -0.1150 o         1 NFT     -0.657300
     32 C44         2.1990    2.5080    4.5600 c3        1 NFT      0.129800
     33 N45         2.9050    3.6090    5.1680 n3        1 NFT     -0.913800
     34 H08         4.2130   -3.2730    3.6920 ha        1 NFT      0.143500
     35 H10         3.1450   -4.8670   -0.1900 ha        1 NFT      0.143500
     36 H11         0.8880   -3.8520    0.0130 ha        1 NFT      0.146500
     37 H07         1.9440   -2.2630    3.8990 ha        1 NFT      0.146500
     38 H15        -0.6500   -2.5650    1.0970 h1        1 NFT      0.069700
     39 HN26        2.2760    0.2350    2.8700 hn        1 NFT      0.316500
     40 H411        2.4000    3.1810    2.4820 h1        1 NFT      0.069200
     41 H412        3.7660    2.1170    3.0770 h1        1 NFT      0.069200
     42 HN24       -0.9040   -0.6600    2.8150 hn        1 NFT      0.384800
     43 H17         1.0860   -0.6330    0.6440 h1        1 NFT      0.088700
     44 H181       -1.2920    1.2090    0.4780 hc        1 NFT      0.063700
     45 H182       -1.7600   -0.5360    0.5230 hc        1 NFT      0.063700
     46 H19        -1.4810    0.3990   -1.7480 hc        1 NFT      0.053700
     47 H201       -0.1630   -1.4850   -2.6770 hc        1 NFT      0.037367
     48 H202       -1.2470   -2.0340   -1.3300 hc        1 NFT      0.037367
     49 H203        0.5330   -1.8470   -1.0460 hc        1 NFT      0.037367
     50 H211        1.5640    0.4390   -1.2430 hc        1 NFT      0.037367
     51 H212        0.6390    0.9990   -2.6920 hc        1 NFT      0.037367
     52 H213        0.5080    1.9070   -1.1210 hc        1 NFT      0.037367
     53 H47         5.2280   -5.3960    3.6800 ha        1 NFT      0.144500
     54 H48         7.4860   -6.4200    3.4650 ha        1 NFT      0.155000
     55 H51         7.6350   -5.2470   -0.6880 ha        1 NFT      0.155000
     56 H52         5.3790   -4.2170   -0.4840 ha        1 NFT      0.144500
     57 H631       10.5730   -5.2080    2.5260 hn        1 NFT      0.447800
     58 H632       10.6230   -4.7560    0.9440 hn        1 NFT      0.447800
     59 H441        2.4210    1.5870    5.1720 h1        1 NFT      0.030700
     60 H442        1.0770    2.6500    4.5650 h1        1 NFT      0.030700
     61 H451        2.5510    3.7790    6.0880 hn        1 NFT      0.352300
     62 H452        2.8120    4.4410    4.6210 hn        1 NFT      0.352300
@<TRIPOS>BOND
     1    1    3 1   
     2    1   23 ar  
     3    1   27 ar  
     4    2    3 ar  
     5    2    6 ar  
     6    2   34 1   
     7    3    4 ar  
     8    4    5 ar  
     9    4   35 1   
    10    5    7 ar  
    11    5   36 1   
    12    6    7 ar  
    13    6   37 1   
    14    7    8 1   
    15    8    9 1   
    16    8   15 1   
    17    8   38 1   
    18    9   10 1   
    19    9   11 1   
    20    9   12 1   
    21   13   14 1   
    22   13   21 1   
    23   13   39 1   
    24   14   32 1   
    25   14   40 1   
    26   14   41 1   
    27   15   16 1   
    28   15   42 1   
    29   16   17 1   
    30   16   21 1   
    31   16   43 1   
    32   17   18 1   
    33   17   44 1   
    34   17   45 1   
    35   18   19 1   
    36   18   20 1   
    37   18   46 1   
    38   19   47 1   
    39   19   48 1   
    40   19   49 1   
    41   20   50 1   
    42   20   51 1   
    43   20   52 1   
    44   21   22 2   
    45   23   24 ar  
    46   23   53 1   
    47   24   25 ar  
    48   24   54 1   
    49   25   26 ar  
    50   25   28 1   
    51   26   27 ar  
    52   26   55 1   
    53   27   56 1   
    54   28   29 1   
    55   28   30 2   
    56   28   31 2   
    57   29   57 1   
    58   29   58 1   
    59   32   33 1   
    60   32   59 1   
    61   32   60 1   
    62   33   61 1   
    63   33   62 1   
@<TRIPOS>SUBSTRUCTURE
     1 NFT         1 TEMP              0 ****  ****    0 ROOT
