@<TRIPOS>MOLECULE
NFT
   66    67     1     0     0
SMALL
bcc


@<TRIPOS>ATOM
      1 C46         0.8200    0.2370    0.9100 cp        1 NFT      0.031000
      2 C08         0.4490   -0.4740   -1.4580 ca        1 NFT     -0.095000
      3 C09        -0.0640   -0.1910   -0.1800 cp        1 NFT      0.022000
      4 C10        -1.4520   -0.2540    0.0240 ca        1 NFT     -0.095000
      5 C11        -2.3140   -0.5160   -1.0390 ca        1 NFT     -0.080500
      6 C07        -0.4100   -0.7360   -2.5210 ca        1 NFT     -0.080500
      7 C06        -1.8020   -0.7200   -2.3310 ca        1 NFT     -0.223300
      8 C15        -2.7490   -0.7460   -3.4790 c3        1 NFT      0.145800
      9 C16        -2.4400    0.4560   -4.5050 c3        1 NFT      0.640900
     10 F35        -2.3930    1.6590   -3.8850 f         1 NFT     -0.185967
     11 F36        -1.2740    0.2760   -5.1940 f         1 NFT     -0.185967
     12 F37        -3.4140    0.5330   -5.4650 f         1 NFT     -0.185967
     13 N26        -4.9950   -5.1040   -5.0330 n4        1 NFT     -0.672800
     14 C41        -5.0710   -5.9360   -6.2770 c3        1 NFT      0.084800
     15 N24        -2.6980   -2.0690   -4.2450 n4        1 NFT     -0.781000
     16 C17        -3.9960   -2.8370   -4.2470 c3        1 NFT      0.081500
     17 C18        -5.1530   -2.0860   -4.9310 c3        1 NFT     -0.144400
     18 C19        -6.5090   -2.1170   -4.2180 c3        1 NFT     -0.104700
     19 C20        -6.5640   -2.8340   -2.8900 c3        1 NFT     -0.110600
     20 C21        -7.5880   -2.6310   -5.1530 c3        1 NFT     -0.110600
     21 C22        -3.7920   -4.1940   -4.9540 c         1 NFT      0.513100
     22 O23        -2.7560   -4.5970   -5.4600 o         1 NFT     -0.388100
     23 C47         1.8350    1.1750    0.6590 ca        1 NFT     -0.129000
     24 C48         2.5980    1.6790    1.7070 ca        1 NFT      0.018500
     25 C50         2.3870    1.2590    3.0350 ca        1 NFT     -0.494500
     26 C51         1.4010    0.2770    3.2610 ca        1 NFT      0.018500
     27 C52         0.6270   -0.2250    2.2210 ca        1 NFT     -0.129000
     28 S60         3.1180    2.0160    4.2820 sy        1 NFT      1.467200
     29 N63         4.6740    0.9520    4.4440 n4        1 NFT     -0.798500
     30 O61         3.6800    3.2210    3.9280 o         1 NFT     -0.539300
     31 O62         2.5160    1.7620    5.4930 o         1 NFT     -0.539300
     32 C44        -4.3030   -7.2760   -6.1840 c3        1 NFT      0.079800
     33 N45        -4.5210   -8.1530   -7.3650 n4        1 NFT     -0.835600
     34 H08         1.5400   -0.4660   -1.6290 ha        1 NFT      0.182000
     35 H10        -1.8720   -0.0570    1.0270 ha        1 NFT      0.182000
     36 H11        -3.4010   -0.5100   -0.8570 ha        1 NFT      0.153000
     37 H07         0.0200   -0.9000   -3.5240 ha        1 NFT      0.153000
     38 H15        -3.8110   -0.5840   -3.1190 hx        1 NFT      0.142700
     39 HN26       -5.8560   -4.5130   -4.9870 hn        1 NFT      0.501800
     40 H411       -6.1730   -6.1320   -6.4660 hx        1 NFT      0.144700
     41 H412       -4.6640   -5.3190   -7.1340 hx        1 NFT      0.144700
     42 HN24       -1.9560   -2.6480   -3.8170 hn        1 NFT      0.476300
     43 H17        -4.2400   -3.0430   -3.1540 hx        1 NFT      0.168700
     44 H181       -5.2640   -2.4600   -5.9860 hc        1 NFT      0.105200
     45 H182       -4.8820   -0.9950   -5.0530 hc        1 NFT      0.105200
     46 H19        -6.7740   -1.0330   -4.0020 hc        1 NFT      0.126700
     47 H201       -5.9020   -2.3500   -2.1310 hc        1 NFT      0.057200
     48 H202       -6.2960   -3.9160   -2.9740 hc        1 NFT      0.057200
     49 H203       -7.6120   -2.7810   -2.4870 hc        1 NFT      0.057200
     50 H211       -7.4950   -3.7290   -5.3410 hc        1 NFT      0.057200
     51 H212       -7.5620   -2.0920   -6.1330 hc        1 NFT      0.057200
     52 H213       -8.5970   -2.4510   -4.6980 hc        1 NFT      0.057200
     53 H47         2.0110    1.5440   -0.3660 ha        1 NFT      0.171000
     54 H48         3.3610    2.4550    1.4920 ha        1 NFT      0.186000
     55 H51         1.2100   -0.0760    4.2950 ha        1 NFT      0.186000
     56 H52        -0.1460   -0.9800    2.4370 ha        1 NFT      0.171000
     57 H631        5.5120    1.5280    4.3220 hn        1 NFT      0.468133
     58 H632        4.7280    0.5420    5.3800 hn        1 NFT      0.468133
     59 H441       -4.6290   -7.8590   -5.2680 hx        1 NFT      0.143700
     60 H442       -3.1900   -7.0710   -6.1060 hx        1 NFT      0.143700
     61 H451       -5.5140   -8.4090   -7.4690 hn        1 NFT      0.496800
     62 H452       -3.9760   -9.0260   -7.2420 hn        1 NFT      0.496800
     63 H262       -4.9920   -5.7160   -4.2000 hn        1 NFT      0.501800
     64 H242       -2.4220   -1.8730   -5.2210 hn        1 NFT      0.476300
     65 H633        4.7270    0.1910    3.7740 hn        1 NFT      0.468133
     66 H453       -4.2050   -7.6990   -8.2360 hn        1 NFT      0.496800
@<TRIPOS>BOND
     1    1    3 1   
     2    1   23 ar  
     3    1   27 ar  
     4    2    3 ar  
     5    2    6 ar  
     6    2   34 1   
     7    3    4 ar  
     8    4    5 ar  
     9    4   35 1   
    10    5    7 ar  
    11    5   36 1   
    12    6    7 ar  
    13    6   37 1   
    14    7    8 1   
    15    8    9 1   
    16    8   15 1   
    17    8   38 1   
    18    9   10 1   
    19    9   11 1   
    20    9   12 1   
    21   13   14 1   
    22   13   21 1   
    23   13   39 1   
    24   13   63 1   
    25   14   32 1   
    26   14   40 1   
    27   14   41 1   
    28   15   16 1   
    29   15   42 1   
    30   15   64 1   
    31   16   17 1   
    32   16   21 1   
    33   16   43 1   
    34   17   18 1   
    35   17   44 1   
    36   17   45 1   
    37   18   19 1   
    38   18   20 1   
    39   18   46 1   
    40   19   47 1   
    41   19   48 1   
    42   19   49 1   
    43   20   50 1   
    44   20   51 1   
    45   20   52 1   
    46   21   22 2   
    47   23   24 ar  
    48   23   53 1   
    49   24   25 ar  
    50   24   54 1   
    51   25   26 ar  
    52   25   28 1   
    53   26   27 ar  
    54   26   55 1   
    55   27   56 1   
    56   28   29 1   
    57   28   30 2   
    58   28   31 2   
    59   29   57 1   
    60   29   58 1   
    61   29   65 1   
    62   32   33 1   
    63   32   59 1   
    64   32   60 1   
    65   33   61 1   
    66   33   62 1   
    67   33   66 1   
@<TRIPOS>SUBSTRUCTURE
     1 NFT         1 TEMP              0 ****  ****    0 ROOT
