@<TRIPOS>MOLECULE
NFT
   62    56     1     0     0
SMALL
bcc


@<TRIPOS>ATOM
      1 C46         4.1510   -0.7350    2.2540 c1        1 NFT      0.026000
      2 C08         1.5460   -1.0560    2.1640 c1        1 NFT     -0.100500
      3 C09         2.8650   -0.9010    1.4510 c1        1 NFT     -0.042000
      4 C10         2.9130   -0.9060   -0.0590 c1        1 NFT     -0.116000
      5 C11         1.6240   -0.9870   -0.8590 c1        1 NFT     -0.111000
      6 C07         0.2490   -1.1350    1.3590 c1        1 NFT     -0.100500
      7 C06         0.2970   -1.1400   -0.1460 c1        1 NFT     -0.086000
      8 C15        -0.9610   -1.4400   -0.9460 c3        1 NFT      0.028000
      9 C16        -1.2490   -2.9390   -0.8970 c3        1 NFT      0.372000
     10 F35        -0.6000   -3.4870    0.1470 f         1 NFT     -0.165000
     11 F36        -2.5650   -3.1360   -0.7560 f         1 NFT     -0.165000
     12 F37        -0.8280   -3.5160   -2.0410 f         1 NFT     -0.165000
     13 N26        -3.4790    2.3900   -0.8350 n         1 NFT     -0.369000
     14 C41        -4.1420    3.2500    0.1190 c3        1 NFT     -0.032000
     15 N24        -2.0430   -0.7390   -0.3970 n3        1 NFT     -0.319000
     16 C17        -2.6840    0.0220   -1.4180 c3        1 NFT     -0.016000
     17 C18        -3.3970   -0.9230   -2.3890 c3        1 NFT     -0.198000
     18 C19        -4.0520   -0.0970   -3.5350 c3        1 NFT     -0.104000
     19 C20        -3.2120   -0.2090   -4.7790 c3        1 NFT     -0.210500
     20 C21        -5.4470   -0.6370   -3.8170 c3        1 NFT     -0.210500
     21 C22        -3.6930    0.9560   -0.7910 c2        1 NFT      0.307000
     22 O23        -4.6760    0.5060   -0.2390 o         1 NFT     -0.368000
     23 C47         4.7710   -2.0450    2.6660 c1        1 NFT     -0.147000
     24 C48         6.0990   -2.0590    3.4010 c1        1 NFT     -0.017000
     25 C50         6.8200   -0.7620    3.6820 c1        1 NFT     -0.828000
     26 C51         6.1960    0.5510    3.2700 c1        1 NFT     -0.018000
     27 C52         4.8740    0.5640    2.5310 c2        1 NFT     -0.149000
     28 S60         8.3190   -0.7700    4.6630 s4        1 NFT      2.082800
     29 N63         9.5930   -1.3040    3.7560 n2        1 NFT     -0.953000
     30 O61         8.1580   -1.5620    5.8560 o         1 NFT     -0.545400
     31 O62         8.5850    0.5320    5.2240 o         1 NFT     -0.545400
     32 C44        -4.4260    4.6140   -0.5330 c3        1 NFT     -0.103000
     33 N45        -4.8060    5.5680    0.4870 n3        1 NFT     -0.347000
     34 H08         1.5160   -1.0530    3.1380 ha        1 NFT      0.147000
     35 H10         3.7690   -0.8080   -0.5200 ha        1 NFT      0.139000
     36 H11         1.6560   -0.9900   -1.8260 ha        1 NFT      0.134000
     37 H07        -0.6100   -1.2350    1.8210 ha        1 NFT      0.147000
     38 H15        -0.8300   -1.1640   -1.8710 h1        1 NFT      0.124000
     39 HN26       -2.9670    2.7500   -1.4880 hn        1 NFT      0.226000
     40 H411       -3.5670    3.3760    0.8980 h1        1 NFT      0.110500
     41 H412       -4.9800    2.8420    0.3960 h1        1 NFT      0.110500
     42 HN24       -2.6400   -1.3330   -0.0380 hn        1 NFT      0.206000
     43 H17        -2.0180    0.5410   -1.9010 h1        1 NFT      0.103000
     44 H181       -2.7440   -1.5550   -2.7710 hc        1 NFT      0.105500
     45 H182       -4.0940   -1.4230   -1.9060 hc        1 NFT      0.105500
     46 H19        -4.1140    0.8410   -3.2680 hc        1 NFT      0.085000
     47 H201       -3.0780   -1.1590   -4.9990 hc        1 NFT      0.076000
     48 H202       -3.6700    0.2380   -5.5250 hc        1 NFT      0.076000
     49 H203       -2.3500    0.2130   -4.6270 hc        1 NFT      0.076000
     50 H211       -5.8310   -0.1670   -4.5900 hc        1 NFT      0.076000
     51 H212       -5.3920   -1.6000   -4.0130 hc        1 NFT      0.076000
     52 H213       -6.0130   -0.4970   -3.0370 hc        1 NFT      0.076000
     53 H47         4.3060   -2.8830    2.4840 ha        1 NFT      0.146000
     54 H48         6.5010   -2.9090    3.6670 ha        1 NFT      0.154000
     55 H51         6.6630    1.3920    3.4510 ha        1 NFT      0.154000
     56 H52         4.4700    1.4170    2.2630 ha        1 NFT      0.143000
     57 H631        9.9350   -2.1480    3.8960 hn        1 NFT      0.243000
     58 H632        9.9930   -0.7410    3.1500 hn        1 NFT      0.243000
     59 H441       -5.1560    4.5210   -1.1800 h1        1 NFT      0.068000
     60 H442       -3.6230    4.9290   -0.9910 h1        1 NFT      0.068000
     61 H451       -5.6800    5.8340    0.3510 hn        1 NFT      0.149000
     62 H452       -4.2520    6.3010    0.4420 hn        1 NFT      0.149000
@<TRIPOS>BOND
     1    1   23 1   
     2    1   27 1   
     3    2    6 1   
     4    2   34 1   
     5    3    4 1   
     6    4   35 1   
     7    5    7 1   
     8    5   36 1   
     9    6   37 1   
    10    7    8 1   
    11    8    9 1   
    12    8   15 1   
    13    8   38 1   
    14    9   10 1   
    15    9   11 1   
    16    9   12 1   
    17   13   14 1   
    18   13   21 1   
    19   13   39 1   
    20   14   32 1   
    21   14   40 1   
    22   14   41 1   
    23   15   16 1   
    24   15   42 1   
    25   16   17 1   
    26   16   21 1   
    27   16   43 1   
    28   17   18 1   
    29   17   44 1   
    30   17   45 1   
    31   18   19 1   
    32   18   20 1   
    33   18   46 1   
    34   19   47 1   
    35   19   48 1   
    36   19   49 1   
    37   20   50 1   
    38   20   51 1   
    39   20   52 1   
    40   21   22 1   
    41   23   53 1   
    42   24   25 1   
    43   24   54 1   
    44   25   28 1   
    45   26   27 1   
    46   26   55 1   
    47   27   56 1   
    48   28   30 1   
    49   28   31 1   
    50   29   57 1   
    51   29   58 1   
    52   32   33 1   
    53   32   59 1   
    54   32   60 1   
    55   33   61 1   
    56   33   62 1   
@<TRIPOS>SUBSTRUCTURE
     1 NFT         1 TEMP              0 ****  ****    0 ROOT
