@<TRIPOS>MOLECULE
NFW
   63    66     1     0     0
SMALL
bcc


@<TRIPOS>ATOM
      1 C1         -5.7740   -2.7600    2.3390 ca        1 NFW     -0.149000
      2 C2         -5.0060   -3.8950    2.0790 ca        1 NFW     -0.136000
      3 C3         -3.3270    4.4860    1.3410 cc        1 NFW     -0.270300
      4 C4         -5.6300   -1.6310    1.5390 ca        1 NFW     -0.096000
      5 C5         -4.0910   -3.8880    1.0320 ca        1 NFW     -0.138000
      6 C6          1.7210   -2.6660   -1.1810 ca        1 NFW     -0.148000
      7 C7          3.0260   -2.3070   -0.8650 ca        1 NFW     -0.163000
      8 C8         -2.6970    3.3250    0.7520 cc        1 NFW     -0.231300
      9 C9         -4.5710    4.6050    0.7530 cd        1 NFW      0.188600
     10 C10        -4.7080   -1.6190    0.4820 ca        1 NFW     -0.094600
     11 C11         0.9490   -0.3780   -0.8470 ca        1 NFW     -0.061600
     12 C12        -3.9220   -2.7490    0.2310 ca        1 NFW     -0.036300
     13 C13         0.6910   -1.7190   -1.1720 ca        1 NFW     -0.097300
     14 C14         3.3000   -0.9730   -0.5340 ca        1 NFW      0.060100
     15 C15         2.2680   -0.0130   -0.5320 ca        1 NFW      0.069100
     16 C16        -3.5990    2.8080   -0.1580 cd        1 NFW      0.240000
     17 C19        -4.6970   -0.3860   -0.3740 c         1 NFW      0.654700
     18 C21         8.2090    2.2950    1.1620 c         1 NFW      0.908600
     19 C22         3.9090    1.6570   -0.2960 c3        1 NFW      0.094400
     20 C23         4.8010    0.6200    0.3760 c3        1 NFW      0.104100
     21 C24        -2.9160   -2.7930   -0.8880 c3        1 NFW      0.213100
     22 C25        -0.6950   -2.1390   -1.5710 c3        1 NFW      0.220100
     23 C26        -3.5250    1.6490   -1.0870 c3        1 NFW      0.030700
     24 C27        -1.0080   -3.4770    0.4420 c3        1 NFW      0.157100
     25 C29         6.2830    0.9500    0.2530 c3        1 NFW     -0.062400
     26 N30        -3.5680    0.3770   -0.4120 n         1 NFW     -0.518900
     27 N31        -1.5610   -2.4900   -0.4500 n3        1 NFW     -0.721600
     28 O32        -0.7460    0.9580    0.2110 o         1 NFW     -0.838800
     29 O33         8.9740    2.2320    2.1680 o         1 NFW     -0.855800
     30 O34        -5.7390   -0.0900   -1.0130 o         1 NFW     -0.665100
     31 O35        -0.5920    1.0310   -2.0040 o         1 NFW     -0.838800
     32 O36         8.5850    2.7010    0.0240 o         1 NFW     -0.855800
     33 O37        -4.7700    3.5810   -0.1730 os        1 NFW     -0.375800
     34 O38         2.5260    1.3050   -0.1880 os        1 NFW     -0.298900
     35 O39         4.6200   -0.6660   -0.2570 os        1 NFW     -0.333900
     36 H1         -6.4930   -2.7570    3.1700 ha        1 NFW      0.117000
     37 H2         -5.1210   -4.7920    2.7040 ha        1 NFW      0.114000
     38 H4         -6.2450   -0.7360    1.7200 ha        1 NFW      0.142000
     39 H5         -3.4810   -4.7810    0.8280 ha        1 NFW      0.126000
     40 H3         -2.8860    5.1290    2.0950 ha        1 NFW      0.142000
     41 H8         -1.7030    2.9160    0.9570 ha        1 NFW      0.217000
     42 H9         -5.4000    5.2950    0.8430 h4        1 NFW      0.024100
     43 H6          1.4970   -3.7100   -1.4420 ha        1 NFW      0.105000
     44 H7          3.8410   -3.0400   -0.8720 ha        1 NFW      0.127000
     45 H241       -2.9790   -3.8180   -1.3680 h1        1 NFW      0.037200
     46 H242       -3.2100   -2.0390   -1.6740 h1        1 NFW      0.037200
     47 H251       -1.1810   -1.2700   -2.1110 h1        1 NFW      0.045200
     48 H252       -0.6130   -3.0040   -2.2980 h1        1 NFW      0.045200
     49 H261       -4.3630    1.7130   -1.8370 h1        1 NFW      0.111700
     50 H262       -2.5110    1.7110   -1.6110 h1        1 NFW      0.111700
     51 H30        -2.7210    0.1030    0.0570 hn        1 NFW      0.380500
     52 H281        6.6240    1.3870    2.3510 hc        1 NFW      0.023200
     53 H282        6.1160    2.8080    1.3510 hc        1 NFW      0.023200
     54 H23         4.5000    0.5050    1.4550 h1        1 NFW      0.054700
     55 H221        3.9800    2.6460    0.2270 h1        1 NFW      0.065700
     56 H222        4.1770    1.7650   -1.3790 h1        1 NFW      0.065700
     57 H291        6.8690   -0.0050    0.2990 hc        1 NFW      0.058700
     58 H292        6.4940    1.4210   -0.7420 hc        1 NFW      0.058700
     59 H271       -0.9920   -4.5150    0.0040 h1        1 NFW      0.026033
     60 H272        0.0420   -3.1850    0.7080 h1        1 NFW      0.026033
     61 H273       -1.6210   -3.5010    1.3820 h1        1 NFW      0.026033
     62 C28         6.7400    1.8780    1.3520 c3        1 NFW     -0.193400
     63 C20        -0.1920    0.6200   -0.8740 c         1 NFW      0.930200
@<TRIPOS>BOND
     1    1    2 ar  
     2    1    4 ar  
     3    1   36 1   
     4    2    5 ar  
     5    2   37 1   
     6    3    8 1   
     7    3    9 2   
     8    3   40 1   
     9    4   10 ar  
    10    4   38 1   
    11    5   12 ar  
    12    5   39 1   
    13    6    7 ar  
    14    6   13 ar  
    15    6   43 1   
    16    7   14 ar  
    17    7   44 1   
    18    8   16 2   
    19    8   41 1   
    20    9   33 1   
    21    9   42 1   
    22   10   12 ar  
    23   10   17 1   
    24   11   13 ar  
    25   11   15 ar  
    26   11   63 1   
    27   12   21 1   
    28   13   22 1   
    29   14   15 ar  
    30   14   35 1   
    31   15   34 1   
    32   16   23 1   
    33   16   33 1   
    34   17   26 1   
    35   17   30 2   
    36   18   29 1   
    37   18   32 1   
    38   18   62 1   
    39   19   20 1   
    40   19   34 1   
    41   19   55 1   
    42   19   56 1   
    43   20   25 1   
    44   20   35 1   
    45   20   54 1   
    46   21   27 1   
    47   21   45 1   
    48   21   46 1   
    49   22   27 1   
    50   22   47 1   
    51   22   48 1   
    52   23   26 1   
    53   23   49 1   
    54   23   50 1   
    55   24   27 1   
    56   24   59 1   
    57   24   60 1   
    58   24   61 1   
    59   25   57 1   
    60   25   58 1   
    61   25   62 1   
    62   26   51 1   
    63   28   63 1   
    64   31   63 1   
    65   52   62 1   
    66   53   62 1   
@<TRIPOS>SUBSTRUCTURE
     1 NFW         1 TEMP              0 ****  ****    0 ROOT
