@<TRIPOS>MOLECULE
NFW
   63    55     1     0     0
SMALL
bcc


@<TRIPOS>ATOM
      1 C1         -3.0520    0.6140   -4.3080 c1        1 NFW     -0.129250
      2 C2         -3.6440   -0.1100   -3.2770 c1        1 NFW     -0.129250
      3 C3          1.2780    5.1880   -7.6210 c1        1 NFW     -0.213000
      4 C4         -2.3660    1.8010   -4.0250 c1        1 NFW     -0.129250
      5 C5         -3.5540    0.3490   -1.9470 c1        1 NFW     -0.129250
      6 C6         -1.2630   -1.9960    1.8140 c1        1 NFW     -0.143000
      7 C7         -0.4490   -3.0850    2.2210 c1        1 NFW     -0.161000
      8 C8          0.8550    5.8210   -6.4880 c1        1 NFW     -0.213000
      9 C9          0.8460    3.8750   -7.5630 c1        1 NFW     -0.068000
     10 C10        -2.2780    2.2560   -2.7010 c1        1 NFW     -0.112000
     11 C11         0.0650   -0.4460    3.2430 c1        1 NFW     -0.059000
     12 C12        -2.8800    1.5170   -1.6610 c1        1 NFW     -0.014000
     13 C13        -1.0080   -0.6680    2.3240 c1        1 NFW     -0.124000
     14 C14         0.5980   -2.8790    3.1150 c1        1 NFW      0.013000
     15 C15         0.8650   -1.5100    3.6450 c1        1 NFW      0.025000
     16 C16         0.1550    4.9010   -5.7170 c1        1 NFW     -0.068000
     17 C19        -1.8060    3.6980   -2.7440 c2        1 NFW      0.333000
     18 C20         0.5500    0.7200    4.0950 c2        1 NFW      0.380000
     19 C21         4.2780   -7.1450    5.2010 c1        1 NFW      0.328000
     20 C22         2.9480   -2.3350    4.5750 c3        1 NFW     -0.056000
     21 C23         2.3500   -3.6970    4.5920 c3        1 NFW     -0.008000
     22 C24        -2.6410    1.6490   -0.1250 c3        1 NFW     -0.072000
     23 C25        -1.8540    0.5120    1.8330 c3        1 NFW     -0.030000
     24 C26        -0.2760    5.0380   -4.2280 c2        1 NFW      0.019000
     25 C27        -0.8290    0.0970   -0.2660 c3        1 NFW     -0.120000
     26 C28         3.0870   -6.1640    5.1310 c2        1 NFW     -0.222000
     27 C29         3.5760   -4.7740    4.5350 c3        1 NFW     -0.140000
     28 N30        -1.5380    4.3310   -4.0180 n         1 NFW     -0.331000
     29 N31        -2.0780    0.3860    0.4000 n3        1 NFW     -0.265000
     30 O32         0.0210    0.9470    5.2040 o         1 NFW     -0.577000
     31 O33         4.8020   -7.4220    6.3160 o         1 NFW     -0.590500
     32 O34        -1.7630    4.3870   -1.6680 o         1 NFW     -0.405000
     33 O35         1.5310    1.4290    3.7030 o         1 NFW     -0.577000
     34 O36         4.7820   -7.6010    4.1360 o         1 NFW     -0.590500
     35 O37         0.1540    3.7040   -6.3860 os        1 NFW     -0.080000
     36 O38         2.1130   -1.3180    4.4930 os        1 NFW     -0.184000
     37 O39         1.4830   -3.9920    3.5980 os        1 NFW     -0.216000
     38 H1         -3.1160    0.2920   -5.2290 ha        1 NFW      0.128250
     39 H2         -4.1140   -0.9220   -3.4700 ha        1 NFW      0.128250
     40 H4         -1.9480    2.3120   -4.7500 ha        1 NFW      0.128250
     41 H5         -3.9680   -0.1600   -1.2300 ha        1 NFW      0.128250
     42 H3          1.8140    5.6050   -8.3720 DU        1 NFW      0.157333
     43 H8          1.0800    6.7590   -6.2220 DU        1 NFW      0.157333
     44 H9          1.0070    3.1870   -8.2420 DU        1 NFW      0.157333
     45 H6         -2.0230   -2.1490    1.1620 ha        1 NFW      0.106000
     46 H7         -0.6200   -3.9570    1.8830 ha        1 NFW      0.127000
     47 H241       -3.5100    1.8400    0.3320 h1        1 NFW      0.129000
     48 H242       -1.9980    2.4030    0.0510 h1        1 NFW      0.129000
     49 H251       -1.3850    1.3480    2.0170 h1        1 NFW      0.104000
     50 H252       -2.7220    0.5110    2.3030 h1        1 NFW      0.104000
     51 H261        0.4090    4.6540   -3.6570 h4        1 NFW      0.142000
     52 H262       -0.3880    5.9610   -4.0120 h4        1 NFW      0.142000
     53 H30        -2.1950    4.3490   -4.6760 hn        1 NFW      0.277000
     54 H281        2.7230   -6.0230    6.0380 ha        1 NFW      0.062000
     55 H282        2.3820   -6.5440    4.5480 ha        1 NFW      0.062000
     56 H23         1.8850   -3.8140    5.4430 h1        1 NFW      0.093000
     57 H221        3.5690   -2.2840    3.8010 h1        1 NFW      0.104500
     58 H222        3.4960   -2.2230    5.4300 h1        1 NFW      0.104500
     59 H291        3.8640   -4.9000    3.5990 hc        1 NFW      0.098000
     60 H292        4.3450   -4.4280    5.0770 hc        1 NFW      0.098000
     61 H271       -0.6330   -0.8480   -0.1870 h1        1 NFW      0.063000
     62 H272       -0.1130    0.6130    0.1470 h1        1 NFW      0.063000
     63 H273       -0.9010    0.3380   -1.2160 h1        1 NFW      0.063000
@<TRIPOS>BOND
     1    1    4 1   
     2    1   38 1   
     3    2    5 1   
     4    2   39 1   
     5    3    8 1   
     6    3    9 1   
     7    4   40 1   
     8    5   41 1   
     9    6   13 1   
    10    6   45 1   
    11    7   14 1   
    12    7   46 1   
    13    8   16 1   
    14    9   35 1   
    15   10   12 1   
    16   10   17 1   
    17   11   15 1   
    18   11   18 1   
    19   12   22 1   
    20   13   23 1   
    21   14   37 1   
    22   15   36 1   
    23   16   35 1   
    24   17   28 1   
    25   17   32 1   
    26   18   30 1   
    27   18   33 1   
    28   19   31 1   
    29   19   34 1   
    30   20   21 1   
    31   20   36 1   
    32   20   57 1   
    33   20   58 1   
    34   21   27 1   
    35   21   37 1   
    36   21   56 1   
    37   22   29 1   
    38   22   47 1   
    39   22   48 1   
    40   23   29 1   
    41   23   49 1   
    42   23   50 1   
    43   24   28 1   
    44   24   51 1   
    45   24   52 1   
    46   25   29 1   
    47   25   61 1   
    48   25   62 1   
    49   25   63 1   
    50   26   27 1   
    51   26   54 1   
    52   26   55 1   
    53   27   59 1   
    54   27   60 1   
    55   28   53 1   
@<TRIPOS>SUBSTRUCTURE
     1 NFW         1 TEMP              0 ****  ****    0 ROOT
