@<TRIPOS>MOLECULE
NFX
   41    41     1     0     0
SMALL
bcc


@<TRIPOS>ATOM
      1 F           0.1000   -0.8270    0.8590 f         1 NFX     -0.136000
      2 O02         3.3060   -1.9990   -2.5750 o         1 NFX     -0.223000
      3 O03         7.1800   -1.2070   -3.6580 o         1 NFX     -0.538500
      4 O           5.2840   -0.4550   -4.5920 o         1 NFX     -0.538500
      5 N01         1.8890   -1.2390    3.0920 n3        1 NFX     -0.313000
      6 N           5.6200   -0.1550    0.1360 n3        1 NFX     -0.164000
      7 C01        -0.2100   -0.3260    4.1160 c3        1 NFX     -0.102000
      8 C02        -2.9570    4.0360    5.4630 c1        1 NFX      0.138000
      9 C03         0.5520   -1.5320    3.5140 c3        1 NFX     -0.070000
     10 C04        -2.4670    3.7790    4.2860 c2        1 NFX     -0.552000
     11 N05        -0.4690    0.7840    3.2400 n3        1 NFX     -0.346000
     12 C06         6.5540    0.1980    1.1320 c2        1 NFX     -0.049000
     13 C08         8.4420   -1.3570    0.4990 c3        1 NFX     -0.193000
     14 C09         7.7980   -0.2930    1.2880 c2        1 NFX     -0.178000
     15 C11         2.3100   -0.8940    1.8370 c2        1 NFX      0.220000
     16 C12         4.2850   -0.3950    0.3860 c2        1 NFX      0.163000
     17 C13         3.7320   -0.6880    1.6290 c2        1 NFX     -0.288000
     18 C14         3.3560   -0.3130   -0.8200 c3        1 NFX     -0.163000
     19 C15         1.4550   -0.7370    0.6990 c2        1 NFX     -0.136000
     20 C16         6.0940   -0.3040   -1.1950 c2        1 NFX     -0.053000
     21 C17         1.9500   -0.5260   -0.5710 c1        1 NFX     -0.152000
     22 C18         5.3410   -0.7530   -2.2210 c2        1 NFX     -0.217000
     23 C19         3.9420   -1.1390   -1.9790 c2        1 NFX      0.319000
     24 C20         5.9780   -0.8260   -3.6160 c2        1 NFX      0.384000
     25 H01         0.3590    0.0590    5.0090 h1        1 NFX      0.087500
     26 H02        -1.1990   -0.7230    4.4820 h1        1 NFX      0.087500
     27 H03         0.6190   -2.3240    4.3160 h1        1 NFX      0.106000
     28 H03A       -0.0420   -1.9620    2.6580 h1        1 NFX      0.106000
     29 H04         2.5790   -1.2630    3.8140 hn        1 NFX      0.231000
     30 H04A       -2.5810    4.4200    3.3990 ha        1 NFX      0.206500
     31 H06         6.1810    0.9970    1.8040 h4        1 NFX      0.136000
     32 H08         9.0680   -2.0010    1.1660 hc        1 NFX      0.093000
     33 H08A        7.6990   -2.0090   -0.0240 hc        1 NFX      0.093000
     34 H09         9.1110   -0.9080   -0.2800 hc        1 NFX      0.093000
     35 H09A        8.4220    0.1500    2.0820 ha        1 NFX      0.119000
     36 H16         7.1580   -0.0360   -1.3390 h4        1 NFX      0.183000
     37 H17         3.4010    0.7650   -1.2010 hc        1 NFX      0.187000
     38 H02A       -1.8760    2.8670    4.0690 ha        1 NFX      0.206500
     39 H05        -1.0030    0.4860    2.4440 hn        1 NFX      0.155000
     40 H05A        0.3900    1.1770    2.9040 hn        1 NFX      0.155000
     41 CL          4.7510   -0.9010    3.0010 cl        1 NFX     -0.056000
@<TRIPOS>BOND
     1    1   19 1   
     2    2   23 1   
     3    3   24 1   
     4    4   24 1   
     5    5    9 1   
     6    5   15 1   
     7    5   29 1   
     8    6   12 1   
     9    6   16 1   
    10    6   20 1   
    11    7    9 1   
    12    7   11 1   
    13    7   25 1   
    14    7   26 1   
    15    8   10 1   
    16    9   27 1   
    17    9   28 1   
    18   10   30 1   
    19   10   38 1   
    20   11   39 1   
    21   11   40 1   
    22   12   14 1   
    23   12   31 1   
    24   13   14 1   
    25   13   32 1   
    26   13   33 1   
    27   13   34 1   
    28   14   35 1   
    29   15   17 1   
    30   15   19 1   
    31   16   17 1   
    32   16   18 1   
    33   17   41 1   
    34   18   21 1   
    35   18   23 1   
    36   18   37 1   
    37   19   21 1   
    38   20   22 1   
    39   20   36 1   
    40   22   23 1   
    41   22   24 1   
@<TRIPOS>SUBSTRUCTURE
     1 NFX         1 TEMP              0 ****  ****    0 ROOT
