@<TRIPOS>MOLECULE
NFX
   41    43     1     0     0
SMALL
bcc


@<TRIPOS>ATOM
      1 F          -3.1150    1.1440    0.0100 f         1 NFX     -0.184500
      2 CL          0.7380   -2.1680   -0.3510 cl        1 NFX     -0.095400
      3 O02         0.0220    4.1870   -1.2170 o         1 NFX     -0.536500
      4 O03         3.2540    5.0960   -1.4200 o         1 NFX     -0.814300
      5 O           2.6120    4.7490   -3.4810 o         1 NFX     -0.814300
      6 N01        -1.1700   -1.6410    1.0680 nh        1 NFX     -0.224100
      7 N           2.0460    0.5830   -1.5210 nh        1 NFX     -0.498200
      8 C01        -3.0230   -1.2000    2.4290 c3        1 NFX      0.142500
      9 C02        -3.3430   -2.2570    1.3250 c3        1 NFX     -0.091400
     10 C03        -1.7290   -1.1860    2.5170 c3        1 NFX     -0.007700
     11 C04        -1.9840   -2.5640    0.6390 c3        1 NFX     -0.006700
     12 N05        -3.6290   -1.6170    3.7400 n3        1 NFX     -0.904800
     13 C06         2.6780   -0.6870   -1.7810 cx        1 NFX      0.155500
     14 C08         4.1960   -0.6670   -1.8480 cx        1 NFX     -0.138900
     15 C09         3.4970   -1.2630   -0.6380 cx        1 NFX     -0.138900
     16 C11        -1.1970   -0.5130    0.1640 cc        1 NFX      0.234900
     17 C12         0.6650    0.6260   -0.9070 cd        1 NFX      0.188000
     18 C13         0.0700   -0.5560   -0.4350 cc        1 NFX     -0.077200
     19 C14        -0.0150    1.8570   -0.7770 cd        1 NFX     -0.231100
     20 C15        -1.8750    0.7140    0.2940 cc        1 NFX     -0.025100
     21 C16         2.6960    1.8100   -1.9330 c2        1 NFX     -0.011100
     22 C17        -1.2840    1.8970   -0.1770 cd        1 NFX     -0.085000
     23 C18         1.9700    3.0960   -1.8430 c1        1 NFX     -0.158900
     24 C19         0.6400    3.1380   -1.2530 c1        1 NFX      0.616600
     25 C20         2.6520    4.3860   -2.2730 c         1 NFX      0.913600
     26 H01        -3.3570   -0.3140    2.1630 h1        1 NFX      0.023700
     27 H02        -3.9770   -1.8850    0.6720 hc        1 NFX      0.050200
     28 H03        -1.4150   -0.2790    2.7310 h1        1 NFX      0.057700
     29 H03A       -1.4310   -1.8200    3.2080 h1        1 NFX      0.057700
     30 H04        -2.0760   -2.5110   -0.3390 h1        1 NFX      0.051700
     31 H04A       -1.6620   -3.4550    0.9040 h1        1 NFX      0.051700
     32 H06         2.2340   -1.3450   -2.3620 h1        1 NFX      0.090700
     33 H08         4.6050   -1.3130   -2.4660 hc        1 NFX      0.079200
     34 H08A        4.6170    0.2090   -1.7080 hc        1 NFX      0.079200
     35 H09         3.5260   -0.7220    0.1810 hc        1 NFX      0.079200
     36 H09A        3.5140   -2.2440   -0.5760 hc        1 NFX      0.079200
     37 H16         3.5920    1.7800   -2.3300 h4        1 NFX      0.174000
     38 H17        -1.7670    2.7490   -0.1070 ha        1 NFX      0.173000
     39 H02A       -3.7120   -3.0740    1.7320 hc        1 NFX      0.050200
     40 H05        -4.5190   -1.8090    3.6180 hn        1 NFX      0.346300
     41 H05A       -3.5440   -0.9340    4.3480 hn        1 NFX      0.346300
@<TRIPOS>BOND
     1    1   20 1   
     2    2   18 1   
     3    3   24 2   
     4    4   25 1   
     5    5   25 1   
     6    6   10 1   
     7    6   11 1   
     8    6   16 2   
     9    7   13 1   
    10    7   17 1   
    11    7   21 1   
    12    8    9 1   
    13    8   10 1   
    14    8   12 1   
    15    8   26 1   
    16    9   11 1   
    17    9   27 1   
    18    9   39 1   
    19   10   28 1   
    20   10   29 1   
    21   11   30 1   
    22   11   31 1   
    23   12   40 1   
    24   12   41 1   
    25   13   14 1   
    26   13   15 1   
    27   13   32 1   
    28   14   15 1   
    29   14   33 1   
    30   14   34 1   
    31   15   35 1   
    32   15   36 1   
    33   16   18 1   
    34   16   20 1   
    35   17   18 2   
    36   17   19 1   
    37   19   22 1   
    38   19   24 2   
    39   20   22 2   
    40   21   23 2   
    41   21   37 1   
    42   22   38 1   
    43   23   25 2   
@<TRIPOS>SUBSTRUCTURE
     1 NFX         1 TEMP              0 ****  ****    0 ROOT
