@<TRIPOS>MOLECULE
NFX
   41    44     1     0     0
SMALL
bcc


@<TRIPOS>ATOM
      1 F          -2.5280    2.2110   -0.3810 f         1 NFX     -0.160900
      2 O02         2.4270    2.6130   -0.7880 o         1 NFX     -0.540100
      3 O03         5.6860    0.4770    0.2070 o         1 NFX     -0.813800
      4 O           4.8410    2.2710    1.2500 o         1 NFX     -0.813800
      5 N01        -3.0820   -0.5280    0.3610 nh        1 NFX     -0.615000
      6 N           1.7920   -1.2390    0.4840 na        1 NFX     -0.497800
      7 C01        -5.2560    0.2330   -0.5270 c3        1 NFX      0.152500
      8 C02        -5.2510    0.3900    1.0120 c3        1 NFX     -0.130400
      9 C03        -3.9120   -0.4930   -0.8430 c3        1 NFX      0.169800
     10 C04        -3.8300    0.0540    1.4790 c3        1 NFX      0.170800
     11 N05        -5.4350    1.4450   -1.2950 n3        1 NFX     -0.909800
     12 C06         1.8000   -2.6120    0.0690 cx        1 NFX      0.155500
     13 C08         1.4150   -3.0710   -1.3260 cx        1 NFX     -0.138400
     14 C09         2.8450   -3.1540   -0.8910 cx        1 NFX     -0.138400
     15 C11        -1.7590   -0.0050    0.1990 ca        1 NFX      0.089600
     16 C12         0.6840   -0.4140    0.2450 ca        1 NFX      0.188600
     17 C13        -0.6590   -0.8570    0.4200 ca        1 NFX      0.005400
     18 C14         0.8930    0.9550   -0.0850 ca        1 NFX     -0.187600
     19 C15        -1.5000    1.3480   -0.1610 ca        1 NFX      0.033900
     20 C16         3.0590   -0.6300    0.5800 cc        1 NFX      0.052000
     21 C17        -0.1880    1.8100   -0.2820 ca        1 NFX     -0.083000
     22 C18         3.3200    0.6720    0.3200 cd        1 NFX     -0.259400
     23 C19         2.2690    1.5240   -0.2220 c         1 NFX      0.598900
     24 C20         4.7300    1.1990    0.6050 c         1 NFX      0.932800
     25 H01        -6.1060   -0.4490   -0.8180 h1        1 NFX      0.057700
     26 H02        -5.5320    1.4220    1.3340 hc        1 NFX      0.045200
     27 H03        -3.3770   -0.0220   -1.7110 h1        1 NFX      0.059700
     28 H03A       -4.1350   -1.5620   -1.1090 h1        1 NFX      0.059700
     29 H04        -3.8510   -0.7190    2.2950 h1        1 NFX      0.050700
     30 H04A       -3.3280    0.9760    1.8850 h1        1 NFX      0.050700
     31 H06         1.5170   -3.2710    0.9230 h1        1 NFX      0.090700
     32 H08         0.8150   -3.9930   -1.4150 hc        1 NFX      0.079700
     33 H08A        1.1330   -2.3200   -2.0850 hc        1 NFX      0.079700
     34 H09         3.5840   -2.4610   -1.3360 hc        1 NFX      0.079700
     35 H09A        3.2880   -4.1390   -0.6620 hc        1 NFX      0.079700
     36 H16         3.8650   -1.3130    0.9130 h4        1 NFX      0.175000
     37 H17         0.0080    2.8640   -0.5450 ha        1 NFX      0.174000
     38 H02A       -5.9840   -0.3200    1.4660 hc        1 NFX      0.045200
     39 H05        -6.1800    1.9910   -0.9090 hn        1 NFX      0.352300
     40 H05A       -4.5970    1.9960   -1.3000 hn        1 NFX      0.352300
     41 CL         -0.9780   -2.4450    0.9590 cl        1 NFX     -0.089400
@<TRIPOS>BOND
     1    1   19 1   
     2    2   23 2   
     3    3   24 1   
     4    4   24 1   
     5    5    9 1   
     6    5   10 1   
     7    5   15 1   
     8    6   12 1   
     9    6   16 1   
    10    6   20 1   
    11    7    8 1   
    12    7    9 1   
    13    7   11 1   
    14    7   25 1   
    15    8   10 1   
    16    8   26 1   
    17    8   38 1   
    18    9   27 1   
    19    9   28 1   
    20   10   29 1   
    21   10   30 1   
    22   11   39 1   
    23   11   40 1   
    24   12   13 1   
    25   12   14 1   
    26   12   31 1   
    27   13   14 1   
    28   13   32 1   
    29   13   33 1   
    30   14   34 1   
    31   14   35 1   
    32   15   17 ar  
    33   15   19 ar  
    34   16   17 ar  
    35   16   18 ar  
    36   17   41 1   
    37   18   21 ar  
    38   18   23 1   
    39   19   21 ar  
    40   20   22 2   
    41   20   36 1   
    42   21   37 1   
    43   22   23 1   
    44   22   24 1   
@<TRIPOS>SUBSTRUCTURE
     1 NFX         1 TEMP              0 ****  ****    0 ROOT
