@<TRIPOS>MOLECULE
NFX
   42    54     1     0     0
SMALL
bcc


@<TRIPOS>ATOM
      1 F           0.0000    0.0000    0.0000 f         1 NFX     -0.073000
      2 O02         3.0360   -0.0600   -3.1740 o         1 NFX     -0.208000
      3 O03         7.0600   -0.0410   -3.8210 o         1 NFX     -0.447500
      4 O           5.0660   -0.0680   -4.7990 o         1 NFX     -0.447500
      5 N01         1.8170    0.0310    3.0720 nx        1 NFX      0.219000
      6 N           5.5170    0.0000    0.0000 na        1 NFX      0.171000
      7 C01        -0.1320   -0.7300    4.3040 DU        1 NFX     -0.359000
      8 C02         0.1000    0.7810    4.5380 c3        1 NFX     -0.089000
      9 C03         0.9870   -1.1630    3.3380 DU        1 NFX     -0.165000
     10 C04         0.9290    1.2000    3.2990 DU        1 NFX     -0.083000
     11 N05        -1.4490   -0.9550    3.6930 nz        1 NFX      0.078000
     12 C06         6.4310    0.0220    1.1450 DU        1 NFX     -0.362000
     13 C08         6.8900   -1.3240    1.7090 DU        1 NFX     -0.266000
     14 C09         7.8660   -0.4550    0.9130 cx        1 NFX     -0.397000
     15 C11         2.3030    0.0200    1.7660 ca        1 NFX      0.035000
     16 C12         4.1590    0.0000    0.2400 ca        1 NFX     -0.127000
     17 C13         3.6710    0.0200    1.5420 ca        1 NFX     -0.257000
     18 C14         3.2490   -0.0210   -0.8340 ca        1 NFX      0.053000
     19 C15         1.4080   -0.0000    0.6930 ca        1 NFX     -0.229000
     20 C16         6.0350   -0.0130   -1.2350 c2        1 NFX     -0.164000
     21 C17         1.8730   -0.0200   -0.5910 ca        1 NFX      0.048000
     22 C18         5.2430   -0.0330   -2.3640 c2        1 NFX     -0.117000
     23 C19         3.7790   -0.0410   -2.2070 c2        1 NFX      0.323000
     24 C20         5.8500   -0.0470   -3.7020 c2        1 NFX      0.407000
     25 H01         0.6760   -0.2260    3.7890 DU        1 NFX     -0.779000
     26 H02         0.0270   -0.2410    4.8900 DU        1 NFX      0.170000
     27 H03         0.8720   -0.4030    4.1010 DU        1 NFX      0.508000
     28 H03A        0.5540   -1.5240    2.4130 hx        1 NFX      0.149000
     29 H04         1.1510    0.1530    3.4660 DU        1 NFX      0.184000
     30 H04A        0.2820    1.3590    2.4450 hx        1 NFX      0.138000
     31 H06         5.5180    0.4090    1.5830 ha        1 NFX      0.244000
     32 H08         6.6160   -0.2800    1.7950 DU        1 NFX      0.299000
     33 H08A        7.0540   -1.3520    2.7790 ha        1 NFX      0.126000
     34 H09         7.2080   -1.3060    1.0470 DU        1 NFX      0.167000
     35 H09A        8.0880   -0.8000   -0.0900 hc        1 NFX      0.136000
     36 H16         6.7810    0.0050   -0.4500 h4        1 NFX      0.212000
     37 H17         2.9560    0.0040   -0.5930 ha        1 NFX      0.017000
     38 H02A        0.2900    0.6490    3.4800 DU        1 NFX      0.027000
     39 H05        -1.2090   -0.0480    4.0410 hn        1 NFX      0.207000
     40 H05A       -2.0040   -0.1880    4.0160 hn        1 NFX      0.207000
     41 H053       -1.7360   -1.8460    4.0490 hn        1 NFX      0.207000
     42 Cl          4.7730    0.0360    2.8830 cl        1 NFX      0.235000
@<TRIPOS>BOND
     1    1   19 1   
     2    2   23 1   
     3    3   24 1   
     4    4   24 1   
     5    5    9 1   
     6    5   10 1   
     7    5   15 1   
     8    5   29 1   
     9    6   12 1   
    10    6   16 1   
    11    6   20 1   
    12    7    8 1   
    13    7    9 1   
    14    7   11 1   
    15    7   25 1   
    16    7   26 1   
    17    7   27 1   
    18    8   10 1   
    19    8   26 1   
    20    8   38 1   
    21    9   25 1   
    22    9   27 1   
    23    9   28 1   
    24   10   29 1   
    25   10   30 1   
    26   10   38 1   
    27   11   39 1   
    28   11   40 1   
    29   11   41 1   
    30   12   13 1   
    31   12   14 1   
    32   12   31 1   
    33   12   32 1   
    34   13   14 1   
    35   13   32 1   
    36   13   33 1   
    37   13   34 1   
    38   14   34 1   
    39   14   35 1   
    40   15   17 1   
    41   15   19 1   
    42   16   17 1   
    43   16   18 1   
    44   17   42 1   
    45   18   21 1   
    46   18   23 1   
    47   19   21 1   
    48   20   22 1   
    49   20   36 1   
    50   21   37 1   
    51   22   23 1   
    52   22   24 1   
    53   25   27 1   
    54   25   29 1   
@<TRIPOS>SUBSTRUCTURE
     1 NFX         1 TEMP              0 ****  ****    0 ROOT
