@<TRIPOS>MOLECULE
NFZ
   22    21     1     0     0
SMALL
bcc


@<TRIPOS>ATOM
      1 O4       -653.3300  -13.7010  327.9250 o         1 NFZ     -0.459100
      2 C6       -654.2320  -13.0250  328.4220 c         1 NFZ      0.650100
      3 N4       -655.1400  -13.8320  329.3680 nz        1 NFZ     -0.755400
      4 N3       -654.5060  -11.7100  328.2410 nt        1 NFZ     -0.612000
      5 N2        460.1440    8.3720 -232.9830 n1        1 NFZ     -0.147800
      6 C5        460.3800    8.9630 -232.0100 c1        1 NFZ      0.137700
      7 C3        460.6610    9.7240 -230.8220 c3        1 NFZ      0.209400
      8 C4        462.0490    9.5260 -230.2560 c2        1 NFZ      0.028800
      9 C2        461.9540    9.0060 -228.9890 ce        1 NFZ     -0.285600
     10 O3        459.7640    9.2100 -229.7120 os        1 NFZ     -0.262400
     11 C1        460.5450    8.8360 -228.7050 ce        1 NFZ      0.473900
     12 N1        459.8950    8.3100 -227.4120 no        1 NFZ      0.240300
     13 O1        459.3160    9.1140 -226.7680 o         1 NFZ     -0.044500
     14 O2        460.0680    7.1600 -227.1990 o         1 NFZ     -0.044500
     15 HN41     -654.7800  -14.7980  329.3770 hn        1 NFZ      0.475467
     16 HN42     -655.1100  -13.4560  330.3180 hn        1 NFZ      0.475467
     17 HN3      -655.2570  -11.2330  328.6810 hn        1 NFZ      0.375000
     18 H5        460.3600   10.8140 -230.9220 h1        1 NFZ      0.203700
     19 H4        462.9550    9.7880 -230.8220 ha        1 NFZ      0.245000
     20 H2        462.7640    8.7450 -228.2940 ha        1 NFZ      0.248000
     21 H43      -656.1070  -13.8390  329.0340 hn        1 NFZ      0.475467
     22 H32      -653.9040  -11.2020  327.6230 hn        1 NFZ      0.375000
@<TRIPOS>BOND
     1    1    2 2   
     2    2    3 1   
     3    2    4 1   
     4    3   15 1   
     5    3   16 1   
     6    3   21 1   
     7    4   17 1   
     8    4   22 1   
     9    5    6 3   
    10    6    7 1   
    11    7    8 1   
    12    7   10 1   
    13    7   18 1   
    14    8    9 2   
    15    8   19 1   
    16    9   11 1   
    17    9   20 1   
    18   10   11 1   
    19   11   12 2   
    20   12   13 1   
    21   12   14 1   
@<TRIPOS>SUBSTRUCTURE
     1 NFZ         1 TEMP              0 ****  ****    0 ROOT
