@<TRIPOS>MOLECULE
NFZ
   20    15     1     0     0
SMALL
bcc


@<TRIPOS>ATOM
      1 O4         -2.1050    1.4750    2.0940 o         1 NFZ     -0.373000
      2 C6         -1.1690    2.1430    1.6960 c1        1 NFZ      0.421000
      3 N4         -0.7230    3.2790    2.4550 n2        1 NFZ     -0.417000
      4 N3         -0.5200    1.8050    0.4570 n3        1 NFZ     -0.306000
      5 N2         -1.2720    1.7260   -0.7310 n2        1 NFZ      0.012000
      6 C5         -1.1240    0.6930   -1.5410 c1        1 NFZ     -0.160000
      7 C3         -0.1360   -0.4190   -1.1880 c1        1 NFZ     -0.048000
      8 C4          1.1400   -0.5640   -1.7070 c1        1 NFZ     -0.131000
      9 C2          1.6380   -1.7560   -1.2720 c1        1 NFZ     -0.131000
     10 O3         -0.4140   -1.5280   -0.4350 os        1 NFZ     -0.077000
     11 C1          0.6770   -2.3580   -0.4820 c1        1 NFZ     -0.048000
     12 N1          0.7790   -3.6350    0.1310 n2        1 NFZ      0.501400
     13 O1          1.8540   -4.2170    0.1550 o         1 NFZ     -0.280200
     14 O2         -0.3230   -4.2240    0.6580 o         1 NFZ     -0.280200
     15 HN41       -0.0550    3.7990    2.1400 hn        1 NFZ      0.247000
     16 HN42       -1.1110    3.4700    3.2740 hn        1 NFZ      0.247000
     17 HN3         0.3910    1.7170    0.4280 hn        1 NFZ      0.264000
     18 H5         -1.6470    0.6390   -2.3670 ha        1 NFZ      0.185000
     19 H4          1.6020    0.0750   -2.2840 DU        1 NFZ      0.185500
     20 H2          2.5180   -2.1200   -1.4810 DU        1 NFZ      0.185500
@<TRIPOS>BOND
     1    1    2 1   
     2    2    4 1   
     3    3   15 1   
     4    3   16 1   
     5    4    5 1   
     6    4   17 1   
     7    5    6 1   
     8    6   18 1   
     9    7    8 1   
    10    7   10 1   
    11    8    9 1   
    12    9   11 1   
    13   10   11 1   
    14   12   13 2   
    15   12   14 2   
@<TRIPOS>SUBSTRUCTURE
     1 NFZ         1 TEMP              0 ****  ****    0 ROOT
