@<TRIPOS>MOLECULE
NFZ
   20    20     1     0     0
SMALL
bcc


@<TRIPOS>ATOM
      1 O4          5.1900    0.2830   -0.0010 o         1 NFZ     -0.623100
      2 C6          3.9740    0.5810   -0.0000 c         1 NFZ      0.799100
      3 N4          3.5250    1.8770   -0.0010 n         1 NFZ     -0.649000
      4 N3          3.0660   -0.5350   -0.0000 n         1 NFZ     -0.330900
      5 N2          1.7600   -0.3920   -0.0000 n2        1 NFZ     -0.396300
      6 C5          0.9550   -1.4290   -0.0000 ce        1 NFZ      0.221200
      7 C3         -0.4830   -1.2800   -0.0000 cc        1 NFZ      0.297400
      8 C4         -1.4800   -2.2530   -0.0000 cd        1 NFZ     -0.276300
      9 C2         -2.7390   -1.5640   -0.0000 cd        1 NFZ     -0.128300
     10 O3         -1.0430   -0.0020   -0.0000 os        1 NFZ     -0.295800
     11 C1         -2.4340   -0.2070   -0.0000 cc        1 NFZ      0.117200
     12 N1         -3.2860    0.9760   -0.0000 no        1 NFZ      0.247500
     13 O1         -2.7860    2.0660   -0.0010 o         1 NFZ     -0.188000
     14 O2         -4.4770    0.8040   -0.0000 o         1 NFZ     -0.188000
     15 HN41        4.2100    2.5920   -0.0010 hn        1 NFZ      0.338500
     16 HN42        2.5650    2.1130   -0.0010 hn        1 NFZ      0.338500
     17 HN3         3.5180   -1.4340   -0.0000 hn        1 NFZ      0.329500
     18 H5          1.2790   -2.4910   -0.0000 h4        1 NFZ      0.017800
     19 H4         -1.3430   -3.3320   -0.0000 ha        1 NFZ      0.177000
     20 H2         -3.7330   -2.0100   -0.0000 ha        1 NFZ      0.190000
@<TRIPOS>BOND
     1    1    2 2   
     2    2    3 1   
     3    2    4 1   
     4    3   15 1   
     5    3   16 1   
     6    4    5 1   
     7    4   17 1   
     8    5    6 2   
     9    6    7 1   
    10    6   18 1   
    11    7    8 2   
    12    7   10 1   
    13    8    9 1   
    14    8   19 1   
    15    9   11 2   
    16    9   20 1   
    17   10   11 1   
    18   11   12 1   
    19   12   13 1   
    20   12   14 1   
@<TRIPOS>SUBSTRUCTURE
     1 NFZ         1 TEMP              0 ****  ****    0 ROOT
