@<TRIPOS>MOLECULE
NG1
   33    33     1     0     0
SMALL
bcc


@<TRIPOS>ATOM
      1 P1          0.0110   -2.6620    0.5560 p5        1 NG1      1.327900
      2 OP1        -0.3260   -2.9690   -0.8710 o         1 NG1     -0.904167
      3 OP2        -0.7320   -3.3620    1.6440 o         1 NG1     -0.904167
      4 OP3         1.4830   -2.3860    0.7930 o         1 NG1     -0.904167
      5 C1         -0.3900   -0.2550   -0.4330 c3        1 NG1      0.396900
      6 C2          0.7210    0.8570   -0.2430 c3        1 NG1      0.016700
      7 C3          0.2790    1.8260    0.8820 c3        1 NG1      0.106100
      8 C4         -1.1140    2.4050    0.5660 c3        1 NG1      0.095100
      9 C5         -2.0830    1.2260    0.3830 c3        1 NG1      0.074100
     10 C6         -3.4880    1.6980    0.0150 c3        1 NG1      0.148400
     11 C7          3.1730    0.8030   -0.3220 c         1 NG1      0.647100
     12 C8          4.4270   -0.0040   -0.0550 c3        1 NG1     -0.162100
     13 N2          1.9900    0.2340    0.0120 n         1 NG1     -0.537900
     14 O1         -0.5730   -1.0030    0.6730 os        1 NG1     -0.558200
     15 O3          1.1930    2.8850    1.1040 oh        1 NG1     -0.627800
     16 O4         -1.0910    3.2410   -0.5810 oh        1 NG1     -0.624800
     17 O5         -1.6290    0.4330   -0.7050 os        1 NG1     -0.483600
     18 O6         -4.3780    0.6220   -0.2110 oh        1 NG1     -0.639800
     19 O7          3.2730    1.9620   -0.8220 o         1 NG1     -0.745100
     20 H1         -0.2070   -0.8690   -1.3660 h2        1 NG1      0.114700
     21 H2          0.7860    1.4550   -1.2000 h1        1 NG1      0.031700
     22 H3          0.2210    1.2640    1.8570 h1        1 NG1      0.093700
     23 H4         -1.4450    3.0840    1.3970 h1        1 NG1      0.053700
     24 H5         -2.1050    0.6010    1.3190 h1        1 NG1      0.096700
     25 H61        -3.9280    2.2940    0.8570 h1        1 NG1      0.021700
     26 H62        -3.4490    2.3320   -0.9120 h1        1 NG1      0.021700
     27 H81         4.7750    0.2110    0.9840 hc        1 NG1      0.049033
     28 H82         4.2390   -1.1020   -0.1500 hc        1 NG1      0.049033
     29 H83         5.2180    0.3070   -0.7760 hc        1 NG1      0.049033
     30 HN2         1.9330   -0.7430    0.3860 hn        1 NG1      0.424500
     31 HO3         1.6370    3.0670    0.2640 ho        1 NG1      0.421000
     32 HO4        -0.9550    2.6560   -1.3390 ho        1 NG1      0.410000
     33 HO6        -3.8450   -0.1380   -0.4920 ho        1 NG1      0.442000
@<TRIPOS>BOND
     1    1    2 1   
     2    1    3 1   
     3    1    4 1   
     4    1   14 1   
     5    5    6 1   
     6    5   14 1   
     7    5   17 1   
     8    5   20 1   
     9    6    7 1   
    10    6   13 1   
    11    6   21 1   
    12    7    8 1   
    13    7   15 1   
    14    7   22 1   
    15    8    9 1   
    16    8   16 1   
    17    8   23 1   
    18    9   10 1   
    19    9   17 1   
    20    9   24 1   
    21   10   18 1   
    22   10   25 1   
    23   10   26 1   
    24   11   12 1   
    25   11   13 1   
    26   11   19 2   
    27   12   27 1   
    28   12   28 1   
    29   12   29 1   
    30   13   30 1   
    31   15   31 1   
    32   16   32 1   
    33   18   33 1   
@<TRIPOS>SUBSTRUCTURE
     1 NG1         1 TEMP              0 ****  ****    0 ROOT
