@<TRIPOS>MOLECULE
NG1
   33    31     1     0     0
SMALL
bcc


@<TRIPOS>ATOM
      1 P1          0.1080    3.2520    0.5220 p3        1 NG1      2.520000
      2 OP1         1.5590    3.4180    0.1430 os        1 NG1     -1.235000
      3 OP2        -0.0910    3.6890    1.9560 o         1 NG1     -1.218000
      4 OP3        -0.7490    4.0980   -0.3850 o         1 NG1     -1.218000
      5 C1          0.6240    0.8400   -0.1290 c3        1 NG1      0.214000
      6 C2         -0.1040   -0.3030   -0.8020 c3        1 NG1     -0.060000
      7 C3         -0.8200   -1.1640    0.1690 c3        1 NG1     -0.005000
      8 C4          0.0660   -1.6200    1.2810 c3        1 NG1     -0.016000
      9 C5          0.7990   -0.4660    1.9460 c3        1 NG1     -0.037000
     10 C6          1.7950   -1.0200    2.9170 c3        1 NG1     -0.002000
     11 C7         -0.8340    0.1380   -3.1420 c1        1 NG1      0.291000
     12 C8         -1.8680    0.6590   -4.1270 c2        1 NG1     -0.230000
     13 N2         -1.0690    0.2430   -1.7450 n3        1 NG1     -0.347000
     14 O1         -0.3060    1.7290    0.3720 os        1 NG1     -0.720000
     15 O3         -1.3370   -2.3300   -0.5280 oh        1 NG1     -0.355000
     16 O4          1.0300   -2.5390    0.7560 oh        1 NG1     -0.352000
     17 O5          1.4990    0.3820    0.9830 os        1 NG1     -0.340000
     18 O6          2.3060    0.0300    3.7180 oh        1 NG1     -0.367000
     19 O7          0.1700   -0.4080   -3.5490 o         1 NG1     -0.506000
     20 H1          1.1730    1.2990   -0.7930 h2        1 NG1      0.154000
     21 H2          0.5440   -0.8480   -1.2910 h1        1 NG1      0.071000
     22 H3         -1.5690   -0.6620    0.5470 h1        1 NG1      0.133000
     23 H4         -0.4770   -2.0790    1.9520 h1        1 NG1      0.093000
     24 H5          0.1530    0.0780    2.4330 h1        1 NG1      0.136000
     25 H61         1.3580   -1.6840    3.4890 h1        1 NG1      0.061000
     26 H62         2.5290   -1.4440    2.4260 h1        1 NG1      0.061000
     27 H81        -1.5120    0.5950   -5.0400 ha        1 NG1      0.088333
     28 H82        -2.6860    0.1220   -4.0570 ha        1 NG1      0.088333
     29 H83        -2.0740    1.5960   -3.9210 ha        1 NG1      0.088333
     30 HN2        -1.8390    0.6220   -1.4400 hn        1 NG1      0.338000
     31 HO3        -2.1090   -2.5720   -0.1650 ho        1 NG1      0.220000
     32 HO4         0.9180   -3.3370    1.1370 ho        1 NG1      0.209000
     33 HO6         2.8130   -0.3120    4.3670 ho        1 NG1      0.241000
@<TRIPOS>BOND
     1    1    3 1   
     2    1    4 1   
     3    1   14 1   
     4    5    6 1   
     5    5   14 1   
     6    5   17 1   
     7    5   20 1   
     8    6    7 1   
     9    6   13 1   
    10    6   21 1   
    11    7    8 1   
    12    7   15 1   
    13    7   22 1   
    14    8    9 1   
    15    8   16 1   
    16    8   23 1   
    17    9   10 1   
    18    9   17 1   
    19    9   24 1   
    20   10   18 1   
    21   10   25 1   
    22   10   26 1   
    23   11   13 1   
    24   11   19 1   
    25   12   27 1   
    26   12   28 1   
    27   12   29 1   
    28   13   30 1   
    29   15   31 1   
    30   16   32 1   
    31   18   33 1   
@<TRIPOS>SUBSTRUCTURE
     1 NG1         1 TEMP              0 ****  ****    0 ROOT
