@<TRIPOS>MOLECULE
NG2
   70    74     1     0     0
SMALL
bcc


@<TRIPOS>ATOM
      1 C01         2.5930    2.4900   -2.1260 c3        1 NG2     -0.069800
      2 C02         3.1920    1.5590   -1.1470 ca        1 NG2     -0.015300
      3 C03         3.0920    1.7790    0.2300 ca        1 NG2     -0.109000
      4 C04         3.6640    0.9000    1.1470 ca        1 NG2     -0.122000
      5 C05         4.3510   -0.2300    0.6880 ca        1 NG2     -0.174600
      6 C06         4.4570   -0.4910   -0.6880 ca        1 NG2     -0.115000
      7 C07         3.8840    0.4060   -1.5930 ca        1 NG2      0.130100
      8 O08         3.9590    0.2660   -2.9660 os        1 NG2     -0.227200
      9 C09         4.5080   -0.9270   -3.4480 ca        1 NG2      0.127100
     10 C10         5.7840   -0.8930   -4.0040 ca        1 NG2     -0.267300
     11 C11         6.2850   -2.0630   -4.6330 ca        1 NG2      0.419200
     12 N12         5.6350   -3.2250   -4.7370 nb        1 NG2     -0.644000
     13 C13         4.3830   -3.2420   -4.1880 ca        1 NG2      0.427800
     14 C14         3.7530   -2.1050   -3.5140 ca        1 NG2     -0.208100
     15 C15         2.4460   -2.5420   -3.1060 cc        1 NG2     -0.187200
     16 C16         2.3110   -3.8690   -3.5160 cd        1 NG2     -0.078100
     17 N17         3.4700   -4.3060   -4.1560 na        1 NG2     -0.274100
     18 C18         4.9420   -1.2100    1.5960 c         1 NG2      0.587700
     19 N19         5.6620   -0.6340    2.8220 n4        1 NG2     -0.549200
     20 C20         7.0960   -0.4750    2.5750 ca        1 NG2     -0.068400
     21 C21         7.6580    0.8100    2.4670 ca        1 NG2     -0.078000
     22 C22         9.0230    0.9320    2.2460 ca        1 NG2     -0.120000
     23 C23         9.8540   -0.1960    2.1300 ca        1 NG2      0.038700
     24 C24         9.2810   -1.4700    2.2450 ca        1 NG2     -0.130300
     25 C25        10.0970   -2.7680    2.1370 c3        1 NG2      0.702200
     26 F26        11.3250   -2.7340    2.7410 f         1 NG2     -0.219300
     27 F27         9.4760   -3.8450    2.7310 f         1 NG2     -0.219300
     28 F28        10.3200   -3.1830    0.8520 f         1 NG2     -0.219300
     29 C29         7.9070   -1.6150    2.4590 ca        1 NG2     -0.061000
     30 C30        11.3300    0.0310    1.9210 c3        1 NG2      0.187100
     31 N31        11.8080   -0.5600    0.6810 n3        1 NG2     -0.735600
     32 C32        13.2160   -0.9380    0.7580 c3        1 NG2      0.166300
     33 C33        13.7570   -1.5130   -0.5650 c3        1 NG2      0.168800
     34 N34        13.4710   -0.6640   -1.7110 n3        1 NG2     -0.730600
     35 C35        12.0580   -0.3260   -1.7940 c3        1 NG2      0.168800
     36 C36        11.5170    0.2710   -0.4800 c3        1 NG2      0.166300
     37 C37        13.9670   -1.2090   -2.9700 c3        1 NG2      0.169800
     38 C38        15.4680   -1.4460   -3.0020 c3        1 NG2     -0.097100
     39 O39         4.9630   -2.4290    1.5290 o         1 NG2     -0.413100
     40 H1          2.0290    3.3120   -1.6210 hc        1 NG2      0.073033
     41 H2          1.8970    1.9330   -2.8050 hc        1 NG2      0.073033
     42 H3          3.3970    2.9380   -2.7640 hc        1 NG2      0.073033
     43 H4          2.5410    2.6620    0.5950 ha        1 NG2      0.165000
     44 H5          3.5230    1.0950    2.2200 ha        1 NG2      0.129000
     45 H6          4.9710   -1.3970   -1.0500 ha        1 NG2      0.179000
     46 H7          6.3860    0.0240   -3.9850 ha        1 NG2      0.159000
     47 H8          7.2930   -2.0470   -5.0900 h4        1 NG2      0.038100
     48 H9          1.6990   -1.9430   -2.5950 ha        1 NG2      0.165000
     49 H10         1.4590   -4.5450   -3.3970 h4        1 NG2      0.183000
     50 H11         3.6130   -5.1900   -4.5740 hn        1 NG2      0.322700
     51 H12         5.5420   -1.2800    3.6140 hn        1 NG2      0.459800
     52 H13         7.0380    1.7190    2.5510 ha        1 NG2      0.157000
     53 H14         9.4640    1.9410    2.1580 ha        1 NG2      0.174000
     54 H15         7.4730   -2.6300    2.5310 ha        1 NG2      0.183000
     55 H16        11.5340    1.1430    1.9670 h1        1 NG2      0.068700
     56 H17        11.8720   -0.4440    2.7930 h1        1 NG2      0.068700
     57 H19        13.3090   -1.7400    1.5440 h1        1 NG2      0.040950
     58 H20        13.8600   -0.0630    1.0640 h1        1 NG2      0.040950
     59 H21        13.3440   -2.5550   -0.7020 h1        1 NG2      0.044700
     60 H22        14.8760   -1.5910   -0.4630 h1        1 NG2      0.044700
     61 H24        11.4260   -1.2190   -2.0730 h1        1 NG2      0.044700
     62 H25        11.9320    0.4530   -2.5970 h1        1 NG2      0.044700
     63 H26        11.9330    1.3140   -0.3600 h1        1 NG2      0.040950
     64 H27        10.3980    0.3520   -0.5710 h1        1 NG2      0.040950
     65 H28        13.4460   -2.1780   -3.2310 h1        1 NG2      0.033200
     66 H29        13.7090   -0.4590   -3.7720 h1        1 NG2      0.033200
     67 H30        15.7680   -1.6790   -4.0520 hc        1 NG2      0.044367
     68 H31        15.7550   -2.3090   -2.3540 hc        1 NG2      0.044367
     69 H32        16.0300   -0.5430   -2.6630 hc        1 NG2      0.044367
     70 H192        5.2600    0.2780    3.0630 hn        1 NG2      0.459800
@<TRIPOS>BOND
     1    1    2 1   
     2    1   40 1   
     3    1   41 1   
     4    1   42 1   
     5    2    3 ar  
     6    2    7 ar  
     7    3    4 ar  
     8    3   43 1   
     9    4    5 ar  
    10    4   44 1   
    11    5    6 ar  
    12    5   18 1   
    13    6    7 ar  
    14    6   45 1   
    15    7    8 1   
    16    8    9 1   
    17    9   10 ar  
    18    9   14 ar  
    19   10   11 ar  
    20   10   46 1   
    21   11   12 ar  
    22   11   47 1   
    23   12   13 ar  
    24   13   14 ar  
    25   13   17 1   
    26   14   15 1   
    27   15   16 2   
    28   15   48 1   
    29   16   17 1   
    30   16   49 1   
    31   17   50 1   
    32   18   19 1   
    33   18   39 2   
    34   19   20 1   
    35   19   51 1   
    36   19   70 1   
    37   20   21 ar  
    38   20   29 ar  
    39   21   22 ar  
    40   21   52 1   
    41   22   23 ar  
    42   22   53 1   
    43   23   24 ar  
    44   23   30 1   
    45   24   25 1   
    46   24   29 ar  
    47   25   26 1   
    48   25   27 1   
    49   25   28 1   
    50   29   54 1   
    51   30   31 1   
    52   30   55 1   
    53   30   56 1   
    54   31   32 1   
    55   31   36 1   
    56   32   33 1   
    57   32   57 1   
    58   32   58 1   
    59   33   34 1   
    60   33   59 1   
    61   33   60 1   
    62   34   35 1   
    63   34   37 1   
    64   35   36 1   
    65   35   61 1   
    66   35   62 1   
    67   36   63 1   
    68   36   64 1   
    69   37   38 1   
    70   37   65 1   
    71   37   66 1   
    72   38   67 1   
    73   38   68 1   
    74   38   69 1   
@<TRIPOS>SUBSTRUCTURE
     1 NG2         1 TEMP              0 ****  ****    0 ROOT
