@<TRIPOS>MOLECULE
NG2
   69    73     1     0     0
SMALL
bcc


@<TRIPOS>ATOM
      1 C01         0.2090   -0.2150    0.0410 c3        1 NG2     -0.056800
      2 C02         1.6700   -0.0020   -0.0410 ca        1 NG2     -0.049300
      3 C03         2.3800    0.5440    1.0360 ca        1 NG2     -0.126000
      4 C04         3.7590    0.7250    0.9710 ca        1 NG2     -0.113000
      5 C05         4.4580    0.3610   -0.1840 ca        1 NG2     -0.139600
      6 C06         3.7780   -0.1800   -1.2780 ca        1 NG2     -0.105000
      7 C07         2.3930   -0.3600   -1.1950 ca        1 NG2      0.087100
      8 O08         1.6800   -1.0100   -2.2010 os        1 NG2     -0.238200
      9 C09         1.8930   -0.5810   -3.5030 ca        1 NG2      0.191100
     10 C10         2.4130    0.6600   -3.8590 ca        1 NG2     -0.337300
     11 C11         2.5160    0.9920   -5.2340 ca        1 NG2      0.442200
     12 N12         2.1510    0.2130   -6.2550 nb        1 NG2     -0.684000
     13 C13         1.6400   -1.0060   -5.8920 ca        1 NG2      0.438800
     14 C14         1.4870   -1.4660   -4.5160 ca        1 NG2     -0.217100
     15 C15         0.9210   -2.7870   -4.5800 cc        1 NG2     -0.155200
     16 C16         0.7500   -3.0930   -5.9280 cd        1 NG2     -0.115100
     17 N17         1.1790   -2.0290   -6.7290 na        1 NG2     -0.284100
     18 C18         5.9330    0.5660   -0.3050 c         1 NG2      0.684700
     19 N19         6.6840    0.1710    0.7960 ns        1 NG2     -0.468100
     20 C20         8.0780    0.2290    0.9390 ca        1 NG2      0.070600
     21 C21         8.9320    0.8510    0.0020 ca        1 NG2     -0.129000
     22 C22        10.3030    0.8730    0.2200 ca        1 NG2     -0.109000
     23 C23        10.8810    0.2950    1.3570 ca        1 NG2     -0.049300
     24 C24        10.0370   -0.3140    2.2920 ca        1 NG2     -0.118300
     25 C25        10.5860   -0.9340    3.5770 c3        1 NG2      0.687200
     26 F26        11.1140   -0.0190    4.4600 f         1 NG2     -0.237967
     27 F27         9.6560   -1.6080    4.3350 f         1 NG2     -0.237967
     28 F28        11.5890   -1.8550    3.4100 f         1 NG2     -0.237967
     29 C29         8.6580   -0.3510    2.0920 ca        1 NG2     -0.150000
     30 C30        12.3740    0.3670    1.5320 c3        1 NG2      0.210100
     31 N31        13.0620   -0.7500    0.8980 n3        1 NG2     -0.729600
     32 C32        14.2910   -1.1110    1.5890 c3        1 NG2      0.170300
     33 C33        15.0420   -2.2740    0.9130 c3        1 NG2      0.167800
     34 N34        15.2420   -2.0770   -0.5150 n3        1 NG2     -0.730600
     35 C35        14.0020   -1.7290   -1.1960 c3        1 NG2      0.167800
     36 C36        13.2610   -0.5560   -0.5290 c3        1 NG2      0.170300
     37 C37        15.9020   -3.2070   -1.1590 c3        1 NG2      0.169800
     38 C38        17.2790   -3.5280   -0.6020 c3        1 NG2     -0.095100
     39 O39         6.4360    1.0520   -1.3340 o         1 NG2     -0.578100
     40 H1         -0.0030   -1.2710    0.3470 hc        1 NG2      0.056033
     41 H2         -0.2570    0.4730    0.7880 hc        1 NG2      0.056033
     42 H3         -0.2680   -0.0450   -0.9570 hc        1 NG2      0.056033
     43 H4          1.8330    0.8380    1.9450 ha        1 NG2      0.144000
     44 H5          4.2860    1.1750    1.8260 ha        1 NG2      0.141000
     45 H6          4.3220   -0.4480   -2.1980 ha        1 NG2      0.171000
     46 H7          2.7440    1.3800   -3.1000 ha        1 NG2      0.158000
     47 H8          2.9310    1.9770   -5.5210 h4        1 NG2      0.027100
     48 H9          0.6790   -3.4150   -3.7280 ha        1 NG2      0.166000
     49 H10         0.3490   -3.9980   -6.3880 h4        1 NG2      0.170000
     50 H11         1.1620   -1.9950   -7.7140 hn        1 NG2      0.311700
     51 H12         6.1910   -0.2670    1.5440 hn        1 NG2      0.323500
     52 H13         8.5230    1.3190   -0.9100 ha        1 NG2      0.180000
     53 H14        10.9540    1.3630   -0.5230 ha        1 NG2      0.144000
     54 H15         8.0220   -0.8430    2.8480 ha        1 NG2      0.149000
     55 H16        12.7280    1.3620    1.1230 h1        1 NG2      0.048700
     56 H17        12.6080    0.3610    2.6360 h1        1 NG2      0.048700
     57 H19        14.0100   -1.4450    2.6280 h1        1 NG2      0.038200
     58 H20        14.9930   -0.2310    1.6770 h1        1 NG2      0.038200
     59 H21        14.4870   -3.2340    1.1280 h1        1 NG2      0.038700
     60 H22        16.0570   -2.3440    1.3950 h1        1 NG2      0.038700
     61 H24        14.2610   -1.4160   -2.2460 h1        1 NG2      0.038700
     62 H25        13.2980   -2.6100   -1.2610 h1        1 NG2      0.038700
     63 H26        12.2450   -0.4720   -1.0080 h1        1 NG2      0.038200
     64 H27        13.8270    0.3980   -0.7460 h1        1 NG2      0.038200
     65 H28        15.2680   -4.1420   -1.1030 h1        1 NG2      0.029700
     66 H29        16.0130   -2.9410   -2.2490 h1        1 NG2      0.029700
     67 H30        17.7700   -4.2740   -1.2720 hc        1 NG2      0.039367
     68 H31        17.2080   -3.9660    0.4220 hc        1 NG2      0.039367
     69 H32        17.9200   -2.6150   -0.5540 hc        1 NG2      0.039367
@<TRIPOS>BOND
     1    1    2 1   
     2    1   40 1   
     3    1   41 1   
     4    1   42 1   
     5    2    3 ar  
     6    2    7 ar  
     7    3    4 ar  
     8    3   43 1   
     9    4    5 ar  
    10    4   44 1   
    11    5    6 ar  
    12    5   18 1   
    13    6    7 ar  
    14    6   45 1   
    15    7    8 1   
    16    8    9 1   
    17    9   10 ar  
    18    9   14 ar  
    19   10   11 ar  
    20   10   46 1   
    21   11   12 ar  
    22   11   47 1   
    23   12   13 ar  
    24   13   14 ar  
    25   13   17 1   
    26   14   15 1   
    27   15   16 2   
    28   15   48 1   
    29   16   17 1   
    30   16   49 1   
    31   17   50 1   
    32   18   19 1   
    33   18   39 2   
    34   19   20 1   
    35   19   51 1   
    36   20   21 ar  
    37   20   29 ar  
    38   21   22 ar  
    39   21   52 1   
    40   22   23 ar  
    41   22   53 1   
    42   23   24 ar  
    43   23   30 1   
    44   24   25 1   
    45   24   29 ar  
    46   25   26 1   
    47   25   27 1   
    48   25   28 1   
    49   29   54 1   
    50   30   31 1   
    51   30   55 1   
    52   30   56 1   
    53   31   32 1   
    54   31   36 1   
    55   32   33 1   
    56   32   57 1   
    57   32   58 1   
    58   33   34 1   
    59   33   59 1   
    60   33   60 1   
    61   34   35 1   
    62   34   37 1   
    63   35   36 1   
    64   35   61 1   
    65   35   62 1   
    66   36   63 1   
    67   36   64 1   
    68   37   38 1   
    69   37   65 1   
    70   37   66 1   
    71   38   67 1   
    72   38   68 1   
    73   38   69 1   
@<TRIPOS>SUBSTRUCTURE
     1 NG2         1 TEMP              0 ****  ****    0 ROOT
