@<TRIPOS>MOLECULE
NG6
   33    31     1     0     0
SMALL
bcc


@<TRIPOS>ATOM
      1 C1         -0.8200    0.3870   -1.1250 c3        1 NG6      0.130000
      2 C2          0.6930    0.3870   -1.1250 c3        1 NG6     -0.034000
      3 C3          1.2560    0.3870    0.2470 c3        1 NG6      0.032000
      4 C4          0.6780   -0.7000    1.0960 c3        1 NG6     -0.002000
      5 C5         -0.8400   -0.6960    1.0840 c3        1 NG6     -0.050000
      6 C6         -1.3280    0.5230    1.8100 c3        1 NG6      0.047000
      7 C7          1.9660   -0.6620   -3.0050 c1        1 NG6      0.303000
      8 C8          2.4570   -1.8990   -3.7390 c2        1 NG6     -0.244000
      9 N           1.1640   -0.7990   -1.8280 n3        1 NG6     -0.371000
     10 O1         -1.2670    1.6070   -0.6600 oh        1 NG6     -0.366000
     11 O3          0.9760    1.6670    0.8690 oh        1 NG6     -0.309000
     12 O4          1.1310   -0.5250    2.4430 oh        1 NG6     -0.341000
     13 O5         -1.3900   -0.6920   -0.2720 os        1 NG6     -0.301000
     14 O6         -2.7440    0.5230    1.8330 os        1 NG6     -0.742000
     15 O7          2.2550    0.4430   -3.4180 o         1 NG6     -0.378000
     16 S          -3.3870    1.0780    3.0870 s4        1 NG6      2.100800
     17 O1S        -4.8910    1.1480    2.9480 o         1 NG6     -0.691900
     18 O2S        -3.2440    0.1200    4.2460 o         1 NG6     -0.691900
     19 O3S        -2.8040    2.4300    3.4190 os        1 NG6     -1.065000
     20 H1         -1.1350    0.2650   -2.0410 h2        1 NG6      0.100000
     21 H2          1.0090    1.1810   -1.5970 h1        1 NG6      0.156000
     22 H3          2.2230    0.2660    0.1920 h1        1 NG6      0.123000
     23 H4          0.9950   -1.5620    0.7640 h1        1 NG6      0.055000
     24 H5         -1.1600   -1.4910    1.5510 h1        1 NG6      0.151000
     25 H61        -1.0100    1.3240    1.3510 h1        1 NG6      0.071000
     26 H62        -0.9870    0.5150    2.7240 h1        1 NG6      0.071000
     27 H81         2.9250   -2.4850   -3.1130 ha        1 NG6      0.101000
     28 H82         1.6950   -2.3750   -4.1210 ha        1 NG6      0.101000
     29 H83         3.0660   -1.6330   -4.4530 ha        1 NG6      0.101000
     30 HN          0.9200   -1.6280   -1.5370 hn        1 NG6      0.229000
     31 HO1        -1.7590    2.0000   -1.2850 ho        1 NG6      0.228000
     32 HO3         1.7330    2.1190    0.9700 ho        1 NG6      0.220000
     33 HO4         1.6240   -1.2240    2.6830 ho        1 NG6      0.265000
@<TRIPOS>BOND
     1    1    2 1   
     2    1   10 1   
     3    1   13 1   
     4    1   20 1   
     5    2    3 1   
     6    2    9 1   
     7    2   21 1   
     8    3    4 1   
     9    3   11 1   
    10    3   22 1   
    11    4    5 1   
    12    4   12 1   
    13    4   23 1   
    14    5    6 1   
    15    5   13 1   
    16    5   24 1   
    17    6   14 1   
    18    6   25 1   
    19    6   26 1   
    20    7    9 1   
    21    7   15 1   
    22    8   27 1   
    23    8   28 1   
    24    8   29 1   
    25    9   30 1   
    26   10   31 1   
    27   11   32 1   
    28   12   33 1   
    29   14   16 1   
    30   16   17 1   
    31   16   18 1   
@<TRIPOS>SUBSTRUCTURE
     1 NG6         1 TEMP              0 ****  ****    0 ROOT
