@<TRIPOS>MOLECULE
NG6
   33    33     1     0     0
SMALL
bcc


@<TRIPOS>ATOM
      1 C1          1.1600    0.0660    1.2580 c3        1 NG6      0.330900
      2 C2         -0.0550   -0.0770    2.2290 c3        1 NG6      0.005700
      3 C3         -1.1980   -0.8080    1.4730 c3        1 NG6      0.096100
      4 C4         -1.4990   -0.0690    0.1530 c3        1 NG6      0.091100
      5 C5         -0.2100    0.0270   -0.6670 c3        1 NG6      0.053100
      6 C6         -0.4090    0.7630   -2.0060 c3        1 NG6      0.225400
      7 C7          0.3700   -0.0760    4.6660 c         1 NG6      0.664100
      8 C8          0.6520   -0.9160    5.8900 c3        1 NG6     -0.174100
      9 N           0.3120   -0.7340    3.4560 n         1 NG6     -0.542900
     10 O1          2.1740    0.8810    1.7730 oh        1 NG6     -0.585800
     11 O3         -2.3510   -0.8900    2.2870 oh        1 NG6     -0.603800
     12 O4         -2.0700    1.1920    0.4600 oh        1 NG6     -0.608800
     13 O5          0.7540    0.7690    0.0910 os        1 NG6     -0.458600
     14 O6         -1.1030   -0.0500   -2.8820 os        1 NG6     -0.603500
     15 O7          0.2260    1.1620    4.7530 o         1 NG6     -0.625100
     16 S          -0.2930   -1.2660   -3.8310 s6        1 NG6      1.699300
     17 O1S         0.1260   -2.1340   -2.8190 o         1 NG6     -0.751200
     18 O2S        -1.3230   -1.7150   -4.6450 o         1 NG6     -0.751200
     19 O3S         0.7180   -0.5280   -4.4370 o         1 NG6     -0.751200
     20 H1          1.6310   -0.9230    1.0100 h2        1 NG6      0.083700
     21 H2         -0.4150    0.9670    2.4800 h1        1 NG6      0.089700
     22 H3         -0.9160   -1.8750    1.2550 h1        1 NG6      0.082700
     23 H4         -2.2880   -0.6180   -0.4330 h1        1 NG6      0.117700
     24 H5          0.1770   -1.0130   -0.8790 h1        1 NG6      0.112700
     25 H61        -1.0200    1.6900   -1.8360 h1        1 NG6      0.035200
     26 H62         0.5990    1.0420   -2.4190 h1        1 NG6      0.035200
     27 H81         0.6800   -0.2480    6.7850 hc        1 NG6      0.060367
     28 H82        -0.1490   -1.6810    6.0320 hc        1 NG6      0.060367
     29 H83         1.6370   -1.4320    5.7900 hc        1 NG6      0.060367
     30 HN          0.3060   -1.7250    3.4480 hn        1 NG6      0.308500
     31 HO1         1.8280    1.7810    1.8340 ho        1 NG6      0.416000
     32 HO3        -2.7750   -0.0210    2.2650 ho        1 NG6      0.417000
     33 HO4        -1.3450    1.8290    0.5150 ho        1 NG6      0.409000
@<TRIPOS>BOND
     1    1    2 1   
     2    1   10 1   
     3    1   13 1   
     4    1   20 1   
     5    2    3 1   
     6    2    9 1   
     7    2   21 1   
     8    3    4 1   
     9    3   11 1   
    10    3   22 1   
    11    4    5 1   
    12    4   12 1   
    13    4   23 1   
    14    5    6 1   
    15    5   13 1   
    16    5   24 1   
    17    6   14 1   
    18    6   25 1   
    19    6   26 1   
    20    7    8 1   
    21    7    9 1   
    22    7   15 2   
    23    8   27 1   
    24    8   28 1   
    25    8   29 1   
    26    9   30 1   
    27   10   31 1   
    28   11   32 1   
    29   12   33 1   
    30   14   16 1   
    31   16   17 1   
    32   16   18 1   
    33   16   19 1   
@<TRIPOS>SUBSTRUCTURE
     1 NG6         1 TEMP              0 ****  ****    0 ROOT
