@<TRIPOS>MOLECULE
NG7
   74    79     1     0     0
SMALL
bcc


@<TRIPOS>ATOM
      1 C          -5.3420   -0.3010    2.5450 c3        1 NG7      0.687200
      2 F1         -4.9610   -1.4110    3.2630 f         1 NG7     -0.238300
      3 N          -9.6710    1.5050   -1.7320 n3        1 NG7     -0.718600
      4 S           6.9400    0.5840    0.5570 ss        1 NG7      0.040500
      5 C01         6.8370   -2.5270   -1.8080 ca        1 NG7     -0.052000
      6 F3         -6.6710   -0.5280    2.2880 f         1 NG7     -0.238300
      7 N01         4.9440   -1.1130   -0.1960 nb        1 NG7     -0.610000
      8 O01         8.5310    2.4070    1.5230 o         1 NG7     -0.582100
      9 C02         7.2400   -1.4040   -1.0530 ca        1 NG7      0.001100
     10 F2         -5.3510    0.7020    3.4870 f         1 NG7     -0.238300
     11 N02         8.5170   -0.8590   -0.9850 nc        1 NG7     -0.584100
     12 C03         6.2370   -0.7300   -0.2580 ca        1 NG7      0.337600
     13 N03         9.6220    0.9720    0.1150 n         1 NG7     -0.457400
     14 C04         4.5920   -2.1920   -0.9230 cp        1 NG7      0.452800
     15 C05         5.5130   -2.9160   -1.7380 ca        1 NG7     -0.231300
     16 N05        -7.1790    1.3430   -0.1610 n3        1 NG7     -0.728600
     17 C06         8.4910    0.2070   -0.1600 cd        1 NG7      0.396800
     18 C07         9.5970    2.0740    0.9690 c         1 NG7      0.693100
     19 C08        10.8830    2.8040    1.1720 cx        1 NG7     -0.227700
     20 C09        10.8090    4.3030    1.3590 cx        1 NG7     -0.095400
     21 C10        11.1230    3.4270    2.5290 cx        1 NG7     -0.095400
     22 C11         3.1900   -2.6490   -0.8820 cp        1 NG7     -0.145500
     23 C12         2.9090   -4.0180   -0.7840 ca        1 NG7     -0.093000
     24 C13         1.5870   -4.4610   -0.7590 ca        1 NG7     -0.139000
     25 C14         0.5370   -3.5460   -0.8190 ca        1 NG7     -0.098000
     26 C15         0.8160   -2.1790   -0.9070 ca        1 NG7     -0.155600
     27 C16         2.1390   -1.7260   -0.9430 ca        1 NG7     -0.042000
     28 C17        -0.2780   -1.1660   -0.9990 c         1 NG7      0.684700
     29 C18        -2.4580   -0.5210    0.0480 ca        1 NG7      0.072600
     30 C19        -2.7960    0.5110   -0.8550 ca        1 NG7     -0.129000
     31 C20        -3.9510    1.2560   -0.6580 ca        1 NG7     -0.109000
     32 C21        -4.8090    1.0170    0.4220 ca        1 NG7     -0.051300
     33 C22        -4.4760   -0.0010    1.3220 ca        1 NG7     -0.118300
     34 C23        -3.3190   -0.7590    1.1450 ca        1 NG7     -0.150000
     35 C25        -8.4490    1.6450    0.4840 c3        1 NG7      0.137800
     36 C26        -9.6650    1.1430   -0.3240 c3        1 NG7      0.162800
     37 C27        -8.3890    1.1810   -2.3390 c3        1 NG7      0.162800
     38 C28        -7.1520    1.6920   -1.5720 c3        1 NG7      0.137800
     39 C30       -11.5610    3.1400   -1.6830 c3        1 NG7     -0.093100
     40 H01         7.5640   -3.0670   -2.4320 ha        1 NG7      0.156000
     41 HN03       10.4780    0.7110   -0.3250 hn        1 NG7      0.342500
     42 HN04       -1.2250   -2.0600    0.5780 hn        1 NG7      0.323500
     43 H05         5.1530   -3.7790   -2.3160 ha        1 NG7      0.148000
     44 H08        11.7530    2.3890    0.6280 hc        1 NG7      0.095700
     45 H09        11.6050    4.9220    0.9090 hc        1 NG7      0.088700
     46 H09A        9.8160    4.7890    1.3110 hc        1 NG7      0.088700
     47 H10        10.3520    3.2900    3.3110 hc        1 NG7      0.088700
     48 H10A       12.1490    3.4030    2.9370 hc        1 NG7      0.088700
     49 H12         3.7330   -4.7450   -0.7230 ha        1 NG7      0.142000
     50 H13         1.3720   -5.5380   -0.6900 ha        1 NG7      0.141000
     51 H14        -0.5020   -3.9080   -0.8150 ha        1 NG7      0.139000
     52 H16         2.3430   -0.6460   -1.0280 ha        1 NG7      0.169000
     53 H19        -2.1490    0.7370   -1.7200 ha        1 NG7      0.180000
     54 H20        -4.1970    2.0590   -1.3710 ha        1 NG7      0.142000
     55 H23        -3.0840   -1.5520    1.8750 ha        1 NG7      0.149000
     56 H24        -5.7790    2.9220    0.2480 h1        1 NG7      0.047700
     57 H24A       -6.3060    1.9230    1.6720 h1        1 NG7      0.047700
     58 H25        -8.4520    1.1180    1.4800 h1        1 NG7      0.035200
     59 H25A       -8.5690    2.7520    0.6720 h1        1 NG7      0.035200
     60 H26       -10.5940    1.5360    0.1720 h1        1 NG7      0.060200
     61 H26A       -9.6900    0.0180   -0.2790 h1        1 NG7      0.060200
     62 H27        -8.3380    0.0570   -2.4040 h1        1 NG7      0.060200
     63 H27A       -8.3460    1.5940   -3.3840 h1        1 NG7      0.060200
     64 H28        -7.0690    2.8100   -1.7250 h1        1 NG7      0.035200
     65 H28A       -6.2360    1.2160   -2.0210 h1        1 NG7      0.035200
     66 H29        -9.4670    3.6220   -1.4270 h1        1 NG7      0.027200
     67 H29A       -9.9370    3.0710   -3.0950 h1        1 NG7      0.027200
     68 H30       -11.8330    4.1480   -2.0820 hc        1 NG7      0.038367
     69 H30A      -12.2210    2.3770   -2.1610 hc        1 NG7      0.038367
     70 H30B      -11.7520    3.1350   -0.5840 hc        1 NG7      0.038367
     71 C24        -6.0390    1.8700    0.5770 c3        1 NG7      0.211100
     72 N04        -1.3220   -1.3310   -0.0940 n         1 NG7     -0.470100
     73 C29       -10.0970    2.8750   -1.9960 c3        1 NG7      0.161800
     74 O          -0.2380   -0.2400   -1.8280 o         1 NG7     -0.577100
@<TRIPOS>BOND
     1    1    2 1   
     2    1    6 1   
     3    1   10 1   
     4    1   33 1   
     5    3   36 1   
     6    3   37 1   
     7    3   73 1   
     8    4   12 1   
     9    4   17 1   
    10    5    9 ar  
    11    5   15 ar  
    12    5   40 1   
    13    7   12 ar  
    14    7   14 ar  
    15    8   18 2   
    16    9   11 1   
    17    9   12 ar  
    18   11   17 2   
    19   13   17 1   
    20   13   18 1   
    21   13   41 1   
    22   14   15 ar  
    23   14   22 1   
    24   15   43 1   
    25   16   35 1   
    26   16   38 1   
    27   16   71 1   
    28   18   19 1   
    29   19   20 1   
    30   19   21 1   
    31   19   44 1   
    32   20   21 1   
    33   20   45 1   
    34   20   46 1   
    35   21   47 1   
    36   21   48 1   
    37   22   23 ar  
    38   22   27 ar  
    39   23   24 ar  
    40   23   49 1   
    41   24   25 ar  
    42   24   50 1   
    43   25   26 ar  
    44   25   51 1   
    45   26   27 ar  
    46   26   28 1   
    47   27   52 1   
    48   28   72 1   
    49   28   74 2   
    50   29   30 ar  
    51   29   34 ar  
    52   29   72 1   
    53   30   31 ar  
    54   30   53 1   
    55   31   32 ar  
    56   31   54 1   
    57   32   33 ar  
    58   32   71 1   
    59   33   34 ar  
    60   34   55 1   
    61   35   36 1   
    62   35   58 1   
    63   35   59 1   
    64   36   60 1   
    65   36   61 1   
    66   37   38 1   
    67   37   62 1   
    68   37   63 1   
    69   38   64 1   
    70   38   65 1   
    71   39   68 1   
    72   39   69 1   
    73   39   70 1   
    74   39   73 1   
    75   42   72 1   
    76   56   71 1   
    77   57   71 1   
    78   66   73 1   
    79   67   73 1   
@<TRIPOS>SUBSTRUCTURE
     1 NG7         1 TEMP              0 ****  ****    0 ROOT
