@<TRIPOS>MOLECULE
NG7
   74    71     1     0     0
SMALL
bcc


@<TRIPOS>ATOM
      1 C           1.1360   -1.4210    1.8350 c3        1 NG7      0.463000
      2 F1          2.3810   -1.9320    2.1120 f         1 NG7     -0.166667
      3 N          -4.8250   -0.8930    2.2370 n2        1 NG7     -0.209000
      4 S          -1.4400   -8.6480   -8.7970 ss        1 NG7      0.673000
      5 C01         2.2200   -8.6040  -10.3130 c2        1 NG7     -0.429000
      6 F3          0.3030   -2.0960    2.6990 f         1 NG7     -0.166667
      7 N01         0.7650   -7.6300   -7.7020 n2        1 NG7     -0.114000
      8 O01        -3.8860   -9.5460   -9.3450 o         1 NG7     -0.342000
      9 C02         0.8110   -8.7140  -10.0020 c2        1 NG7      0.002000
     10 F2          1.1880   -0.1520    2.3590 f         1 NG7     -0.166667
     11 N02        -0.0480   -9.3490  -10.8820 n2        1 NG7     -0.161000
     12 C03         0.2120   -8.2520   -8.8080 c2        1 NG7     -0.375000
     13 N03        -2.3810   -9.9350  -11.0260 ns        1 NG7     -0.295000
     14 C04         1.7740   -6.8220   -7.7840 c2        1 NG7     -0.032000
     15 C05         2.7680   -8.6210  -11.5160 c1        1 NG7      0.253000
     16 N05        -1.8060   -0.0710    1.6450 n8        1 NG7     -0.367000
     17 C06        -1.2970   -9.3700  -10.3510 c2        1 NG7     -0.182000
     18 C07        -3.6550  -10.0150  -10.4760 c2        1 NG7      0.298000
     19 C08        -4.7300  -10.6750  -11.3120 c3        1 NG7     -0.208000
     20 C09        -5.9810   -8.5750  -12.0370 c1        1 NG7     -0.047000
     21 C10        -5.2340   -9.7550  -12.4080 c3        1 NG7     -0.248000
     22 C11         2.3560   -6.1780   -6.6050 c2        1 NG7     -0.159000
     23 C12         3.2680   -8.3360   -2.4760 c1        1 NG7      0.402000
     24 C13         2.8720   -7.5060   -3.4370 c2        1 NG7     -0.539000
     25 C14         2.7070   -6.1230   -3.2270 c1        1 NG7     -0.043000
     26 C15         2.3020   -5.2210   -4.3130 c3        1 NG7     -0.149000
     27 C16         1.6690   -5.8630   -5.5000 c2        1 NG7     -0.113000
     28 C17         1.3890   -4.1070   -3.7650 c2        1 NG7      0.335000
     29 C18         1.0160   -2.6700   -1.7650 ca        1 NG7      0.083000
     30 C19         0.0230   -1.8340   -2.3210 ca        1 NG7     -0.130000
     31 C20        -0.6000   -0.8740   -1.5340 ca        1 NG7     -0.105000
     32 C21        -0.2680   -0.6920   -0.1860 ca        1 NG7     -0.057000
     33 C22         0.7170   -1.5160    0.3680 ca        1 NG7     -0.126000
     34 C23         1.3490   -2.4940   -0.4010 ca        1 NG7     -0.144000
     35 C25        -4.6470    1.4610    3.1790 c2        1 NG7     -0.311000
     36 C26        -4.6630    0.2380    2.7050 c1        1 NG7      0.011000
     37 C27        -3.0060   -4.4580    1.0670 c1        1 NG7      0.173000
     38 C28        -3.4510   -3.3370    0.5730 c2        1 NG7     -0.573000
     39 C30        -8.4550   -2.3750   -0.3270 c1        1 NG7     -0.059000
     40 H01         2.8960   -8.5240   -9.4340 ha        1 NG7      0.192000
     41 HN03       -2.2100  -10.3320  -11.9240 hn        1 NG7      0.255000
     42 HN04        2.3790   -4.1880   -1.9870 hn        1 NG7      0.265000
     43 H05         2.2750   -6.5450   -8.7390 h4        1 NG7      0.119000
     44 H08        -4.3430  -11.6300  -11.7550 hc        1 NG7      0.119000
     45 H09        -5.5730  -10.9380  -10.6170 hc        1 NG7      0.119000
     46 H09A       -6.1390   -8.3870  -10.9650 ha        1 NG7      0.059000
     47 H10        -4.3780   -9.4050  -13.0580 hc        1 NG7      0.154000
     48 H10A       -5.9150  -10.3450  -13.0930 hc        1 NG7      0.154000
     49 H12         3.4290   -5.9410   -6.7120 ha        1 NG7      0.129000
     50 H13         2.6480   -7.9580   -4.4360 ha        1 NG7      0.196000
     51 H14         3.2700   -4.7040   -4.6200 hc        1 NG7      0.166000
     52 H16         0.5860   -6.0560   -5.4110 ha        1 NG7      0.165000
     53 H19        -0.2740   -1.9390   -3.3790 ha        1 NG7      0.181000
     54 H20        -1.3770   -0.2390   -1.9900 ha        1 NG7      0.146000
     55 H23         2.1170   -3.1300    0.0710 ha        1 NG7      0.155000
     56 H24        -0.1670    1.1280    0.9280 h1        1 NG7      0.086000
     57 H24A       -1.6270    0.9780   -0.1400 h1        1 NG7      0.086000
     58 H25        -2.2430    0.7070    2.1040 hn        1 NG7      0.155500
     59 H25A       -1.2820   -0.5950    2.3200 hn        1 NG7      0.155500
     60 H26        -4.4980    2.3280    2.5250 ha        1 NG7      0.149500
     61 H26A       -4.8170    1.6670    4.2420 ha        1 NG7      0.149500
     62 H27        -4.5000   -3.1650    0.2740 ha        1 NG7      0.200500
     63 H27A       -2.2170   -2.8080    2.8830 ha        1 NG7      0.001000
     64 H28        -2.0470   -2.5200    3.4740 ha        1 NG7      0.001000
     65 H28A       -2.8090   -2.4540    0.4050 ha        1 NG7      0.200500
     66 H29        -4.0420   -1.5110    2.1410 hn        1 NG7      0.208000
     67 H29A       -6.8040   -2.3220    0.8960 hc        1 NG7      0.114000
     68 H30        -6.3330   -2.2630   -0.8640 hc        1 NG7      0.114000
     69 H30A       -6.9360   -3.8140   -0.1200 hc        1 NG7      0.114000
     70 H30B       -8.6770   -1.5440   -1.0150 ha        1 NG7      0.033000
     71 C24        -0.9630    0.4050    0.5720 c3        1 NG7     -0.050000
     72 N04         1.7070   -3.6450   -2.4970 ns        1 NG7     -0.311000
     73 C29        -7.0650   -2.6990   -0.1370 c3        1 NG7     -0.313000
     74 O           0.4700   -3.6450   -4.4620 o         1 NG7     -0.343000
@<TRIPOS>BOND
     1    1    2 1   
     2    1    6 1   
     3    1   10 1   
     4    1   33 1   
     5    3   36 1   
     6    3   66 1   
     7    4   12 1   
     8    4   17 1   
     9    5    9 1   
    10    5   15 1   
    11    5   40 1   
    12    7   12 1   
    13    7   14 1   
    14    8   18 1   
    15    9   11 1   
    16    9   12 1   
    17   11   17 1   
    18   13   17 1   
    19   13   18 1   
    20   13   41 1   
    21   14   22 1   
    22   14   43 1   
    23   16   58 1   
    24   16   59 1   
    25   16   71 1   
    26   18   19 1   
    27   19   21 1   
    28   19   44 1   
    29   19   45 1   
    30   20   21 1   
    31   20   46 1   
    32   21   47 1   
    33   21   48 1   
    34   22   27 1   
    35   22   49 1   
    36   23   24 1   
    37   24   25 1   
    38   24   50 1   
    39   25   26 1   
    40   26   27 1   
    41   26   28 1   
    42   26   51 1   
    43   27   52 1   
    44   28   72 1   
    45   28   74 1   
    46   29   30 1   
    47   29   34 1   
    48   29   72 1   
    49   30   31 1   
    50   30   53 1   
    51   31   32 1   
    52   31   54 1   
    53   32   33 1   
    54   32   71 1   
    55   33   34 1   
    56   34   55 1   
    57   35   36 1   
    58   35   60 1   
    59   35   61 1   
    60   37   38 1   
    61   38   62 1   
    62   38   65 1   
    63   39   70 1   
    64   39   73 1   
    65   42   72 1   
    66   56   71 1   
    67   57   71 1   
    68   63   64 1   
    69   67   73 1   
    70   68   73 1   
    71   69   73 1   
@<TRIPOS>SUBSTRUCTURE
     1 NG7         1 TEMP              0 ****  ****    0 ROOT
