@<TRIPOS>MOLECULE
NG7
   76    73     1     0     0
SMALL
bcc


@<TRIPOS>ATOM
      1 C           0.0740   -0.9440   -0.7620 c3        1 NG7      0.452000
      2 F1          1.2550   -0.7210   -1.4120 f         1 NG7     -0.153000
      3 N          -5.7050   -0.3410    5.4820 n2        1 NG7     -0.319000
      4 S          -1.8540   -6.6430  -11.0780 ss        1 NG7      0.600000
      5 C01        -0.0640  -10.0450  -10.3110 c1        1 NG7     -0.133000
      6 F3          0.4140   -1.0310    0.5720 f         1 NG7     -0.153000
      7 N01        -0.3070   -7.1970   -9.0010 n2        1 NG7     -0.144000
      8 O01        -2.3120  -10.6240  -14.2460 o         1 NG7      0.074000
      9 C02        -0.7890   -8.9450  -10.8030 c2        1 NG7      0.006000
     10 F2         -0.6180    0.2400   -0.8430 f         1 NG7     -0.153000
     11 N02        -1.4710   -9.0370  -12.0130 n2        1 NG7     -0.289000
     12 C03        -0.8810   -7.6980  -10.1510 c2        1 NG7     -0.264000
     13 N03        -2.8050   -7.6100  -13.4400 nh        1 NG7     -0.304000
     14 C04         0.1830   -7.9280   -8.0490 c2        1 NG7      0.016000
     15 C05         0.5500  -10.9820   -9.8850 c1        1 NG7     -0.169000
     16 N05        -2.4990   -1.4460    1.0230 n3        1 NG7      0.040000
     17 C06        -2.1010   -7.8620  -12.2710 c2        1 NG7     -0.160000
     18 C07        -1.2110  -10.7960  -13.9330 c1        1 NG7      0.476000
     19 C08         0.1550  -11.0620  -13.6210 c3        1 NG7     -0.220000
     20 C09         0.5080  -13.6100  -13.7600 c1        1 NG7     -0.017000
     21 C10         0.7020  -12.3170  -14.3310 c3        1 NG7     -0.239000
     22 C11         0.7990   -7.3540   -6.8530 c2        1 NG7     -0.168000
     23 C12         4.0920   -7.7800   -4.1720 c1        1 NG7      0.451000
     24 C13         3.3050   -7.0540   -4.9730 c2        1 NG7     -0.541000
     25 C14         2.2090   -6.3430   -4.4620 c1        1 NG7     -0.075000
     26 C15         1.3760   -5.4720   -5.2940 c3        1 NG7     -0.134000
     27 C16         0.7260   -6.0640   -6.4990 c2        1 NG7     -0.080000
     28 C17         0.2930   -4.7620   -4.4610 c2        1 NG7      0.323000
     29 C18        -0.7210   -4.4920   -2.2030 c3        1 NG7      0.043000
     30 C19        -2.1600   -4.2100   -2.6800 c3        1 NG7     -0.254000
     31 C20        -2.8840   -3.1550   -2.0390 c1        1 NG7     -0.007000
     32 C21        -2.1900   -2.0190   -1.3920 c3        1 NG7     -0.138000
     33 C22        -0.7170   -2.1590   -1.2540 c2        1 NG7     -0.280000
     34 C23        -0.0540   -3.2450   -1.6800 c2        1 NG7     -0.039000
     35 C25        -3.0060    2.5010    4.5010 c3        1 NG7     -0.270000
     36 C26        -5.6640    0.6920    6.2370 c2        1 NG7      0.012000
     37 C27        -3.9350   -0.8550    3.0620 c1        1 NG7      0.062000
     38 C28        -3.2790   -1.1370    2.0950 c1        1 NG7     -0.294000
     39 C30        -6.4740    0.9910    7.4220 c2        1 NG7     -0.230000
     40 H01         0.1800   -9.0420   -8.0630 h4        1 NG7      0.123000
     41 HN03       -3.2970   -8.3820  -13.8370 hn        1 NG7      0.216500
     42 HN04       -0.8070   -5.1850   -1.3020 h1        1 NG7      0.128000
     43 H05         1.0940  -11.8010   -9.4780 ha        1 NG7      0.245000
     44 H08         0.7590  -10.1490  -13.9170 hc        1 NG7      0.210500
     45 H09         0.2520  -11.1700  -12.4920 hc        1 NG7      0.210500
     46 H09A       -0.0060  -13.7640  -12.8070 ha        1 NG7      0.090000
     47 H10         0.3640  -12.3470  -15.4090 hc        1 NG7      0.196500
     48 H10A        1.8350  -12.1960  -14.3850 hc        1 NG7      0.196500
     49 H12         1.3430   -8.0940   -6.2400 ha        1 NG7      0.141000
     50 H13         3.5730   -7.0180   -6.0550 ha        1 NG7      0.183000
     51 H14         2.0480   -4.6250   -5.6630 hc        1 NG7      0.169000
     52 H16         0.1550   -5.3250   -7.0950 ha        1 NG7      0.171000
     53 H19        -2.1780   -3.9170   -3.7890 hc        1 NG7      0.200000
     54 H20        -2.7600   -5.1650   -2.6240 hc        1 NG7      0.200000
     55 H23         1.0540   -3.2630   -1.6430 ha        1 NG7      0.173000
     56 H24        -2.3870   -1.1430   -2.1150 hc        1 NG7      0.223000
     57 H24A       -4.0990   -1.6640   -0.3230 h4        1 NG7      0.233000
     58 H25        -2.1970    2.9070    3.8560 hc        1 NG7      0.068000
     59 H25A       -1.4960   -1.4650    1.2180 hn        1 NG7      0.303000
     60 H26        -2.6290    2.3930    5.5410 hc        1 NG7      0.068000
     61 H26A       -3.8720    3.1980    4.4890 hc        1 NG7      0.068000
     62 H27        -0.2190   -1.8450    2.8680 ha        1 NG7      0.002000
     63 H27A       -4.9140    1.4730    5.9640 h4        1 NG7      0.143000
     64 H28         0.3520   -1.5170    3.0280 ha        1 NG7      0.002000
     65 H28A       -3.3250    1.5060    4.1160 hc        1 NG7      0.068000
     66 H29        -6.3700   -1.0470    5.7160 hn        1 NG7      0.153000
     67 H29A       -4.5340   -0.6080    3.9370 ha        1 NG7      0.326000
     68 H30        -5.5910    2.8910    7.8650 ha        1 NG7      0.128000
     69 H30A       -6.9380    2.3320    9.0120 ha        1 NG7      0.128000
     70 H30B       -7.2240    0.2340    7.7130 ha        1 NG7      0.140000
     71 N04         0.0770   -5.2040   -3.1700 n         1 NG7     -0.359000
     72 O          -0.3660   -3.8290   -4.9640 o         1 NG7     -0.382000
     73 H032       -3.3330   -6.7630  -13.4280 hn        1 NG7      0.216500
     74 H042        0.7220   -5.8820   -2.8100 hn        1 NG7      0.272000
     75 C24        -2.9900   -1.6900   -0.1690 c2        1 NG7      0.150000
     76 C29        -6.3260    2.1150    8.1240 c2        1 NG7     -0.131000
@<TRIPOS>BOND
     1    1    2 1   
     2    1    6 1   
     3    1   10 1   
     4    1   33 1   
     5    3   36 1   
     6    3   66 1   
     7    4   12 1   
     8    4   17 1   
     9    5    9 1   
    10    5   15 1   
    11    7   12 1   
    12    7   14 1   
    13    8   18 1   
    14    9   11 1   
    15    9   12 1   
    16   11   17 1   
    17   13   17 1   
    18   13   41 1   
    19   13   73 1   
    20   14   22 1   
    21   14   40 1   
    22   15   43 1   
    23   16   38 1   
    24   16   59 1   
    25   16   75 1   
    26   18   19 1   
    27   19   21 1   
    28   19   44 1   
    29   19   45 1   
    30   20   21 1   
    31   20   46 1   
    32   21   47 1   
    33   21   48 1   
    34   22   27 1   
    35   22   49 1   
    36   23   24 1   
    37   24   25 1   
    38   24   50 1   
    39   25   26 1   
    40   26   27 1   
    41   26   28 1   
    42   26   51 1   
    43   27   52 1   
    44   28   71 1   
    45   28   72 1   
    46   29   30 1   
    47   29   34 1   
    48   29   42 1   
    49   29   71 1   
    50   30   31 1   
    51   30   53 1   
    52   30   54 1   
    53   31   32 1   
    54   32   33 1   
    55   32   56 1   
    56   32   75 1   
    57   33   34 1   
    58   34   55 1   
    59   35   58 1   
    60   35   60 1   
    61   35   61 1   
    62   35   65 1   
    63   36   39 1   
    64   36   63 1   
    65   37   38 1   
    66   37   67 1   
    67   39   70 1   
    68   39   76 1   
    69   57   75 1   
    70   62   64 1   
    71   68   76 1   
    72   69   76 1   
    73   71   74 1   
@<TRIPOS>SUBSTRUCTURE
     1 NG7         1 TEMP              0 ****  ****    0 ROOT
