@<TRIPOS>MOLECULE
NGA
   30    30     1     0     0
SMALL
bcc


@<TRIPOS>ATOM
      1 C1         -0.1240    1.0680   -0.6060 c3        1 NGA      0.331900
      2 C2          0.6500   -0.2310   -0.2300 c3        1 NGA      0.010700
      3 C3         -0.1460   -1.4270   -0.8100 c3        1 NGA      0.102100
      4 C4         -1.5870   -1.3990   -0.2600 c3        1 NGA      0.082100
      5 C5         -2.2260   -0.0350   -0.5440 c3        1 NGA      0.069100
      6 C6         -3.5990    0.1030    0.1200 c3        1 NGA      0.143400
      7 C7          2.9950    0.3810    0.1430 c         1 NGA      0.664100
      8 C8          4.4300    0.2440   -0.2960 c3        1 NGA     -0.171100
      9 N2          2.0230   -0.2030   -0.6550 n         1 NGA     -0.557900
     10 O1          0.4040    2.2370   -0.0700 oh        1 NGA     -0.569800
     11 O3          0.4870   -2.6510   -0.5090 oh        1 NGA     -0.590800
     12 O4         -1.5780   -1.7230    1.1180 oh        1 NGA     -0.594800
     13 O5         -1.4190    1.0080    0.0040 os        1 NGA     -0.460600
     14 O6         -4.2180    1.3150   -0.2470 oh        1 NGA     -0.593800
     15 O7          2.6710    1.0200    1.1650 o         1 NGA     -0.619100
     16 H1         -0.2050    1.2230   -1.7160 h2        1 NGA      0.081700
     17 H2          0.6290   -0.3080    0.9030 h1        1 NGA      0.074700
     18 H3         -0.1650   -1.3800   -1.9340 h1        1 NGA      0.084700
     19 H4         -2.1850   -2.2240   -0.7390 h1        1 NGA      0.098700
     20 H5         -2.3210    0.1110   -1.6570 h1        1 NGA      0.065700
     21 H61        -4.2820   -0.7060   -0.2500 h1        1 NGA      0.059700
     22 H62        -3.4900    0.0350    1.2350 h1        1 NGA      0.059700
     23 H81         4.5800    0.7390   -1.2860 hc        1 NGA      0.070367
     24 H82         5.0840    0.7410    0.4620 hc        1 NGA      0.070367
     25 H83         4.7180   -0.8320   -0.3770 hc        1 NGA      0.070367
     26 HN2         2.2890   -0.8450   -1.3630 hn        1 NGA      0.320500
     27 HO1         0.6830    2.0630    0.8430 ho        1 NGA      0.437000
     28 HO3         0.3130   -2.8450    0.4240 ho        1 NGA      0.423000
     29 HO4        -1.3420   -0.9200    1.6040 ho        1 NGA      0.417000
     30 HO6        -3.6280    2.0310    0.0280 ho        1 NGA      0.419000
@<TRIPOS>BOND
     1    1    2 1   
     2    1   10 1   
     3    1   13 1   
     4    1   16 1   
     5    2    3 1   
     6    2    9 1   
     7    2   17 1   
     8    3    4 1   
     9    3   11 1   
    10    3   18 1   
    11    4    5 1   
    12    4   12 1   
    13    4   19 1   
    14    5    6 1   
    15    5   13 1   
    16    5   20 1   
    17    6   14 1   
    18    6   21 1   
    19    6   22 1   
    20    7    8 1   
    21    7    9 1   
    22    7   15 2   
    23    8   23 1   
    24    8   24 1   
    25    8   25 1   
    26    9   26 1   
    27   10   27 1   
    28   11   28 1   
    29   12   29 1   
    30   14   30 1   
@<TRIPOS>SUBSTRUCTURE
     1 NGA         1 TEMP              0 ****  ****    0 ROOT
