@<TRIPOS>MOLECULE
NGC
   40    40     1     0     0
SMALL
bcc


@<TRIPOS>ATOM
      1 O8          3.2230    4.2010    0.2000 oh        1 NGC     -0.617800
      2 C8          2.6240    3.2090   -0.6140 c3        1 NGC      0.096400
      3 C7          1.9900    2.1030    0.2370 c3        1 NGC      0.063100
      4 O7          1.8380    2.5600    1.5710 oh        1 NGC     -0.596800
      5 C6          0.6360    1.6330   -0.3340 c3        1 NGC      0.131100
      6 O6          0.5630    1.8710   -1.7260 oh        1 NGC     -0.607800
      7 C5          0.4220    0.1440    0.0050 c3        1 NGC      0.116100
      8 O5          1.2640   -0.5510   -0.9040 os        1 NGC     -0.464600
      9 C1          1.2510   -1.9830   -0.7490 c3        1 NGC      0.218600
     10 C9          1.9170   -2.4230    0.6000 c         1 NGC      0.898600
     11 O9B         1.2700   -2.2710    1.6690 o         1 NGC     -0.814300
     12 O9A         3.0780   -2.9010    0.4960 o         1 NGC     -0.814300
     13 O1          2.0230   -2.3480   -1.8650 oh        1 NGC     -0.609800
     14 C2         -0.1650   -2.5170   -0.9520 c3        1 NGC     -0.111400
     15 C3         -1.1230   -1.8250    0.0050 c3        1 NGC      0.104100
     16 O3         -2.4690   -2.2280   -0.2340 oh        1 NGC     -0.619800
     17 C4         -1.0600   -0.2850   -0.1890 c3        1 NGC      0.073700
     18 N4         -1.9290    0.4090    0.7410 n         1 NGC     -0.522900
     19 C10        -3.1220    0.9740    0.3560 c         1 NGC      0.625100
     20 O10        -3.4310    1.2190   -0.8300 o         1 NGC     -0.618100
     21 C11        -4.0980    1.3730    1.4660 c3        1 NGC      0.056400
     22 O11        -5.0780    2.2730    1.0000 oh        1 NGC     -0.608800
     23 HO8         3.6910    3.7460    0.9130 ho        1 NGC      0.409000
     24 H8          1.8520    3.7570   -1.2170 h1        1 NGC      0.056200
     25 H8A         3.3900    2.7690   -1.3040 h1        1 NGC      0.056200
     26 H7          2.6910    1.2230    0.3270 h1        1 NGC      0.108700
     27 HO7         1.3040    3.3650    1.5370 ho        1 NGC      0.398000
     28 H6         -0.1890    2.2590    0.1050 h1        1 NGC      0.073700
     29 HO6         1.0640    1.1730   -2.1720 ho        1 NGC      0.427000
     30 H5          0.7500   -0.0730    1.0630 h1        1 NGC      0.100700
     31 HO1         2.9350   -2.4590   -1.5460 ho        1 NGC      0.437000
     32 H2         -0.4860   -2.3490   -2.0110 hc        1 NGC      0.053700
     33 H2A        -0.1610   -3.6190   -0.7540 hc        1 NGC      0.053700
     34 H3         -0.8370   -2.0880    1.0680 h1        1 NGC      0.094700
     35 HO3        -2.4560   -3.1900   -0.2960 ho        1 NGC      0.397000
     36 H4         -1.3800   -0.0290   -1.2410 h1        1 NGC      0.104700
     37 HN4        -1.8400    0.1250    1.6900 hn        1 NGC      0.306500
     38 H11        -4.6040    0.4450    1.8480 h1        1 NGC      0.058200
     39 H11A       -3.5780    1.8990    2.3100 h1        1 NGC      0.058200
     40 HO11       -5.1840    2.1370    0.0450 ho        1 NGC      0.430000
@<TRIPOS>BOND
     1    1    2 1   
     2    1   23 1   
     3    2    3 1   
     4    2   24 1   
     5    2   25 1   
     6    3    4 1   
     7    3    5 1   
     8    3   26 1   
     9    4   27 1   
    10    5    6 1   
    11    5    7 1   
    12    5   28 1   
    13    6   29 1   
    14    7    8 1   
    15    7   17 1   
    16    7   30 1   
    17    8    9 1   
    18    9   10 1   
    19    9   13 1   
    20    9   14 1   
    21   10   11 1   
    22   10   12 1   
    23   13   31 1   
    24   14   15 1   
    25   14   32 1   
    26   14   33 1   
    27   15   16 1   
    28   15   17 1   
    29   15   34 1   
    30   16   35 1   
    31   17   18 1   
    32   17   36 1   
    33   18   19 1   
    34   18   37 1   
    35   19   20 2   
    36   19   21 1   
    37   21   22 1   
    38   21   38 1   
    39   21   39 1   
    40   22   40 1   
@<TRIPOS>SUBSTRUCTURE
     1 NGC         1 TEMP              0 ****  ****    0 ROOT
