@<TRIPOS>MOLECULE
NGC
   40    40     1     0     0
SMALL
bcc


@<TRIPOS>ATOM
      1 O8         -4.0550   -0.2450   -3.0910 oh        1 NGC     -0.612800
      2 C8         -2.6780   -0.4730   -2.8860 c3        1 NGC      0.101400
      3 C7         -2.3050   -0.0710   -1.4770 c3        1 NGC      0.101100
      4 O7         -2.9990   -0.8800   -0.5580 oh        1 NGC     -0.608800
      5 C6         -0.8170   -0.2480   -1.2800 c3        1 NGC      0.158100
      6 O6         -0.1340    0.2170   -2.4190 oh        1 NGC     -0.608800
      7 C5         -0.3710    0.5410   -0.0680 c3        1 NGC      0.115100
      8 O5         -0.3510    1.9680   -0.4150 os        1 NGC     -0.473600
      9 C1          0.2230    2.8430    0.6690 c3        1 NGC      0.220600
     10 C9         -0.7230    2.9810    1.8140 c         1 NGC      0.934600
     11 O9B        -0.2790    3.1180    2.9840 o         1 NGC     -0.807300
     12 O9A        -1.9650    2.9550    1.6110 o         1 NGC     -0.807300
     13 O1          0.3370    4.1800    0.2460 oh        1 NGC     -0.566800
     14 C2          1.5990    2.2840    1.0950 c3        1 NGC     -0.159400
     15 C3          1.5570    0.8440    1.4330 c3        1 NGC      0.121100
     16 O3          2.9300    0.3730    1.6670 oh        1 NGC     -0.613800
     17 C4          0.9550    0.0320    0.3720 c3        1 NGC      0.070700
     18 N4          0.7900   -1.3540    0.8700 n         1 NGC     -0.527900
     19 C10         1.8480   -2.2900    0.7280 c         1 NGC      0.631100
     20 O10         2.8880   -1.9540    0.1980 o         1 NGC     -0.625100
     21 C11         1.6840   -3.7010    1.2490 c3        1 NGC      0.059400
     22 O11         2.9150   -4.3830    1.1510 oh        1 NGC     -0.609800
     23 HO8        -4.2780   -0.4970   -3.9140 ho        1 NGC      0.392000
     24 H8         -2.1600    0.0590   -3.5250 h1        1 NGC      0.032200
     25 H8A        -2.4810   -1.4230   -3.0170 h1        1 NGC      0.032200
     26 H7         -2.5430    0.8660   -1.3310 h1        1 NGC      0.105700
     27 HO7        -3.8500   -0.6240   -0.5210 ho        1 NGC      0.414000
     28 H6         -0.6170   -1.1950   -1.1440 h1        1 NGC      0.086700
     29 HO6         0.2900   -0.4610   -2.8080 ho        1 NGC      0.418000
     30 H5         -1.0150    0.4020    0.6520 h1        1 NGC      0.103700
     31 HO1         0.4030    4.2070   -0.6400 ho        1 NGC      0.382000
     32 H2          2.2330    2.4170    0.3620 hc        1 NGC      0.059700
     33 H2A         1.9120    2.7810    1.8770 hc        1 NGC      0.059700
     34 H3          1.0390    0.7260    2.2520 h1        1 NGC      0.059700
     35 HO3         3.1800    0.5850    2.4930 ho        1 NGC      0.400000
     36 H4          1.5580    0.0210   -0.3960 h1        1 NGC      0.103700
     37 HN4         0.0120   -1.6040    1.2750 hn        1 NGC      0.309500
     38 H11         1.0080   -4.1690    0.7160 h1        1 NGC      0.058200
     39 H11A        1.4000   -3.6730    2.1860 h1        1 NGC      0.058200
     40 HO11        2.8610   -5.1550    1.5890 ho        1 NGC      0.431000
@<TRIPOS>BOND
     1    1    2 1   
     2    1   23 1   
     3    2    3 1   
     4    2   24 1   
     5    2   25 1   
     6    3    4 1   
     7    3    5 1   
     8    3   26 1   
     9    4   27 1   
    10    5    6 1   
    11    5    7 1   
    12    5   28 1   
    13    6   29 1   
    14    7    8 1   
    15    7   17 1   
    16    7   30 1   
    17    8    9 1   
    18    9   10 1   
    19    9   13 1   
    20    9   14 1   
    21   10   11 1   
    22   10   12 1   
    23   13   31 1   
    24   14   15 1   
    25   14   32 1   
    26   14   33 1   
    27   15   16 1   
    28   15   17 1   
    29   15   34 1   
    30   16   35 1   
    31   17   18 1   
    32   17   36 1   
    33   18   19 1   
    34   18   37 1   
    35   19   20 2   
    36   19   21 1   
    37   21   22 1   
    38   21   38 1   
    39   21   39 1   
    40   22   40 1   
@<TRIPOS>SUBSTRUCTURE
     1 NGC         1 TEMP              0 ****  ****    0 ROOT
