@<TRIPOS>MOLECULE
NGE
   40    40     1     0     0
SMALL
bcc


@<TRIPOS>ATOM
      1 O8          2.0210    4.9490    0.0120 oh        1 NGE     -0.616800
      2 C8          1.8070    3.7500   -0.7100 c3        1 NGE      0.096400
      3 C7          1.4430    2.5990    0.2360 c3        1 NGE      0.062100
      4 O7          1.1620    3.1090    1.5300 oh        1 NGE     -0.602800
      5 C6          0.2470    1.7810   -0.2910 c3        1 NGE      0.134100
      6 O6          0.2640    1.7180   -1.7020 oh        1 NGE     -0.608800
      7 C5          0.2740    0.3770    0.3430 c3        1 NGE      0.118100
      8 O5          1.3630   -0.2780   -0.2930 os        1 NGE     -0.437600
      9 C2          0.3430   -2.4870   -0.0710 c3        1 NGE     -0.113400
     10 C3         -0.8510   -1.8500    0.6190 c3        1 NGE      0.119100
     11 O3         -2.0310   -2.6150    0.4480 oh        1 NGE     -0.614800
     12 C4         -1.0410   -0.4020    0.0880 c3        1 NGE      0.025700
     13 N4         -2.1880    0.2610    0.6740 n         1 NGE     -0.525900
     14 C20         1.5910   -1.6300    0.1000 c3        1 NGE      0.198600
     15 C10        -3.4620    0.0110    0.2160 c         1 NGE      0.625100
     16 O10        -3.7020   -0.5890   -0.8550 o         1 NGE     -0.624100
     17 C11        -4.6310    0.5430    1.0450 c3        1 NGE      0.061400
     18 O11        -5.8230    0.5880    0.2950 oh        1 NGE     -0.603800
     19 H8          2.6270    4.7430    0.7360 ho        1 NGE      0.406000
     20 H81C        0.9640    3.9830   -1.4140 h1        1 NGE      0.060200
     21 H82C        2.7220    3.4860   -1.3020 h1        1 NGE      0.060200
     22 H7          2.3260    1.9150    0.3920 h1        1 NGE      0.110700
     23 HA          0.4840    3.7900    1.4260 ho        1 NGE      0.399000
     24 H6         -0.7100    2.3140   -0.0370 h1        1 NGE      0.064700
     25 HB          0.9230    1.0560   -1.9600 ho        1 NGE      0.438000
     26 H5          0.4740    0.4570    1.4470 h1        1 NGE      0.064700
     27 H4         -1.2080   -0.4490   -1.0310 h1        1 NGE      0.101700
     28 H21C        0.5310   -3.5000    0.3650 hc        1 NGE      0.074700
     29 H22C        0.1590   -2.6050   -1.1710 hc        1 NGE      0.074700
     30 H3         -0.6830   -1.8380    1.7340 h1        1 NGE      0.077700
     31 HC         -2.2650   -2.5780   -0.4890 ho        1 NGE      0.412000
     32 HD         -2.0860    0.5510    1.6190 hn        1 NGE      0.299500
     33 H111       -4.7770   -0.1340    1.9310 h1        1 NGE      0.058700
     34 H112       -4.4510    1.5950    1.3920 h1        1 NGE      0.058700
     35 H11        -5.7740   -0.0950   -0.3920 ho        1 NGE      0.431000
     36 C9          2.7980   -2.1470   -0.7810 c         1 NGE      0.930600
     37 O1          1.9240   -1.5420    1.4640 oh        1 NGE     -0.651800
     38 H1          2.8930   -1.4920    1.5120 ho        1 NGE      0.441000
     39 O9B         3.9110   -2.1460   -0.1920 o         1 NGE     -0.801800
     40 O9A         2.5490   -2.5290   -1.9470 o         1 NGE     -0.801800
@<TRIPOS>BOND
     1    1    2 1   
     2    1   19 1   
     3    2    3 1   
     4    2   20 1   
     5    2   21 1   
     6    3    4 1   
     7    3    5 1   
     8    3   22 1   
     9    4   23 1   
    10    5    6 1   
    11    5    7 1   
    12    5   24 1   
    13    6   25 1   
    14    7    8 1   
    15    7   12 1   
    16    7   26 1   
    17    8   14 1   
    18    9   10 1   
    19    9   14 1   
    20    9   28 1   
    21    9   29 1   
    22   10   11 1   
    23   10   12 1   
    24   10   30 1   
    25   11   31 1   
    26   12   13 1   
    27   12   27 1   
    28   13   15 1   
    29   13   32 1   
    30   14   36 1   
    31   14   37 1   
    32   15   16 2   
    33   15   17 1   
    34   17   18 1   
    35   17   33 1   
    36   17   34 1   
    37   18   35 1   
    38   36   39 1   
    39   36   40 1   
    40   37   38 1   
@<TRIPOS>SUBSTRUCTURE
     1 NGE         1 TEMP              0 ****  ****    0 ROOT
