@<TRIPOS>MOLECULE
NGE
   40    39     1     0     0
SMALL
bcc


@<TRIPOS>ATOM
      1 O8         -4.9440   -0.0640   -1.3180 oh        1 NGE     -0.340000
      2 C8         -3.5980    0.1890   -1.6170 c3        1 NGE     -0.013000
      3 C7         -2.7210   -0.2680   -0.4380 c3        1 NGE     -0.026000
      4 O7         -2.5350   -1.6510   -0.5040 oh        1 NGE     -0.358000
      5 C6         -1.3950    0.4200   -0.5050 c3        1 NGE      0.018000
      6 O6         -1.5370    1.7550   -0.0650 oh        1 NGE     -0.332000
      7 C5         -0.3940   -0.3080    0.3920 c3        1 NGE     -0.009000
      8 O5         -0.8560   -0.2180    1.7820 os        1 NGE     -0.295000
      9 C9         -0.3580   -0.5840    4.1780 c1        1 NGE      0.350000
     10 O9B         0.4480   -0.2400    5.0820 o         1 NGE     -0.515000
     11 O9A        -1.5410   -0.8870    4.4760 os        1 NGE     -0.552000
     12 O1          0.2110   -2.1540    2.6990 oh        1 NGE     -0.385000
     13 C2          1.5040   -0.1210    2.5340 c3        1 NGE     -0.192000
     14 C3          1.9450   -0.2180    1.1250 c3        1 NGE      0.009000
     15 O3          3.1820    0.5630    0.9590 oh        1 NGE     -0.340000
     16 C4          0.9450    0.2870    0.1880 c3        1 NGE     -0.042000
     17 N4          1.4030   -0.0240   -1.2230 n         1 NGE     -0.337000
     18 C20         0.1260   -0.7670    2.7770 c3        1 NGE      0.098000
     19 C10         2.2400    0.9220   -1.9340 c2        1 NGE      0.274000
     20 O10         2.5690    1.9510   -1.4040 o         1 NGE     -0.388000
     21 C11         2.7320    0.5950   -3.4000 c3        1 NGE     -0.038000
     22 O11         3.4170    1.7310   -3.9390 oh        1 NGE     -0.332000
     23 H8         -5.4580    0.1480   -2.0320 ho        1 NGE      0.215000
     24 H81C       -3.3470   -0.2980   -2.4130 h1        1 NGE      0.084500
     25 H82C       -3.4710    1.1470   -1.7680 h1        1 NGE      0.084500
     26 H7         -3.1570   -0.0430    0.3910 h1        1 NGE      0.107000
     27 HA         -3.2840   -2.0580   -0.2880 ho        1 NGE      0.244000
     28 H6         -1.0800    0.4130   -1.3970 h1        1 NGE      0.106000
     29 HB         -1.9920    2.2150   -0.6630 ho        1 NGE      0.225000
     30 H5         -0.3630   -1.2440    0.1320 h1        1 NGE      0.103000
     31 H4          0.8770    1.2660    0.2920 h1        1 NGE      0.140000
     32 H1          0.4240   -2.4790    3.4870 ho        1 NGE      0.240000
     33 H21C        2.1630   -0.5660    3.1000 hc        1 NGE      0.115500
     34 H22C        1.4590    0.8360    2.7900 hc        1 NGE      0.115500
     35 H3          2.1350   -1.1750    0.9110 h1        1 NGE      0.114000
     36 HC          3.8810    0.0740    1.2310 ho        1 NGE      0.212000
     37 HD          1.2540   -0.8410   -1.5730 hn        1 NGE      0.215000
     38 H111        3.3540   -0.1880   -3.3770 h1        1 NGE      0.097500
     39 H112        1.9450    0.3780   -3.9760 h1        1 NGE      0.097500
     40 H11         3.8160    1.5030   -4.6950 ho        1 NGE      0.231000
@<TRIPOS>BOND
     1    1    2 1   
     2    1   23 1   
     3    2    3 1   
     4    2   24 1   
     5    2   25 1   
     6    3    4 1   
     7    3    5 1   
     8    3   26 1   
     9    4   27 1   
    10    5    6 1   
    11    5    7 1   
    12    5   28 1   
    13    6   29 1   
    14    7    8 1   
    15    7   16 1   
    16    7   30 1   
    17    8   18 1   
    18    9   10 1   
    19    9   18 1   
    20   12   18 1   
    21   12   32 1   
    22   13   14 1   
    23   13   18 1   
    24   13   33 1   
    25   13   34 1   
    26   14   15 1   
    27   14   16 1   
    28   14   35 1   
    29   15   36 1   
    30   16   17 1   
    31   16   31 1   
    32   17   19 1   
    33   17   37 1   
    34   19   20 1   
    35   19   21 1   
    36   21   22 1   
    37   21   38 1   
    38   21   39 1   
    39   22   40 1   
@<TRIPOS>SUBSTRUCTURE
     1 NGE         1 TEMP              0 ****  ****    0 ROOT
