@<TRIPOS>MOLECULE
NGF
   40    39     1     0     0
SMALL
bcc


@<TRIPOS>ATOM
      1 O10         0.8420    2.4930   -0.6850 o         1 NGF     -0.641100
      2 C10         0.5040    2.1420    0.4690 c         1 NGF      0.612100
      3 C11         0.4150    3.1990    1.5690 c3        1 NGF      0.060400
      4 N5          0.2370    0.8410    0.8020 n         1 NGF     -0.535900
      5 C5          0.0410   -0.2060   -0.1750 c3        1 NGF      0.073700
      6 C4         -1.1990   -1.0820    0.1650 c3        1 NGF      0.141100
      7 O4         -1.0360   -1.5440    1.5000 oh        1 NGF     -0.636800
      8 C3         -2.4890   -0.2970   -0.0070 c3        1 NGF     -0.240400
      9 C6          1.2850   -1.1280   -0.3050 c3        1 NGF      0.102100
     10 O6          1.0160   -2.2020   -1.1880 oh        1 NGF     -0.594800
     11 C2         -3.7360   -1.1280    0.1860 c         1 NGF      0.471100
     12 O2         -3.6790   -2.2530    0.6970 o         1 NGF     -0.604100
     13 C1         -5.0210   -0.4230   -0.2840 c         1 NGF      0.861600
     14 O1         -5.6110    0.2920    0.5660 o         1 NGF     -0.804300
     15 O3         -5.3460   -0.5820   -1.4880 o         1 NGF     -0.804300
     16 C7          2.5200   -0.3630   -0.8250 c3        1 NGF      0.064100
     17 O7          2.9510   -0.9200   -2.0550 oh        1 NGF     -0.600800
     18 C8          3.6720   -0.3910    0.1980 c3        1 NGF      0.113100
     19 O8          3.2570    0.0970    1.4580 oh        1 NGF     -0.582800
     20 C9          4.8610    0.4120   -0.3440 c3        1 NGF      0.095400
     21 O9          6.0410   -0.2150    0.1320 oh        1 NGF     -0.598800
     22 O5          1.1940    4.3270    1.2400 oh        1 NGF     -0.599800
     23 H1         -0.6630    3.4940    1.6890 h1        1 NGF      0.070200
     24 H2          0.8250    2.8320    2.5470 h1        1 NGF      0.070200
     25 H3         -0.0600    0.6210    1.7280 hn        1 NGF      0.336500
     26 H4         -0.1460    0.2710   -1.1850 h1        1 NGF      0.080700
     27 H5         -1.2010   -1.9690   -0.5320 h1        1 NGF      0.066700
     28 H6         -1.8110   -2.0940    1.6940 ho        1 NGF      0.444000
     29 H7         -2.5440    0.5420    0.7360 hc        1 NGF      0.076200
     30 H8         -2.5290    0.1450   -1.0370 hc        1 NGF      0.076200
     31 H9          1.4960   -1.6210    0.6860 h1        1 NGF      0.110700
     32 H10         0.7450   -1.8210   -2.0350 ho        1 NGF      0.409000
     33 H12         2.2580    0.7040   -1.0850 h1        1 NGF      0.105700
     34 H13         3.1050   -1.8640   -1.9070 ho        1 NGF      0.411000
     35 H14         3.9920   -1.4530    0.4020 h1        1 NGF      0.094700
     36 H15         2.9110    0.9880    1.3220 ho        1 NGF      0.399000
     37 H16         4.8530    0.4010   -1.4680 h1        1 NGF      0.038200
     38 H17         4.8130    1.4730    0.0210 h1        1 NGF      0.038200
     39 H18         6.7800    0.3140   -0.1910 ho        1 NGF      0.394000
     40 H19         1.0770    4.5010    0.2930 ho        1 NGF      0.428000
@<TRIPOS>BOND
     1    1    2 2   
     2    2    3 1   
     3    2    4 1   
     4    3   22 1   
     5    3   23 1   
     6    3   24 1   
     7    4    5 1   
     8    4   25 1   
     9    5    6 1   
    10    5    9 1   
    11    5   26 1   
    12    6    7 1   
    13    6    8 1   
    14    6   27 1   
    15    7   28 1   
    16    8   11 1   
    17    8   29 1   
    18    8   30 1   
    19    9   10 1   
    20    9   16 1   
    21    9   31 1   
    22   10   32 1   
    23   11   12 2   
    24   11   13 1   
    25   13   14 1   
    26   13   15 1   
    27   16   17 1   
    28   16   18 1   
    29   16   33 1   
    30   17   34 1   
    31   18   19 1   
    32   18   20 1   
    33   18   35 1   
    34   19   36 1   
    35   20   21 1   
    36   20   37 1   
    37   20   38 1   
    38   21   39 1   
    39   22   40 1   
@<TRIPOS>SUBSTRUCTURE
     1 NGF         1 TEMP              0 ****  ****    0 ROOT
