@<TRIPOS>MOLECULE
NGF
   40    38     1     0     0
SMALL
bcc


@<TRIPOS>ATOM
      1 O10        -0.8650   -1.2590    2.4530 o         1 NGF     -0.397000
      2 C10         0.2500   -0.8020    2.5070 c1        1 NGF      0.270000
      3 C11         0.9990   -0.7530    3.8560 c2        1 NGF     -0.038000
      4 N5          0.9050   -0.3390    1.2970 n3        1 NGF     -0.354000
      5 C5          0.2490   -0.4660    0.0470 c3        1 NGF     -0.001000
      6 C4          0.8930   -1.5770   -0.7450 c3        1 NGF      0.025000
      7 O4          2.0260   -2.0670   -0.0380 oh        1 NGF     -0.378000
      8 C3         -0.1080   -2.7010   -0.9410 c3        1 NGF     -0.265000
      9 C6          0.3720    0.8340   -0.7170 c3        1 NGF      0.000000
     10 O6          0.4080    0.5620   -2.1140 oh        1 NGF     -0.357000
     11 C2          0.5040   -3.7750   -1.8500 c2        1 NGF      0.180000
     12 O2          1.4370   -3.4840   -2.6070 o         1 NGF     -0.369000
     13 C1         -0.1020   -5.1600   -1.8940 c2        1 NGF      0.332000
     14 O1         -1.1140   -5.3800   -2.6100 o         1 NGF     -0.538000
     15 O3          0.3350   -6.0610   -1.1280 o         1 NGF     -0.538000
     16 C7         -0.8040    1.7120   -0.4120 c3        1 NGF      0.030000
     17 O7         -1.9580    1.2000   -1.0520 oh        1 NGF     -0.326000
     18 C8         -0.5240    3.1110   -0.9170 c3        1 NGF      0.002000
     19 O8          0.5300    3.6340   -0.2390 oh        1 NGF     -0.328000
     20 C9         -1.7690    3.9990   -0.6970 c3        1 NGF     -0.060000
     21 O9         -1.5080    5.3020   -1.1830 oh        1 NGF     -0.348000
     22 O5          0.0870   -1.0750    4.9200 oh        1 NGF     -0.329000
     23 H1          1.3660    0.1580    3.9990 h4        1 NGF      0.104500
     24 H2          1.7400   -1.4100    3.8460 h4        1 NGF      0.104500
     25 H3          1.7050    0.0890    1.3480 hn        1 NGF      0.241000
     26 H4         -0.7080   -0.6750    0.1930 h1        1 NGF      0.137000
     27 H5          1.1780   -1.2330   -1.6240 h1        1 NGF      0.103000
     28 H6          2.7320   -2.0330   -0.5590 ho        1 NGF      0.242000
     29 H7         -0.3360   -3.1040   -0.0540 hc        1 NGF      0.119500
     30 H8         -0.9280   -2.3430   -1.3610 hc        1 NGF      0.119500
     31 H9          1.2020    1.2950   -0.4500 h1        1 NGF      0.109000
     32 H10         1.0850    0.9650   -2.4680 ho        1 NGF      0.235000
     33 H12        -0.9470    1.7360    0.5330 h1        1 NGF      0.153000
     34 H13        -2.6530    1.2910   -0.5200 ho        1 NGF      0.216000
     35 H14        -0.3080    3.0770   -1.8910 h1        1 NGF      0.095000
     36 H15         0.8430    4.3440   -0.6790 ho        1 NGF      0.211000
     37 H16        -1.9760    4.0430    0.2620 h1        1 NGF      0.084500
     38 H17        -2.5330    3.6160   -1.1790 h1        1 NGF      0.084500
     39 H18        -2.2440    5.8380   -1.0370 ho        1 NGF      0.199000
     40 H19         0.5380   -1.1090    5.7060 ho        1 NGF      0.227000
@<TRIPOS>BOND
     1    1    2 1   
     2    2    4 1   
     3    3   22 1   
     4    3   23 1   
     5    3   24 1   
     6    4    5 1   
     7    4   25 1   
     8    5    6 1   
     9    5    9 1   
    10    5   26 1   
    11    6    7 1   
    12    6    8 1   
    13    6   27 1   
    14    7   28 1   
    15    8   11 1   
    16    8   29 1   
    17    8   30 1   
    18    9   10 1   
    19    9   16 1   
    20    9   31 1   
    21   10   32 1   
    22   11   12 1   
    23   11   13 1   
    24   13   14 1   
    25   13   15 1   
    26   16   17 1   
    27   16   18 1   
    28   16   33 1   
    29   17   34 1   
    30   18   19 1   
    31   18   20 1   
    32   18   35 1   
    33   19   36 1   
    34   20   21 1   
    35   20   37 1   
    36   20   38 1   
    37   21   39 1   
    38   22   40 1   
@<TRIPOS>SUBSTRUCTURE
     1 NGF         1 TEMP              0 ****  ****    0 ROOT
