@<TRIPOS>MOLECULE
NGH
   41    37     1     0     0
SMALL
bcc


@<TRIPOS>ATOM
      1 C1         -0.3190   -2.8990    0.7600 c1        1 NGH      0.011000
      2 C2         -0.5370   -3.5360    1.9650 c1        1 NGH     -0.191000
      3 C3          0.4290   -3.4760    2.9720 c1        1 NGH      0.149000
      4 C4          1.6120   -2.7750    2.7600 c1        1 NGH     -0.097500
      5 C5          1.8310   -2.1360    1.5500 c1        1 NGH     -0.097500
      6 C6          0.8700   -2.1940    0.5480 c1        1 NGH     -0.885000
      7 O1          0.2800   -4.2280    4.1020 os        1 NGH     -0.203000
      8 C7         -0.3090   -3.5560    5.1390 c3        1 NGH     -0.080000
      9 S1          1.1440   -1.3390   -1.0000 s4        1 NGH      2.071800
     10 O2          0.6590   -2.1190   -2.1260 o         1 NGH     -0.544900
     11 O3          2.5430   -1.2490   -1.3040 o         1 NGH     -0.544900
     12 N           0.3430    0.3690   -0.9540 n2        1 NGH     -0.808000
     13 C9         -0.7810    0.4770   -2.1780 c3        1 NGH     -0.013000
     14 C10         1.5110    1.5230   -1.1920 c3        1 NGH     -0.035000
     15 C11         1.5120    2.4970   -0.0160 c2        1 NGH      0.213000
     16 N1          1.8280    3.8870   -0.2310 n         1 NGH     -0.193000
     17 O4          1.2180    4.8660    0.5450 oh        1 NGH     -0.239000
     18 O5          1.1770    2.1150    1.0840 o         1 NGH     -0.331000
     19 C12        -1.4630    1.8730   -2.1350 c3        1 NGH     -0.122000
     20 C13        -3.0080    1.6960   -2.1220 c3        1 NGH     -0.216000
     21 C14        -1.0480    2.6870   -3.3760 c3        1 NGH     -0.216000
     22 H1         -0.9840   -2.9400    0.0660 ha        1 NGH      0.164000
     23 H2         -1.3490   -4.0180    2.1110 ha        1 NGH      0.158000
     24 H4          2.2850   -2.7320    3.4610 ha        1 NGH      0.156500
     25 H5          2.6420   -1.6540    1.4050 ha        1 NGH      0.156500
     26 H71         0.2550   -2.7980    5.3980 h1        1 NGH      0.090667
     27 H72        -0.4130   -4.1570    5.8970 h1        1 NGH      0.090667
     28 H73        -1.1850   -3.2300    4.8600 h1        1 NGH      0.090667
     29 H91        -1.4590   -0.2210   -2.0630 h1        1 NGH      0.094500
     30 H92        -0.3290    0.3570   -3.0500 h1        1 NGH      0.094500
     31 H101        1.3210    2.0200   -2.0330 h1        1 NGH      0.129000
     32 H102        2.3790    1.0960   -1.2590 h1        1 NGH      0.129000
     33 HN1         2.4680    4.1170   -0.8240 hn        1 NGH      0.213000
     34 HO4         1.2660    5.6490    0.1280 ho        1 NGH      0.234000
     35 H12        -1.1830    2.3470   -1.3260 hc        1 NGH      0.088000
     36 H131       -3.3070    1.3440   -2.9930 hc        1 NGH      0.080333
     37 H132       -3.4390    2.5700   -1.9540 hc        1 NGH      0.080333
     38 H133       -3.2570    1.0680   -1.4150 hc        1 NGH      0.080333
     39 H141       -0.0720    2.8300   -3.3640 hc        1 NGH      0.080333
     40 H142       -1.2980    2.1950   -4.1890 hc        1 NGH      0.080333
     41 H143       -1.5050    3.5560   -3.3670 hc        1 NGH      0.080333
@<TRIPOS>BOND
     1    1    6 1   
     2    1   22 1   
     3    2    3 1   
     4    2   23 1   
     5    3    7 1   
     6    4    5 1   
     7    4   24 1   
     8    5   25 1   
     9    6    9 1   
    10    7    8 1   
    11    8   26 1   
    12    8   27 1   
    13    8   28 1   
    14    9   10 1   
    15    9   11 1   
    16   12   13 1   
    17   12   14 1   
    18   13   19 1   
    19   13   29 1   
    20   13   30 1   
    21   14   15 1   
    22   14   31 1   
    23   14   32 1   
    24   15   16 1   
    25   15   18 1   
    26   16   17 1   
    27   16   33 1   
    28   17   34 1   
    29   19   20 1   
    30   19   21 1   
    31   19   35 1   
    32   20   36 1   
    33   20   37 1   
    34   20   38 1   
    35   21   39 1   
    36   21   40 1   
    37   21   41 1   
@<TRIPOS>SUBSTRUCTURE
     1 NGH         1 TEMP              0 ****  ****    0 ROOT
