@<TRIPOS>MOLECULE
NGH
   41    41     1     0     0
SMALL
bcc


@<TRIPOS>ATOM
      1 C1          0.7890    0.3900    1.6550 ca        1 NGH      0.024500
      2 C2          0.5710   -0.2340    2.8710 ca        1 NGH     -0.211500
      3 C3         -0.7460   -0.5920    3.2310 ca        1 NGH      0.198100
      4 C4         -1.8200   -0.3170    2.3700 ca        1 NGH     -0.211500
      5 C5         -1.5680    0.3080    1.1560 ca        1 NGH      0.024500
      6 C6         -0.2690    0.6700    0.7730 ca        1 NGH     -0.439500
      7 O1         -0.8660   -1.2060    4.4520 os        1 NGH     -0.315900
      8 C7         -2.1840   -1.5650    4.8620 c3        1 NGH      0.108700
      9 S1          0.0080    1.4860   -0.6590 sy        1 NGH      1.521200
     10 O2         -1.1740    2.1440   -1.0460 o         1 NGH     -0.663800
     11 O3          1.1560    2.3080   -0.5200 o         1 NGH     -0.663800
     12 N           0.3950    0.3020   -1.7290 n3        1 NGH     -0.803500
     13 C9         -0.2430   -0.9880   -1.8020 c3        1 NGH      0.221800
     14 C10         1.4550    0.5270   -2.6710 c3        1 NGH      0.149800
     15 C11         2.8190    0.0480   -2.1450 c         1 NGH      0.571100
     16 N1          3.6710    1.0310   -1.5790 n         1 NGH     -0.365400
     17 O4          4.6460    0.5580   -0.8020 oh        1 NGH     -0.434100
     18 O5          3.2010   -1.1190   -2.3290 o         1 NGH     -0.566100
     19 C12        -1.2940   -1.1490   -2.9160 c3        1 NGH     -0.085700
     20 C13        -1.5730   -2.6260   -3.1090 c3        1 NGH     -0.099600
     21 C14        -2.5700   -0.4080   -2.5840 c3        1 NGH     -0.099600
     22 H1          1.8160    0.6890    1.3750 ha        1 NGH      0.158000
     23 H2          1.3990   -0.4520    3.5610 ha        1 NGH      0.155500
     24 H4         -2.8490   -0.5850    2.6450 ha        1 NGH      0.155500
     25 H5         -2.4090    0.5380    0.4750 ha        1 NGH      0.158000
     26 H71        -2.0220   -2.0290    5.8670 h1        1 NGH      0.052367
     27 H72        -2.8300   -0.6570    4.9430 h1        1 NGH      0.052367
     28 H73        -2.6270   -2.3040    4.1510 h1        1 NGH      0.052367
     29 H91         0.5560   -1.7730   -1.9530 h1        1 NGH      0.059700
     30 H92        -0.7430   -1.1960   -0.8110 h1        1 NGH      0.059700
     31 H101        1.2570   -0.0430   -3.6240 h1        1 NGH      0.084200
     32 H102        1.5050    1.6260   -2.9270 h1        1 NGH      0.084200
     33 HN1         3.1780    1.7630   -1.0690 hn        1 NGH      0.341500
     34 HO4         5.3140    0.1820   -1.4100 ho        1 NGH      0.429000
     35 H12        -0.8790   -0.7370   -3.8780 hc        1 NGH      0.055700
     36 H131       -2.3530   -2.7670   -3.8960 hc        1 NGH      0.040700
     37 H132       -0.6470   -3.1630   -3.4270 hc        1 NGH      0.040700
     38 H133       -1.9420   -3.0840   -2.1600 hc        1 NGH      0.040700
     39 H141       -3.0280   -0.8130   -1.6490 hc        1 NGH      0.040700
     40 H142       -2.3750    0.6830   -2.4400 hc        1 NGH      0.040700
     41 H143       -3.3090   -0.5270   -3.4140 hc        1 NGH      0.040700
@<TRIPOS>BOND
     1    1    2 ar  
     2    1    6 ar  
     3    1   22 1   
     4    2    3 ar  
     5    2   23 1   
     6    3    4 ar  
     7    3    7 1   
     8    4    5 ar  
     9    4   24 1   
    10    5    6 ar  
    11    5   25 1   
    12    6    9 1   
    13    7    8 1   
    14    8   26 1   
    15    8   27 1   
    16    8   28 1   
    17    9   10 2   
    18    9   11 2   
    19    9   12 1   
    20   12   13 1   
    21   12   14 1   
    22   13   19 1   
    23   13   29 1   
    24   13   30 1   
    25   14   15 1   
    26   14   31 1   
    27   14   32 1   
    28   15   16 1   
    29   15   18 2   
    30   16   17 1   
    31   16   33 1   
    32   17   34 1   
    33   19   20 1   
    34   19   21 1   
    35   19   35 1   
    36   20   36 1   
    37   20   37 1   
    38   20   38 1   
    39   21   39 1   
    40   21   40 1   
    41   21   41 1   
@<TRIPOS>SUBSTRUCTURE
     1 NGH         1 TEMP              0 ****  ****    0 ROOT
