@<TRIPOS>MOLECULE
NGI
   65    68     1     0     0
SMALL
bcc


@<TRIPOS>ATOM
      1 C1          0.0000    0.0000    0.0000 c3        1 NGI      0.001900
      2 N1          2.0180    0.0000    1.3810 ny        1 NGI      0.151200
      3 O1          4.1310   -0.0010    0.7050 o         1 NGI     -0.381100
      4 C2          1.5300    0.0000    0.0000 c3        1 NGI     -0.021200
      5 N2          7.0780    0.8370    4.3560 na        1 NGI      0.161000
      6 O2          5.2870   -0.0860    3.0710 os        1 NGI     -0.356600
      7 C3          3.3430   -0.0010    1.6270 c         1 NGI      0.320100
      8 N3          9.0070    1.5300    3.6070 nc        1 NGI     -0.441100
      9 O3          4.3690    1.6800    6.0010 oh        1 NGI     -0.529800
     10 C4          3.8460   -0.0010    3.0480 c3        1 NGI      0.108100
     11 N4         11.4380    2.0040    5.4250 nv        1 NGI     -0.466500
     12 O4          2.3390    1.2230    4.5340 oh        1 NGI     -0.564800
     13 C5          5.6760    0.4110    4.3710 c3        1 NGI      0.171800
     14 N5          9.9780    1.3250    7.1460 nb        1 NGI     -0.774000
     15 O5         14.1350    1.0470   18.6570 o         1 NGI     -0.899800
     16 C6          4.7500    1.6210    4.6250 c3        1 NGI      0.126100
     17 N6          8.6160    0.6540    8.9210 nu        1 NGI     -0.465900
     18 O6         15.3760    1.6740   16.9390 o         1 NGI     -0.899800
     19 C7          3.5180    1.3430    3.7350 c3        1 NGI      0.118100
     20 N7          7.7780    0.7040    6.7460 nb        1 NGI     -0.778000
     21 C8          7.7940    1.2150    3.2580 cd        1 NGI      0.189700
     22 C9          9.1440    1.3820    4.9480 ca        1 NGI     -0.308200
     23 C10        10.1980    1.5720    5.8600 ca        1 NGI      0.632200
     24 C11         8.7950    0.8960    7.5690 ca        1 NGI      0.791900
     25 C12         9.7230    0.8720    9.8570 c3        1 NGI      0.155800
     26 C13         9.2640    0.5340   11.2770 c3        1 NGI      0.031900
     27 C14        10.4020    0.7580   12.2390 ca        1 NGI     -0.136300
     28 C15        10.5680    1.9940   12.8360 ca        1 NGI     -0.102000
     29 C16        11.6120    2.2000   13.7180 ca        1 NGI     -0.101000
     30 C17        12.4900    1.1710   14.0030 ca        1 NGI     -0.044300
     31 C18        13.6280    1.3960   14.9660 c3        1 NGI      0.027900
     32 C19        13.1700    1.0570   16.3850 c3        1 NGI     -0.130400
     33 C20        14.3090    1.2820   17.3470 c         1 NGI      0.978600
     34 C21        12.3240   -0.0640   13.4070 ca        1 NGI     -0.101000
     35 C22        11.2760   -0.2730   12.5290 ca        1 NGI     -0.102000
     36 C23         7.9090    0.9330    5.4430 ca        1 NGI      0.336800
     37 H1         -0.3610    0.1190   -1.0140 hc        1 NGI      0.037700
     38 H1A        -0.3610    0.8190    0.6100 hc        1 NGI      0.037700
     39 H1B        -0.3610   -0.9380    0.4040 hc        1 NGI      0.037700
     40 HN1         1.6390   -0.8140    1.8240 hn        1 NGI      0.263300
     41 H2          1.8910    0.8840   -0.5110 hx        1 NGI      0.088700
     42 H2A         1.8910   -0.8850   -0.5110 hx        1 NGI      0.088700
     43 HO3         4.4020    2.5740    6.2980 ho        1 NGI      0.407000
     44 H4          3.4130   -0.8230    3.6070 h1        1 NGI      0.072700
     45 HN4        12.1800    2.1370    6.0820 hn        1 NGI      0.279800
     46 HN4A       11.5920    2.1840    4.4520 hn        1 NGI      0.279800
     47 HO4         1.9070    2.0590    4.5850 ho        1 NGI      0.412000
     48 H5          5.5160   -0.3490    5.1260 h2        1 NGI      0.078700
     49 H6          5.2360    2.5390    4.3200 h1        1 NGI      0.040700
     50 HN6         7.7380    0.3100    9.2560 hn        1 NGI      0.298800
     51 H7          3.4030    2.1260    2.9950 h1        1 NGI      0.007700
     52 H8          7.4100    1.2480    2.2460 h5        1 NGI      0.029800
     53 H12        10.5560    0.2360    9.5850 h1        1 NGI      0.033200
     54 H12A       10.0320    1.9090    9.8150 h1        1 NGI      0.033200
     55 H13         8.9560   -0.5040   11.3190 hc        1 NGI      0.013200
     56 H13A        8.4310    1.1700   11.5480 hc        1 NGI      0.013200
     57 H15         9.8800    2.8010   12.6120 ha        1 NGI      0.092500
     58 H16        11.7430    3.1690   14.1860 ha        1 NGI      0.113000
     59 H18        13.9350    2.4340   14.9240 hc        1 NGI      0.029200
     60 H18A       14.4620    0.7610   14.6940 hc        1 NGI      0.029200
     61 H19        12.8620    0.0190   16.4270 hc        1 NGI      0.007200
     62 H19A       12.3360    1.6930   16.6580 hc        1 NGI      0.007200
     63 H21        13.0100   -0.8710   13.6320 ha        1 NGI      0.113000
     64 H22        11.1460   -1.2410   12.0620 ha        1 NGI      0.092500
     65 H121        1.6390    0.8140    1.8240 hn        1 NGI      0.263300
@<TRIPOS>BOND
     1    1    4 1   
     2    1   37 1   
     3    1   38 1   
     4    1   39 1   
     5    2    4 1   
     6    2    7 1   
     7    2   40 1   
     8    2   65 1   
     9    3    7 2   
    10    4   41 1   
    11    4   42 1   
    12    5   13 1   
    13    5   21 1   
    14    5   36 1   
    15    6   10 1   
    16    6   13 1   
    17    7   10 1   
    18    8   21 2   
    19    8   22 1   
    20    9   16 1   
    21    9   43 1   
    22   10   19 1   
    23   10   44 1   
    24   11   23 1   
    25   11   45 1   
    26   11   46 1   
    27   12   19 1   
    28   12   47 1   
    29   13   16 1   
    30   13   48 1   
    31   14   23 ar  
    32   14   24 ar  
    33   15   33 1   
    34   16   19 1   
    35   16   49 1   
    36   17   24 1   
    37   17   25 1   
    38   17   50 1   
    39   18   33 1   
    40   19   51 1   
    41   20   24 ar  
    42   20   36 ar  
    43   21   52 1   
    44   22   23 ar  
    45   22   36 ar  
    46   25   26 1   
    47   25   53 1   
    48   25   54 1   
    49   26   27 1   
    50   26   55 1   
    51   26   56 1   
    52   27   28 ar  
    53   27   35 ar  
    54   28   29 ar  
    55   28   57 1   
    56   29   30 ar  
    57   29   58 1   
    58   30   31 1   
    59   30   34 ar  
    60   31   32 1   
    61   31   59 1   
    62   31   60 1   
    63   32   33 1   
    64   32   61 1   
    65   32   62 1   
    66   34   35 ar  
    67   34   63 1   
    68   35   64 1   
@<TRIPOS>SUBSTRUCTURE
     1 NGI         1 TEMP              0 ****  ****    0 ROOT
