@<TRIPOS>MOLECULE
NGI
   65    68     1     0     0
SMALL
bcc


@<TRIPOS>ATOM
      1 C1          6.4840    4.6520    7.3150 c3        1 NGI     -0.128100
      2 N1          5.8760    2.3700    6.5260 n         1 NGI     -0.573900
      3 O1          7.1630    1.7010    4.7400 o         1 NGI     -0.571100
      4 C2          6.8880    3.1990    7.1250 c3        1 NGI      0.085000
      5 N2          6.3480   -1.5550    3.4890 na        1 NGI     -0.294000
      6 O2          5.1250    0.4970    3.4470 os        1 NGI     -0.388600
      7 C3          6.0580    1.7440    5.3060 c         1 NGI      0.646100
      8 N3          8.3150   -2.2580    2.4920 nc        1 NGI     -0.530100
      9 O3          2.9180   -1.6140    4.3220 oh        1 NGI     -0.600800
     10 C4          4.8090    1.1010    4.6990 c3        1 NGI      0.036100
     11 N4         10.8080   -2.8890    4.1900 nh        1 NGI     -0.947500
     12 O4          2.8560    0.3740    5.9760 oh        1 NGI     -0.593800
     13 C5          5.0510   -0.9390    3.5210 c3        1 NGI      0.258800
     14 N5          9.5460   -2.1510    6.0680 nb        1 NGI     -0.832000
     15 O5          8.7140    5.7440    9.6340 o         1 NGI     -0.562000
     16 C6          4.2140   -1.2800    4.7900 c3        1 NGI      0.085100
     17 N6          8.2100   -1.6010    7.9760 nh        1 NGI     -0.832900
     18 O6         10.5070    6.6180   10.5860 oh        1 NGI     -0.606100
     19 C7          4.1730    0.0300    5.6090 c3        1 NGI      0.094100
     20 N7          7.1700   -1.4440    5.8550 nb        1 NGI     -0.805000
     21 C8          7.0510   -1.8820    2.2900 cd        1 NGI      0.413700
     22 C9          8.5140   -2.1460    3.8800 ca        1 NGI     -0.259200
     23 C10         9.6430   -2.3850    4.7230 ca        1 NGI      0.782200
     24 C11         8.3280   -1.7210    6.5750 ca        1 NGI      0.924900
     25 C12         9.4010   -1.5670    8.7950 c3        1 NGI      0.203800
     26 C13         9.1020   -1.3350   10.2820 c3        1 NGI     -0.052100
     27 C14         9.4160    0.0480   10.7330 ca        1 NGI     -0.082300
     28 C15         8.9530    1.1680   10.0340 ca        1 NGI     -0.125000
     29 C16         9.2430    2.4540   10.4830 ca        1 NGI     -0.125000
     30 C17        10.0000    2.6470   11.6430 ca        1 NGI     -0.092300
     31 C18        10.3620    4.0060   12.1330 c3        1 NGI     -0.030100
     32 C19         9.2780    5.0510   11.9340 c3        1 NGI     -0.125400
     33 C20         9.4310    5.7840   10.6390 c         1 NGI      0.638100
     34 C21        10.4600    1.5270   12.3460 ca        1 NGI     -0.125000
     35 C22        10.1720    0.2420   11.8960 ca        1 NGI     -0.125000
     36 C23         7.2980   -1.6730    4.5260 ca        1 NGI      0.515800
     37 H1          5.5410    4.7390    7.9070 hc        1 NGI      0.047367
     38 H1A         7.2980    5.1810    7.8710 hc        1 NGI      0.047367
     39 H1B         6.3320    5.1600    6.3330 hc        1 NGI      0.047367
     40 HN1         4.9510    2.4720    6.8690 hn        1 NGI      0.306500
     41 H2          7.1380    2.7600    8.1370 h1        1 NGI      0.058200
     42 H2A         7.8200    3.1510    6.4920 h1        1 NGI      0.058200
     43 HO3         2.4220   -1.9280    5.0900 ho        1 NGI      0.422000
     44 H4          4.0700    1.9160    4.4520 h1        1 NGI      0.089700
     45 HN4        10.9090   -2.8520    3.2040 hn        1 NGI      0.438300
     46 HN4A       11.6300   -2.9070    4.7450 hn        1 NGI      0.438300
     47 HO4         2.3250    0.4120    5.1670 ho        1 NGI      0.416000
     48 H5          4.5010   -1.2420    2.5780 h2        1 NGI      0.111700
     49 H6          4.6420   -2.1260    5.3870 h1        1 NGI      0.096700
     50 HN6         7.4720   -1.0010    8.2810 hn        1 NGI      0.420800
     51 H7          4.7240   -0.0890    6.5810 h1        1 NGI      0.119700
     52 H8          6.5470   -1.8320    1.3170 h5        1 NGI      0.072800
     53 H12        10.1230   -0.7780    8.4350 h1        1 NGI      0.059700
     54 H12A        9.9120   -2.5670    8.6870 h1        1 NGI      0.059700
     55 H13         8.0270   -1.5580   10.5260 hc        1 NGI      0.061700
     56 H13A        9.7200   -2.0690   10.8660 hc        1 NGI      0.061700
     57 H15         8.3600    1.0370    9.1160 ha        1 NGI      0.134000
     58 H16         8.8720    3.3240    9.9140 ha        1 NGI      0.139000
     59 H18        10.5930    3.9510   13.2320 hc        1 NGI      0.065200
     60 H18A       11.3050    4.3400   11.6180 hc        1 NGI      0.065200
     61 H19         8.2610    4.5770   11.9520 hc        1 NGI      0.083700
     62 H19A        9.3340    5.8060   12.7640 hc        1 NGI      0.083700
     63 H21        11.0570    1.6610   13.2610 ha        1 NGI      0.139000
     64 H22        10.5440   -0.6280   12.4590 ha        1 NGI      0.134000
     65 H121       10.5420    7.0540    9.7190 ho        1 NGI      0.446000
@<TRIPOS>BOND
     1    1    4 1   
     2    1   37 1   
     3    1   38 1   
     4    1   39 1   
     5    2    4 1   
     6    2    7 1   
     7    2   40 1   
     8    3    7 2   
     9    4   41 1   
    10    4   42 1   
    11    5   13 1   
    12    5   21 1   
    13    5   36 1   
    14    6   10 1   
    15    6   13 1   
    16    7   10 1   
    17    8   21 2   
    18    8   22 1   
    19    9   16 1   
    20    9   43 1   
    21   10   19 1   
    22   10   44 1   
    23   11   23 1   
    24   11   45 1   
    25   11   46 1   
    26   12   19 1   
    27   12   47 1   
    28   13   16 1   
    29   13   48 1   
    30   14   23 ar  
    31   14   24 ar  
    32   15   33 2   
    33   16   19 1   
    34   16   49 1   
    35   17   24 1   
    36   17   25 1   
    37   17   50 1   
    38   18   33 1   
    39   18   65 1   
    40   19   51 1   
    41   20   24 ar  
    42   20   36 ar  
    43   21   52 1   
    44   22   23 ar  
    45   22   36 ar  
    46   25   26 1   
    47   25   53 1   
    48   25   54 1   
    49   26   27 1   
    50   26   55 1   
    51   26   56 1   
    52   27   28 ar  
    53   27   35 ar  
    54   28   29 ar  
    55   28   57 1   
    56   29   30 ar  
    57   29   58 1   
    58   30   31 1   
    59   30   34 ar  
    60   31   32 1   
    61   31   59 1   
    62   31   60 1   
    63   32   33 1   
    64   32   61 1   
    65   32   62 1   
    66   34   35 ar  
    67   34   63 1   
    68   35   64 1   
@<TRIPOS>SUBSTRUCTURE
     1 NGI         1 TEMP              0 ****  ****    0 ROOT
