@<TRIPOS>MOLECULE
NGJ
   26    27     1     0     0
SMALL
bcc


@<TRIPOS>ATOM
      1 CAL        -0.0360    0.1550    0.1170 c3        1 NGJ     -0.051200
      2 CAI         1.4660    0.1150    0.1080 cc        1 NGJ      0.047400
      3 CAH         2.1730    0.0350    1.2790 cd        1 NGJ     -0.206200
      4 CAE         3.6120   -0.0110    1.2730 ca        1 NGJ     -0.025800
      5 CAD         4.3900   -0.1060    2.4690 ca        1 NGJ      0.122600
      6 NAM         3.7870   -0.0990    3.7340 nh        1 NGJ     -0.810200
      7 CAC         5.7940   -0.1270    2.3610 ca        1 NGJ     -0.166000
      8 CAB         6.4260   -0.0540    1.1200 ca        1 NGJ     -0.117000
      9 CAA         5.6790    0.0270   -0.0450 ca        1 NGJ     -0.105000
     10 CAF         4.2790    0.0450    0.0340 ca        1 NGJ     -0.124600
     11 CAG         3.5060    0.1280   -1.2220 c         1 NGJ      0.704100
     12 OAK         4.0140    0.1770   -2.3600 o         1 NGJ     -0.641500
     13 NAJ         2.1120    0.1470   -1.1200 n         1 NGJ     -0.451100
     14 CAN        -0.5820    1.4310   -0.4740 c3        1 NGJ     -0.097100
     15 HAL1       -0.4350   -0.7290   -0.4520 hc        1 NGJ      0.059700
     16 HAL2       -0.3920    0.0530    1.1780 hc        1 NGJ      0.059700
     17 HAN1       -0.3440    1.5080   -1.5620 hc        1 NGJ      0.042367
     18 HAN2       -0.1530    2.3220    0.0440 hc        1 NGJ      0.042367
     19 HAN3       -1.6930    1.4560   -0.3580 hc        1 NGJ      0.042367
     20 HAH         1.6230    0.0310    2.2290 ha        1 NGJ      0.142000
     21 HAJ         1.5720    0.2160   -1.9530 hn        1 NGJ      0.331500
     22 HAM1        4.3810   -0.4360    4.4610 hn        1 NGJ      0.386300
     23 HAM2        2.8820   -0.5150    3.7590 hn        1 NGJ      0.386300
     24 HAC         6.4140   -0.1950    3.2690 ha        1 NGJ      0.133000
     25 HAB         7.5250   -0.0660    1.0710 ha        1 NGJ      0.137000
     26 HAA         6.1610    0.0770   -1.0340 ha        1 NGJ      0.159000
@<TRIPOS>BOND
     1    1    2 1   
     2    1   14 1   
     3    1   15 1   
     4    1   16 1   
     5    2    3 2   
     6    2   13 1   
     7    3    4 1   
     8    3   20 1   
     9    4    5 ar  
    10    4   10 ar  
    11    5    6 1   
    12    5    7 ar  
    13    6   22 1   
    14    6   23 1   
    15    7    8 ar  
    16    7   24 1   
    17    8    9 ar  
    18    8   25 1   
    19    9   10 ar  
    20    9   26 1   
    21   10   11 1   
    22   11   12 2   
    23   11   13 1   
    24   13   21 1   
    25   14   17 1   
    26   14   18 1   
    27   14   19 1   
@<TRIPOS>SUBSTRUCTURE
     1 NGJ         1 TEMP              0 ****  ****    0 ROOT
