@<TRIPOS>MOLECULE
NGJ
   26    27     1     0     0
SMALL
bcc


@<TRIPOS>ATOM
      1 CAL        -0.0340    0.1630    0.1130 c3        1 NGJ     -0.051200
      2 CAI         1.4680    0.1200    0.1070 cc        1 NGJ      0.047400
      3 CAH         2.1730    0.0350    1.2780 cd        1 NGJ     -0.206200
      4 CAE         3.6120   -0.0140    1.2750 ca        1 NGJ     -0.025800
      5 CAD         4.3880   -0.1150    2.4720 ca        1 NGJ      0.122600
      6 NAM         3.7820   -0.1100    3.7360 nv        1 NGJ     -0.810200
      7 CAC         5.7920   -0.1380    2.3670 ca        1 NGJ     -0.166000
      8 CAB         6.4260   -0.0620    1.1270 ca        1 NGJ     -0.117000
      9 CAA         5.6820    0.0240   -0.0390 ca        1 NGJ     -0.105000
     10 CAF         4.2820    0.0450    0.0370 ca        1 NGJ     -0.124600
     11 CAG         3.5110    0.1340   -1.2190 c         1 NGJ      0.704100
     12 OAK         4.0210    0.1860   -2.3570 o         1 NGJ     -0.641500
     13 NAJ         2.1170    0.1550   -1.1200 ns        1 NGJ     -0.451100
     14 CAN        -0.5760    1.4410   -0.4770 c3        1 NGJ     -0.097100
     15 HAL1       -0.3910    0.0590    1.1720 hc        1 NGJ      0.059700
     16 HAL2       -0.4320   -0.7190   -0.4590 hc        1 NGJ      0.059700
     17 HAN1       -0.1460    2.3310    0.0430 hc        1 NGJ      0.042367
     18 HAN2       -0.3360    1.5200   -1.5650 hc        1 NGJ      0.042367
     19 HAN3       -1.6870    1.4680   -0.3620 hc        1 NGJ      0.042367
     20 HAH         1.6210    0.0290    2.2270 ha        1 NGJ      0.142000
     21 HAJ         1.5790    0.2280   -1.9540 hn        1 NGJ      0.331500
     22 HAM1        4.3740   -0.4510    4.4630 hn        1 NGJ      0.386300
     23 HAM2        2.8760   -0.5240    3.7580 hn        1 NGJ      0.386300
     24 HAC         6.4100   -0.2100    3.2760 ha        1 NGJ      0.133000
     25 HAB         7.5250   -0.0760    1.0800 ha        1 NGJ      0.137000
     26 HAA         6.1660    0.0770   -1.0270 ha        1 NGJ      0.159000
@<TRIPOS>BOND
     1    1    2 1   
     2    1   14 1   
     3    1   15 1   
     4    1   16 1   
     5    2    3 2   
     6    2   13 1   
     7    3    4 1   
     8    3   20 1   
     9    4    5 ar  
    10    4   10 ar  
    11    5    6 1   
    12    5    7 ar  
    13    6   22 1   
    14    6   23 1   
    15    7    8 ar  
    16    7   24 1   
    17    8    9 ar  
    18    8   25 1   
    19    9   10 ar  
    20    9   26 1   
    21   10   11 1   
    22   11   12 2   
    23   11   13 1   
    24   13   21 1   
    25   14   17 1   
    26   14   18 1   
    27   14   19 1   
@<TRIPOS>SUBSTRUCTURE
     1 NGJ         1 TEMP              0 ****  ****    0 ROOT
