@<TRIPOS>MOLECULE
NGK
   34    34     1     0     0
SMALL
bcc


@<TRIPOS>ATOM
      1 C1         -0.5080   -0.0770   -0.1560 c3        1 NGK      0.345900
      2 C2          0.9980   -0.4170   -0.0510 c3        1 NGK      0.051500
      3 C3          1.3500   -0.6380    1.4460 c3        1 NGK      0.113100
      4 C4          1.1030    0.7400    2.1020 c3        1 NGK      0.179100
      5 C5         -0.4040    1.0290    2.0040 c3        1 NGK      0.086100
      6 C6         -0.7260    2.4480    2.5050 c3        1 NGK      0.152400
      7 C7          2.3580   -1.2460   -1.9760 c         1 NGK      0.562100
      8 C8          3.6260   -0.5910   -1.5500 c3        1 NGK     -0.192100
      9 N           1.3790   -1.6040   -0.8840 n4        1 NGK     -0.664800
     10 O1         -1.2400   -1.2230    0.2270 oh        1 NGK     -0.670800
     11 O3          2.6620   -1.1260    1.5530 oh        1 NGK     -0.651800
     12 O4          1.8430    1.6890    1.4250 os        1 NGK     -0.621500
     13 O5         -0.9090    0.9850    0.6590 os        1 NGK     -0.414600
     14 O6         -0.4190    2.5470    3.8740 oh        1 NGK     -0.614800
     15 O7          2.0000   -1.5420   -3.1080 o         1 NGK     -0.449100
     16 S           3.2020    2.5080    2.1930 s6        1 NGK      1.720300
     17 O1S         3.9990    1.3710    2.3200 o         1 NGK     -0.735867
     18 O2S         3.5490    3.4090    1.2130 o         1 NGK     -0.735867
     19 O3S         2.5570    2.9450    3.3380 o         1 NGK     -0.735867
     20 H1         -0.7910    0.2350   -1.2050 h2        1 NGK      0.083700
     21 H2          1.5770    0.4920   -0.4100 hx        1 NGK      0.157700
     22 H3          0.6760   -1.4240    1.8880 h1        1 NGK      0.081700
     23 H4          1.3940    0.6950    3.1920 h1        1 NGK      0.084700
     24 H5         -0.9630    0.2590    2.6060 h1        1 NGK      0.051700
     25 H6C1       -1.8290    2.6340    2.4210 h1        1 NGK      0.062700
     26 H6C2       -0.1580    3.1930    1.8900 h1        1 NGK      0.062700
     27 H8C1        3.5520    0.5110   -1.7590 hc        1 NGK      0.121367
     28 H8C2        3.8460   -0.7250   -0.4570 hc        1 NGK      0.121367
     29 H8C3        4.4670   -1.0120   -2.1580 hc        1 NGK      0.121367
     30 H           0.5360   -2.0360   -1.2810 hn        1 NGK      0.466800
     31 HA         -2.0890   -0.9310    0.5880 ho        1 NGK      0.452000
     32 HB          3.2520   -0.4070    1.8580 ho        1 NGK      0.490000
     33 H6          0.5260    2.7660    3.9510 ho        1 NGK      0.452000
     34 HN3         1.8380   -2.2850   -0.2580 hn        1 NGK      0.466800
@<TRIPOS>BOND
     1    1    2 1   
     2    1   10 1   
     3    1   13 1   
     4    1   20 1   
     5    2    3 1   
     6    2    9 1   
     7    2   21 1   
     8    3    4 1   
     9    3   11 1   
    10    3   22 1   
    11    4    5 1   
    12    4   12 1   
    13    4   23 1   
    14    5    6 1   
    15    5   13 1   
    16    5   24 1   
    17    6   14 1   
    18    6   25 1   
    19    6   26 1   
    20    7    8 1   
    21    7    9 1   
    22    7   15 2   
    23    8   27 1   
    24    8   28 1   
    25    8   29 1   
    26    9   30 1   
    27    9   34 1   
    28   10   31 1   
    29   11   32 1   
    30   12   16 1   
    31   14   33 1   
    32   16   17 1   
    33   16   18 1   
    34   16   19 1   
@<TRIPOS>SUBSTRUCTURE
     1 NGK         1 TEMP              0 ****  ****    0 ROOT
