@<TRIPOS>MOLECULE
NGK
   34    34     1     0     0
SMALL
bcc


@<TRIPOS>ATOM
      1 C1         -0.5010   -0.1740   -0.1170 c3        1 NGK      0.345900
      2 C2          1.0180   -0.4520   -0.0240 c3        1 NGK      0.051500
      3 C3          1.3990   -0.6170    1.4740 c3        1 NGK      0.113100
      4 C4          1.1050    0.7680    2.0960 c3        1 NGK      0.179100
      5 C5         -0.4130    0.9940    2.0110 c3        1 NGK      0.086100
      6 C6         -0.7840    2.4130    2.4780 c3        1 NGK      0.152400
      7 C7          2.3860   -1.2790   -1.9440 c         1 NGK      0.562100
      8 C8          3.6320   -0.5620   -1.5540 c3        1 NGK     -0.192100
      9 N           1.4370   -1.6450   -0.8290 n4        1 NGK     -0.664800
     10 O1         -1.1810   -1.3370    0.3080 oh        1 NGK     -0.670800
     11 O3          2.7310   -1.0500    1.5750 oh        1 NGK     -0.651800
     12 O4          1.7990    1.7260    1.3830 os        1 NGK     -0.621500
     13 O5         -0.9330    0.8930    0.6750 os        1 NGK     -0.414600
     14 O6         -0.4640    2.5620    3.8390 oh        1 NGK     -0.614800
     15 O7          2.0250   -1.6200   -3.0630 o         1 NGK     -0.449100
     16 S           3.1340    2.6190    2.1100 s6        1 NGK      1.720300
     17 O1S         3.9770    1.5180    2.2550 o         1 NGK     -0.735867
     18 O2S         3.4320    3.5060    1.1010 o         1 NGK     -0.735867
     19 O3S         2.4870    3.0620    3.2510 o         1 NGK     -0.735867
     20 H1         -0.8090    0.0980   -1.1690 h2        1 NGK      0.083700
     21 H2          1.5570    0.4690   -0.4150 hx        1 NGK      0.157700
     22 H3          0.7620   -1.4170    1.9460 h1        1 NGK      0.081700
     23 H4          1.4120    0.7640    3.1830 h1        1 NGK      0.084700
     24 H5         -0.9330    0.2200    2.6410 h1        1 NGK      0.051700
     25 H6C1       -1.8950    2.5530    2.4040 h1        1 NGK      0.062700
     26 H6C2       -0.2540    3.1630    1.8350 h1        1 NGK      0.062700
     27 H8C1        3.8710   -0.6580   -0.4620 hc        1 NGK      0.121367
     28 H8C2        3.5110    0.5300   -1.7920 hc        1 NGK      0.121367
     29 H8C3        4.4820   -0.9670   -2.1620 hc        1 NGK      0.121367
     30 H           0.6060   -2.1210   -1.2030 hn        1 NGK      0.466800
     31 HA         -2.0370   -1.0690    0.6720 ho        1 NGK      0.452000
     32 HB          3.2950   -0.3000    1.8530 ho        1 NGK      0.490000
     33 H6          0.4730    2.8200    3.8970 ho        1 NGK      0.452000
     34 HN3         1.9300   -2.2890   -0.1920 hn        1 NGK      0.466800
@<TRIPOS>BOND
     1    1    2 1   
     2    1   10 1   
     3    1   13 1   
     4    1   20 1   
     5    2    3 1   
     6    2    9 1   
     7    2   21 1   
     8    3    4 1   
     9    3   11 1   
    10    3   22 1   
    11    4    5 1   
    12    4   12 1   
    13    4   23 1   
    14    5    6 1   
    15    5   13 1   
    16    5   24 1   
    17    6   14 1   
    18    6   25 1   
    19    6   26 1   
    20    7    8 1   
    21    7    9 1   
    22    7   15 2   
    23    8   27 1   
    24    8   28 1   
    25    8   29 1   
    26    9   30 1   
    27    9   34 1   
    28   10   31 1   
    29   11   32 1   
    30   12   16 1   
    31   14   33 1   
    32   16   17 1   
    33   16   18 1   
    34   16   19 1   
@<TRIPOS>SUBSTRUCTURE
     1 NGK         1 TEMP              0 ****  ****    0 ROOT
