@<TRIPOS>MOLECULE
NGK
   34    34     1     0     0
SMALL
bcc


@<TRIPOS>ATOM
      1 C1         -0.5040   -0.0310   -0.1860 c3        1 NGK      0.345900
      2 C2          0.9930   -0.4050   -0.0630 c3        1 NGK      0.051500
      3 C3          1.3190   -0.6460    1.4370 c3        1 NGK      0.113100
      4 C4          1.0920    0.7320    2.1020 c3        1 NGK      0.179100
      5 C5         -0.4060    1.0540    1.9860 c3        1 NGK      0.086100
      6 C6         -0.7040    2.4760    2.4940 c3        1 NGK      0.152400
      7 C7          2.3620   -1.2460   -1.9750 c         1 NGK      0.562100
      8 C8          3.6380   -0.6220   -1.5270 c3        1 NGK     -0.192100
      9 N           1.3610   -1.5930   -0.9000 ny        1 NGK     -0.664800
     10 O1         -1.2660   -1.1640    0.1770 oh        1 NGK     -0.670800
     11 O3          2.6190   -1.1630    1.5580 oh        1 NGK     -0.651800
     12 O4          1.8630    1.6700    1.4430 os        1 NGK     -0.621500
     13 O5         -0.8930    1.0330    0.6330 os        1 NGK     -0.414600
     14 O6         -0.4140    2.5570    3.8680 oh        1 NGK     -0.614800
     15 O7          2.0140   -1.5240   -3.1150 o         1 NGK     -0.449100
     16 S           3.2280    2.4540    2.2370 s6        1 NGK      1.720300
     17 O1S         3.9990    1.2980    2.3640 o         1 NGK     -0.735867
     18 O2S         3.6080    3.3550    1.2700 o         1 NGK     -0.735867
     19 O3S         2.5770    2.8940    3.3770 o         1 NGK     -0.735867
     20 H1         -0.7650    0.2960   -1.2360 h2        1 NGK      0.083700
     21 H2          1.5970    0.4950   -0.4060 hx        1 NGK      0.157700
     22 H3          0.6220   -1.4200    1.8630 h1        1 NGK      0.081700
     23 H4          1.3670    0.6710    3.1960 h1        1 NGK      0.084700
     24 H5         -0.9900    0.2920    2.5720 h1        1 NGK      0.051700
     25 H6C1       -1.8020    2.6860    2.3960 h1        1 NGK      0.062700
     26 H6C2       -0.1120    3.2140    1.8930 h1        1 NGK      0.062700
     27 H8C1        4.4780   -1.0560   -2.1260 hc        1 NGK      0.121367
     28 H8C2        3.5900    0.4830   -1.7260 hc        1 NGK      0.121367
     29 H8C3        3.8390   -0.7710   -0.4320 hc        1 NGK      0.121367
     30 H           1.7960   -2.2880   -0.2740 hn        1 NGK      0.466800
     31 HA         -2.1130   -0.8570    0.5290 ho        1 NGK      0.452000
     32 HB          3.2200   -0.4590    1.8770 ho        1 NGK      0.490000
     33 H6          0.5340    2.7550    3.9600 ho        1 NGK      0.452000
     34 HN3         0.5140   -2.0030   -1.3130 hn        1 NGK      0.466800
@<TRIPOS>BOND
     1    1    2 1   
     2    1   10 1   
     3    1   13 1   
     4    1   20 1   
     5    2    3 1   
     6    2    9 1   
     7    2   21 1   
     8    3    4 1   
     9    3   11 1   
    10    3   22 1   
    11    4    5 1   
    12    4   12 1   
    13    4   23 1   
    14    5    6 1   
    15    5   13 1   
    16    5   24 1   
    17    6   14 1   
    18    6   25 1   
    19    6   26 1   
    20    7    8 1   
    21    7    9 1   
    22    7   15 2   
    23    8   27 1   
    24    8   28 1   
    25    8   29 1   
    26    9   30 1   
    27    9   34 1   
    28   10   31 1   
    29   11   32 1   
    30   12   16 1   
    31   14   33 1   
    32   16   17 1   
    33   16   18 1   
    34   16   19 1   
@<TRIPOS>SUBSTRUCTURE
     1 NGK         1 TEMP              0 ****  ****    0 ROOT
