@<TRIPOS>MOLECULE
NGK
   33    31     1     0     0
SMALL
bcc


@<TRIPOS>ATOM
      1 C1         -1.1030    1.0470   -1.2130 c3        1 NGK      0.135000
      2 C2          0.3550    0.7810   -1.1070 c3        1 NGK     -0.014000
      3 C3          0.7500    0.5700    0.2410 c3        1 NGK      0.022000
      4 C4          0.0040   -0.1340    1.1910 c3        1 NGK      0.058000
      5 C5         -1.4830    0.1590    1.0590 c3        1 NGK     -0.024000
      6 C6         -2.0440    0.2530    2.3490 c3        1 NGK      0.001000
      7 C7          1.3780   -0.3150   -3.1410 c1        1 NGK      0.306000
      8 C8          1.7130   -1.5490   -3.9500 c2        1 NGK     -0.244000
      9 N           0.6860   -0.4420   -1.9080 n3        1 NGK     -0.343000
     10 O1         -1.6950   -0.0310   -1.6220 oh        1 NGK     -0.373000
     11 O3          0.9790    2.0490    0.8680 oh        1 NGK     -0.348000
     12 O4          0.4520    0.2590    2.5420 os        1 NGK     -0.746000
     13 O5         -1.8040    1.5320    0.2470 os        1 NGK     -0.306000
     14 O6         -3.4370    0.4460    2.2440 oh        1 NGK     -0.366000
     15 O7          1.7020    0.7840   -3.5460 o         1 NGK     -0.384000
     16 S           1.3200   -0.7380    3.2660 s4        1 NGK      2.104800
     17 O1S         1.5690   -0.3130    4.6940 o         1 NGK     -0.665900
     18 O2S         0.7000   -2.1130    3.2040 os        1 NGK     -1.095000
     19 O3S         2.7250   -0.7450    2.7130 o         1 NGK     -0.665900
     20 H1         -1.2440    1.7520   -1.8760 h2        1 NGK      0.113000
     21 H2          0.8470    1.5440   -1.4690 h1        1 NGK      0.144000
     22 H3          1.6270    0.1360    0.2040 h1        1 NGK      0.108000
     23 H4          0.1530   -1.0920    1.0700 h1        1 NGK      0.087000
     24 H5         -1.9060   -0.5870    0.5890 h1        1 NGK      0.072000
     25 H6C1       -1.6440    1.0120    2.8240 h1        1 NGK      0.097500
     26 H6C2       -1.8650   -0.5740    2.8450 h1        1 NGK      0.097500
     27 H8C1        0.8890   -2.0360   -4.1590 ha        1 NGK      0.099333
     28 H8C2        2.1560   -1.2830   -4.7830 ha        1 NGK      0.099333
     29 H8C3        2.3110   -2.1270   -3.4320 ha        1 NGK      0.099333
     30 H           0.4080   -1.2620   -1.6240 hn        1 NGK      0.221000
     31 HA         -2.4770    0.1810   -1.9900 ho        1 NGK      0.217000
     32 HB          1.7710    2.3600    0.6130 ho        1 NGK      0.243000
     33 H6         -3.7940    0.4770    3.0570 ho        1 NGK      0.251000
@<TRIPOS>BOND
     1    1    2 1   
     2    1   10 1   
     3    1   13 1   
     4    1   20 1   
     5    2    3 1   
     6    2    9 1   
     7    2   21 1   
     8    3    4 1   
     9    3   11 1   
    10    3   22 1   
    11    4    5 1   
    12    4   12 1   
    13    4   23 1   
    14    5    6 1   
    15    5   13 1   
    16    5   24 1   
    17    6   14 1   
    18    6   25 1   
    19    6   26 1   
    20    7    9 1   
    21    7   15 1   
    22    8   27 1   
    23    8   28 1   
    24    8   29 1   
    25    9   30 1   
    26   10   31 1   
    27   11   32 1   
    28   12   16 1   
    29   14   33 1   
    30   16   17 1   
    31   16   19 1   
@<TRIPOS>SUBSTRUCTURE
     1 NGK         1 TEMP              0 ****  ****    0 ROOT
