@<TRIPOS>MOLECULE
NGK
   33    33     1     0     0
SMALL
bcc


@<TRIPOS>ATOM
      1 C1          1.5610    0.1910    1.5650 c3        1 NGK      0.325900
      2 C2          0.0440   -0.1180    1.5870 c3        1 NGK      0.066700
      3 C3         -0.2190   -1.2860    0.6020 c3        1 NGK      0.119100
      4 C4          0.2210   -0.8270   -0.8050 c3        1 NGK      0.177100
      5 C5          1.7120   -0.4560   -0.7540 c3        1 NGK      0.097100
      6 C6          2.1540    0.2040   -2.0620 c3        1 NGK      0.132400
      7 C7         -0.4450    0.5060    3.9410 c         1 NGK      0.657100
      8 C8         -1.1800    0.1170    5.2060 c3        1 NGK     -0.174100
      9 N          -0.4710   -0.3930    2.9050 n         1 NGK     -0.542900
     10 O1          2.2900   -0.9400    1.9980 oh        1 NGK     -0.635800
     11 O3         -1.5650   -1.7010    0.6450 oh        1 NGK     -0.629800
     12 O4         -0.5560    0.2430   -1.2150 os        1 NGK     -0.609500
     13 O5          2.0450    0.4860    0.2740 os        1 NGK     -0.458600
     14 O6          3.5500    0.4430   -2.0680 oh        1 NGK     -0.620800
     15 O7          0.1720    1.5920    3.8730 o         1 NGK     -0.638100
     16 S          -1.7000    0.1110   -2.5280 s6        1 NGK      1.702300
     17 O1S        -1.8650    1.4310   -2.9090 o         1 NGK     -0.745533
     18 O2S        -2.7500   -0.4850   -1.8310 o         1 NGK     -0.745533
     19 O3S        -1.0070   -0.7190   -3.4050 o         1 NGK     -0.745533
     20 H1          1.8010    1.1040    2.1830 h2        1 NGK      0.091700
     21 H2         -0.4610    0.8100    1.1740 h1        1 NGK      0.102700
     22 H3          0.3800   -2.1870    0.9150 h1        1 NGK      0.069700
     23 H4          0.1010   -1.6940   -1.5210 h1        1 NGK      0.060700
     24 H5          2.3100   -1.3910   -0.5590 h1        1 NGK      0.038700
     25 H6C1        1.9600   -0.4910   -2.9210 h1        1 NGK      0.075200
     26 H6C2        1.5890    1.1620   -2.2080 h1        1 NGK      0.075200
     27 H8C1       -1.0500    0.9300    5.9600 hc        1 NGK      0.056700
     28 H8C2       -2.2680   -0.0160    4.9980 hc        1 NGK      0.056700
     29 H8C3       -0.7690   -0.8340    5.6210 hc        1 NGK      0.056700
     30 H          -1.0170   -1.2200    2.9880 hn        1 NGK      0.322500
     31 HA          3.2230   -0.7440    1.8510 ho        1 NGK      0.404000
     32 HB         -2.0810   -1.1250    0.0520 ho        1 NGK      0.457000
     33 H6          3.7300    1.0300   -1.3240 ho        1 NGK      0.402000
@<TRIPOS>BOND
     1    1    2 1   
     2    1   10 1   
     3    1   13 1   
     4    1   20 1   
     5    2    3 1   
     6    2    9 1   
     7    2   21 1   
     8    3    4 1   
     9    3   11 1   
    10    3   22 1   
    11    4    5 1   
    12    4   12 1   
    13    4   23 1   
    14    5    6 1   
    15    5   13 1   
    16    5   24 1   
    17    6   14 1   
    18    6   25 1   
    19    6   26 1   
    20    7    8 1   
    21    7    9 1   
    22    7   15 2   
    23    8   27 1   
    24    8   28 1   
    25    8   29 1   
    26    9   30 1   
    27   10   31 1   
    28   11   32 1   
    29   12   16 1   
    30   14   33 1   
    31   16   17 1   
    32   16   18 1   
    33   16   19 1   
@<TRIPOS>SUBSTRUCTURE
     1 NGK         1 TEMP              0 ****  ****    0 ROOT
