@<TRIPOS>MOLECULE
NGL
   33    33     1     0     0
SMALL
bcc


@<TRIPOS>ATOM
      1 C1          1.7160   -0.4620    1.5570 c3        1 NGL      0.344900
      2 C2          0.1640   -0.4130    1.5970 c3        1 NGL      0.000700
      3 C3         -0.3250   -1.4260    0.5300 c3        1 NGL      0.121100
      4 C4          0.1650   -0.9350   -0.8510 c3        1 NGL      0.175100
      5 C5          1.6960   -0.7680   -0.8130 c3        1 NGL      0.100100
      6 C6          2.1950   -0.0390   -2.0630 c3        1 NGL      0.134400
      7 C7         -0.5100    0.3360    3.8420 c         1 NGL      0.652100
      8 C8         -1.3440    0.0400    5.0670 c3        1 NGL     -0.174100
      9 N          -0.3760   -0.6780    2.9110 n         1 NGL     -0.532900
     10 O1          2.3500    0.4160    2.4390 oh        1 NGL     -0.594800
     11 O3         -1.7210   -1.5970    0.5910 oh        1 NGL     -0.629800
     12 O4         -0.4670    0.2540   -1.1700 os        1 NGL     -0.606500
     13 O5          2.1670    0.0090    0.2910 os        1 NGL     -0.454600
     14 O6          3.6090   -0.0400   -2.1200 oh        1 NGL     -0.620800
     15 O7          0.0720    1.4330    3.7130 o         1 NGL     -0.622100
     16 S          -1.6150    0.3690   -2.4840 s6        1 NGL      1.702300
     17 O1S        -1.6020    1.7230   -2.7730 o         1 NGL     -0.744533
     18 O2S        -1.0360   -0.4850   -3.4170 o         1 NGL     -0.744533
     19 O3S        -2.7350   -0.1290   -1.8190 o         1 NGL     -0.744533
     20 H1          2.1230   -1.4880    1.7740 h2        1 NGL      0.056700
     21 H2         -0.1480    0.6250    1.2600 h1        1 NGL      0.107700
     22 H3          0.1040   -2.4450    0.7450 h1        1 NGL      0.047700
     23 H4         -0.0800   -1.7270   -1.6210 h1        1 NGL      0.059700
     24 H5          2.1660   -1.7900   -0.7430 h1        1 NGL      0.028700
     25 H61         1.8500   -0.5820   -2.9820 h1        1 NGL      0.075700
     26 H62         1.8000    1.0110   -2.0650 h1        1 NGL      0.075700
     27 H81        -1.3080    0.9230    5.7490 hc        1 NGL      0.058367
     28 H82        -2.4040   -0.1530    4.7760 hc        1 NGL      0.058367
     29 H83        -0.9450   -0.8530    5.6060 hc        1 NGL      0.058367
     30 HN         -1.0310   -1.4280    2.9480 hn        1 NGL      0.310500
     31 HO1         1.8900    1.2680    2.3960 ho        1 NGL      0.435000
     32 HO3        -2.1380   -0.9200    0.0270 ho        1 NGL      0.461000
     33 HO6         3.9170    0.3880   -1.3110 ho        1 NGL      0.406000
@<TRIPOS>BOND
     1    1    2 1   
     2    1   10 1   
     3    1   13 1   
     4    1   20 1   
     5    2    3 1   
     6    2    9 1   
     7    2   21 1   
     8    3    4 1   
     9    3   11 1   
    10    3   22 1   
    11    4    5 1   
    12    4   12 1   
    13    4   23 1   
    14    5    6 1   
    15    5   13 1   
    16    5   24 1   
    17    6   14 1   
    18    6   25 1   
    19    6   26 1   
    20    7    8 1   
    21    7    9 1   
    22    7   15 2   
    23    8   27 1   
    24    8   28 1   
    25    8   29 1   
    26    9   30 1   
    27   10   31 1   
    28   11   32 1   
    29   12   16 1   
    30   14   33 1   
    31   16   17 1   
    32   16   18 1   
    33   16   19 1   
@<TRIPOS>SUBSTRUCTURE
     1 NGL         1 TEMP              0 ****  ****    0 ROOT
