@<TRIPOS>MOLECULE
NGL
   33    31     1     0     0
SMALL
bcc


@<TRIPOS>ATOM
      1 C1         -1.4490   -0.5320   -0.7850 c3        1 NGL      0.162000
      2 C2          0.0580   -0.5310   -0.8080 c3        1 NGL     -0.076000
      3 C3          0.6400   -0.5380    0.5530 c3        1 NGL      0.010000
      4 C4          0.0720    0.5540    1.4240 c3        1 NGL      0.064000
      5 C5         -1.4390    0.5500    1.4390 c3        1 NGL     -0.011000
      6 C6         -1.9150    1.7610    2.1650 c3        1 NGL     -0.016000
      7 C7          1.1670   -1.5710   -2.8280 c1        1 NGL      0.296000
      8 C8          1.6950   -2.7990   -3.5560 c2        1 NGL     -0.242000
      9 N           0.5220   -1.7160   -1.5300 n3        1 NGL     -0.342000
     10 O1         -1.9150   -0.3590   -2.0670 oh        1 NGL     -0.322000
     11 O3          2.0860   -0.3560    0.4500 oh        1 NGL     -0.357000
     12 O4          0.5270    1.8270    0.9290 os        1 NGL     -0.744000
     13 O5         -2.0120    0.5530    0.0920 os        1 NGL     -0.311000
     14 O6         -3.3110    1.6770    2.3500 oh        1 NGL     -0.348000
     15 O7          1.3210   -0.4600   -3.3140 o         1 NGL     -0.383000
     16 S           1.5610    2.5390    1.7700 s4        1 NGL      2.096800
     17 O1S         1.2740    4.0270    1.8490 o         1 NGL     -0.669900
     18 O2S         2.9160    2.5370    1.0940 o         1 NGL     -0.669900
     19 O3S         1.6330    1.9220    3.1450 os        1 NGL     -1.079000
     20 H1         -1.7550   -1.3910   -0.4530 h2        1 NGL      0.096000
     21 H2          0.3610    0.2590   -1.2730 h1        1 NGL      0.147000
     22 H3          0.4590   -1.3990    0.9680 h1        1 NGL      0.087000
     23 H4          0.4010    0.4300    2.3460 h1        1 NGL      0.099000
     24 H5         -1.7490   -0.2410    1.9110 h1        1 NGL      0.068000
     25 H61        -1.7020    2.5630    1.6410 h1        1 NGL      0.115000
     26 H62        -1.4710    1.8140    3.0390 h1        1 NGL      0.115000
     27 H81         2.4830   -3.1500   -3.0790 ha        1 NGL      0.097667
     28 H82         0.9940   -3.4890   -3.5840 ha        1 NGL      0.097667
     29 H83         1.9520   -2.5500   -4.4810 ha        1 NGL      0.097667
     30 HN          0.4280   -2.5580   -1.1500 hn        1 NGL      0.224000
     31 HO1        -2.7640   -0.6450   -2.1190 ho        1 NGL      0.234000
     32 HO3         2.4950   -0.9900    0.9080 ho        1 NGL      0.260000
     33 HO6        -3.5620    2.2600    2.9520 ho        1 NGL      0.205000
@<TRIPOS>BOND
     1    1    2 1   
     2    1   10 1   
     3    1   13 1   
     4    1   20 1   
     5    2    3 1   
     6    2    9 1   
     7    2   21 1   
     8    3    4 1   
     9    3   11 1   
    10    3   22 1   
    11    4    5 1   
    12    4   12 1   
    13    4   23 1   
    14    5    6 1   
    15    5   13 1   
    16    5   24 1   
    17    6   14 1   
    18    6   25 1   
    19    6   26 1   
    20    7    9 1   
    21    7   15 1   
    22    8   27 1   
    23    8   28 1   
    24    8   29 1   
    25    9   30 1   
    26   10   31 1   
    27   11   32 1   
    28   12   16 1   
    29   14   33 1   
    30   16   17 1   
    31   16   18 1   
@<TRIPOS>SUBSTRUCTURE
     1 NGL         1 TEMP              0 ****  ****    0 ROOT
