@<TRIPOS>MOLECULE
NGO
   28    28     1     0     0
SMALL
bcc


@<TRIPOS>ATOM
      1 C1         -0.9750    0.4980   -0.7890 c3        1 NGO      0.157000
      2 C2          0.6990    0.4980   -0.7890 c3        1 NGO     -0.058000
      3 C3          1.2850    0.4980    0.6210 c3        1 NGO      0.030000
      4 C4          0.7100   -0.5500    1.4620 c3        1 NGO     -0.031000
      5 C5         -0.9570   -0.5240    1.4580 c3        1 NGO     -0.044000
      6 C6         -1.3940    0.6250    2.1210 c3        1 NGO     -0.017000
      7 C7          0.0210   -0.6250   -2.2900 c1        1 NGO      0.312000
      8 C8          0.4020   -0.8330   -3.7400 c2        1 NGO     -0.221000
      9 N2          0.9530   -0.4260   -1.3900 n3        1 NGO     -0.246000
     10 O1         -1.2310    0.1730   -1.9370 os        1 NGO     -0.195000
     11 O3          1.0280    1.7820    1.2340 oh        1 NGO     -0.306000
     12 O4          1.1380   -1.7730    1.0040 oh        1 NGO     -0.351000
     13 O5         -1.5320   -0.5360    0.0760 os        1 NGO     -0.203000
     14 O6         -2.7510    0.4750    2.4780 oh        1 NGO     -0.323000
     15 HC1        -1.3360    1.3800   -0.5780 h2        1 NGO      0.215000
     16 HC2         1.0180    1.2870   -1.2670 h1        1 NGO      0.182000
     17 HC3         2.2500    0.3620    0.5630 h1        1 NGO      0.125000
     18 HC4         1.0250   -0.4280    2.3770 h1        1 NGO      0.137000
     19 HC5        -1.2830   -1.3080    1.9400 h1        1 NGO      0.101000
     20 HC61       -1.2960    1.3980    1.5320 h1        1 NGO      0.120000
     21 HC62       -0.8590    0.7600    2.9260 h1        1 NGO      0.120000
     22 HC81       -0.3680   -1.1750   -4.2330 ha        1 NGO      0.161667
     23 HC82        1.1350   -1.4750   -3.7950 ha        1 NGO      0.161667
     24 HC83        0.6850    0.0180   -4.1270 ha        1 NGO      0.161667
     25 HN          1.3540   -1.1380   -0.9850 hn        1 NGO      0.308000
     26 HO3         1.7950    2.2120    1.3540 ho        1 NGO      0.241000
     27 HO4         1.4480   -2.2520    1.6840 ho        1 NGO      0.244000
     28 HO6        -2.9640    1.0790    3.0920 ho        1 NGO      0.219000
@<TRIPOS>BOND
     1    1    2 1   
     2    1   10 1   
     3    1   13 1   
     4    1   15 1   
     5    2    3 1   
     6    2    9 1   
     7    2   16 1   
     8    3    4 1   
     9    3   11 1   
    10    3   17 1   
    11    4    5 1   
    12    4   12 1   
    13    4   18 1   
    14    5    6 1   
    15    5   13 1   
    16    5   19 1   
    17    6   14 1   
    18    6   20 1   
    19    6   21 1   
    20    7    9 1   
    21    7   10 1   
    22    8   22 1   
    23    8   23 1   
    24    8   24 1   
    25    9   25 1   
    26   11   26 1   
    27   12   27 1   
    28   14   28 1   
@<TRIPOS>SUBSTRUCTURE
     1 NGO         1 TEMP              0 ****  ****    0 ROOT
