@<TRIPOS>MOLECULE
NGO
   28    29     1     0     0
SMALL
bcc


@<TRIPOS>ATOM
      1 C1          0.5950   -0.5400   -1.1810 c3        1 NGO      0.330900
      2 C2          1.1310    0.8380   -0.6820 c3        1 NGO     -0.036000
      3 C3          0.1160    1.7430    0.0520 c3        1 NGO      0.139100
      4 C4         -1.3260    1.2150   -0.0580 c3        1 NGO      0.083100
      5 C5         -1.3350   -0.2900    0.2230 c3        1 NGO      0.054100
      6 C6         -2.7490   -0.8870    0.2540 c3        1 NGO      0.140400
      7 C7          2.3780   -0.8830    0.2880 c2        1 NGO      0.573600
      8 C8          3.3600   -1.6830    1.0550 c3        1 NGO     -0.178400
      9 N2          2.2640    0.4500    0.1780 nh        1 NGO     -0.350100
     10 O1          1.4560   -1.5280   -0.4510 os        1 NGO     -0.391400
     11 O3          0.2440    3.0040   -0.5760 oh        1 NGO     -0.593800
     12 O4         -2.0420    1.9330    0.9280 oh        1 NGO     -0.583800
     13 O5         -0.6760   -0.9570   -0.8720 os        1 NGO     -0.365600
     14 O6         -2.7040   -2.2290    0.6670 oh        1 NGO     -0.570800
     15 HC1         0.7700   -0.7490   -2.2740 h2        1 NGO      0.162700
     16 HC2         1.5400    1.4190   -1.5670 h1        1 NGO      0.153700
     17 HC3         0.3670    1.8450    1.1490 h1        1 NGO      0.081700
     18 HC4        -1.7390    1.4210   -1.0850 h1        1 NGO      0.084700
     19 HC5        -0.7990   -0.5320    1.1800 h1        1 NGO      0.080700
     20 HC61       -3.3460   -0.3540    1.0440 h1        1 NGO      0.074200
     21 HC62       -3.2350   -0.7770   -0.7500 h1        1 NGO      0.074200
     22 HC81        3.8950   -1.0630    1.8170 hc        1 NGO      0.124367
     23 HC82        2.8280   -2.5320    1.5640 hc        1 NGO      0.124367
     24 HC83        4.1070   -2.1220    0.3390 hc        1 NGO      0.124367
     25 HN          2.8180    1.1310    0.6510 hn        1 NGO      0.358700
     26 HO3        -0.4180    3.5890   -0.1780 ho        1 NGO      0.452000
     27 HO4        -2.9850    1.8220    0.7440 ho        1 NGO      0.435000
     28 HO6        -2.3740   -2.7530   -0.0750 ho        1 NGO      0.418000
@<TRIPOS>BOND
     1    1    2 1   
     2    1   10 1   
     3    1   13 1   
     4    1   15 1   
     5    2    3 1   
     6    2    9 1   
     7    2   16 1   
     8    3    4 1   
     9    3   11 1   
    10    3   17 1   
    11    4    5 1   
    12    4   12 1   
    13    4   18 1   
    14    5    6 1   
    15    5   13 1   
    16    5   19 1   
    17    6   14 1   
    18    6   20 1   
    19    6   21 1   
    20    7    8 1   
    21    7    9 2   
    22    7   10 1   
    23    8   22 1   
    24    8   23 1   
    25    8   24 1   
    26    9   25 1   
    27   11   26 1   
    28   12   27 1   
    29   14   28 1   
@<TRIPOS>SUBSTRUCTURE
     1 NGO         1 TEMP              0 ****  ****    0 ROOT
