@<TRIPOS>MOLECULE
NGO
   28    29     1     0     0
SMALL
bcc


@<TRIPOS>ATOM
      1 C1          0.2840    0.3130   -0.2550 c3        1 NGO      0.320900
      2 C2          1.8220    0.0910   -0.1100 c3        1 NGO     -0.082000
      3 C3          2.3420    0.7310    1.1980 c3        1 NGO      0.140100
      4 C4          1.5060    0.2870    2.4110 c3        1 NGO      0.073100
      5 C5         -0.0070    0.2680    2.1330 c3        1 NGO      0.044100
      6 C6         -0.7920    1.1150    3.1490 c3        1 NGO      0.142400
      7 C7          0.7530   -1.9640   -0.3030 c2        1 NGO      0.576600
      8 C8          0.4200   -3.4030   -0.3940 c3        1 NGO     -0.178400
      9 N2          1.9490   -1.3710   -0.1660 nu        1 NGO     -0.318100
     10 O1         -0.2520   -1.0630   -0.4060 os        1 NGO     -0.388400
     11 O3          2.3530    2.1280    1.0480 oh        1 NGO     -0.550800
     12 O4          1.9260   -1.0350    2.7160 oh        1 NGO     -0.620800
     13 O5         -0.3470    0.8380    0.8540 os        1 NGO     -0.383600
     14 O6         -2.1560    0.7810    3.1100 oh        1 NGO     -0.570800
     15 HC1        -0.0600    0.8950   -1.1520 h2        1 NGO      0.171700
     16 HC2         2.3760    0.5430   -0.9840 h1        1 NGO      0.143700
     17 HC3         3.4240    0.4500    1.3600 h1        1 NGO      0.125700
     18 HC4         1.7330    0.9910    3.2620 h1        1 NGO      0.098700
     19 HC5        -0.3870   -0.7920    2.1530 h1        1 NGO      0.088700
     20 HC61       -0.6240    2.2060    2.9490 h1        1 NGO      0.073200
     21 HC62       -0.4530    0.8500    4.1870 h1        1 NGO      0.073200
     22 HC81       -0.6670   -3.5270   -0.6390 hc        1 NGO      0.124367
     23 HC82        0.6320   -3.9000    0.5900 hc        1 NGO      0.124367
     24 HC83        1.0370   -3.8960   -1.1910 hc        1 NGO      0.124367
     25 HN          2.8050   -1.8330    0.0580 hn        1 NGO      0.359700
     26 HO3         1.4390    2.4490    1.0940 ho        1 NGO      0.423000
     27 HO4         1.8780   -1.1440    3.6750 ho        1 NGO      0.443000
     28 HO6        -2.5330    1.1730    2.3120 ho        1 NGO      0.420000
@<TRIPOS>BOND
     1    1    2 1   
     2    1   10 1   
     3    1   13 1   
     4    1   15 1   
     5    2    3 1   
     6    2    9 1   
     7    2   16 1   
     8    3    4 1   
     9    3   11 1   
    10    3   17 1   
    11    4    5 1   
    12    4   12 1   
    13    4   18 1   
    14    5    6 1   
    15    5   13 1   
    16    5   19 1   
    17    6   14 1   
    18    6   20 1   
    19    6   21 1   
    20    7    8 1   
    21    7    9 2   
    22    7   10 1   
    23    8   22 1   
    24    8   23 1   
    25    8   24 1   
    26    9   25 1   
    27   11   26 1   
    28   12   27 1   
    29   14   28 1   
@<TRIPOS>SUBSTRUCTURE
     1 NGO         1 TEMP              0 ****  ****    0 ROOT
