@<TRIPOS>MOLECULE
NGO
   28    29     1     0     0
SMALL
bcc


@<TRIPOS>ATOM
      1 C1          0.2270    0.2010   -0.0410 c3        1 NGO      0.330900
      2 C2          1.7480   -0.1320    0.0630 c3        1 NGO     -0.036000
      3 C3          2.4100    0.1100    1.4380 c3        1 NGO      0.139100
      4 C4          1.4890    0.8780    2.4040 c3        1 NGO      0.083100
      5 C5          0.0850    0.2700    2.3530 c3        1 NGO      0.054100
      6 C6         -0.8770    0.8930    3.3740 c3        1 NGO      0.140400
      7 C7          0.5710   -2.0480   -0.5680 c2        1 NGO      0.573600
      8 C8          0.1720   -3.4140   -0.9780 c3        1 NGO     -0.178400
      9 N2          1.7960   -1.5490   -0.3430 nh        1 NGO     -0.350100
     10 O1         -0.3880   -1.1170   -0.4090 os        1 NGO     -0.391400
     11 O3          3.5750    0.8570    1.1460 oh        1 NGO     -0.593800
     12 O4          2.0860    0.7050    3.6750 oh        1 NGO     -0.583800
     13 O5         -0.4920    0.5740    1.0680 os        1 NGO     -0.365600
     14 O6         -2.0950    0.1940    3.3880 oh        1 NGO     -0.570800
     15 HC1        -0.0490    0.8980   -0.8810 h2        1 NGO      0.162700
     16 HC2         2.3150    0.4780   -0.7090 h1        1 NGO      0.153700
     17 HC3         2.7040   -0.8620    1.9350 h1        1 NGO      0.081700
     18 HC4         1.4500    1.9680    2.1230 h1        1 NGO      0.084700
     19 HC5         0.1150   -0.8450    2.4910 h1        1 NGO      0.080700
     20 HC61       -1.0250    1.9810    3.1480 h1        1 NGO      0.074200
     21 HC62       -0.4470    0.7560    4.4040 h1        1 NGO      0.074200
     22 HC81        1.0010   -4.1510   -0.8270 hc        1 NGO      0.124367
     23 HC82       -0.1170   -3.3970   -2.0640 hc        1 NGO      0.124367
     24 HC83       -0.7280   -3.7310   -0.3840 hc        1 NGO      0.124367
     25 HN          2.6550   -2.0540   -0.3750 hn        1 NGO      0.358700
     26 HO3         3.9930    1.0770    1.9930 ho        1 NGO      0.452000
     27 HO4         1.6930    1.3550    4.2730 ho        1 NGO      0.435000
     28 HO6        -2.5870    0.4470    2.5950 ho        1 NGO      0.418000
@<TRIPOS>BOND
     1    1    2 1   
     2    1   10 1   
     3    1   13 1   
     4    1   15 1   
     5    2    3 1   
     6    2    9 1   
     7    2   16 1   
     8    3    4 1   
     9    3   11 1   
    10    3   17 1   
    11    4    5 1   
    12    4   12 1   
    13    4   18 1   
    14    5    6 1   
    15    5   13 1   
    16    5   19 1   
    17    6   14 1   
    18    6   20 1   
    19    6   21 1   
    20    7    8 1   
    21    7    9 2   
    22    7   10 1   
    23    8   22 1   
    24    8   23 1   
    25    8   24 1   
    26    9   25 1   
    27   11   26 1   
    28   12   27 1   
    29   14   28 1   
@<TRIPOS>SUBSTRUCTURE
     1 NGO         1 TEMP              0 ****  ****    0 ROOT
