@<TRIPOS>MOLECULE
NGO
   28    29     1     0     0
SMALL
bcc


@<TRIPOS>ATOM
      1 C1          0.3440    0.2780   -0.1440 c3        1 NGO      0.329900
      2 C2          1.8300   -0.1560    0.0430 c3        1 NGO     -0.037000
      3 C3          2.4500    0.1030    1.4340 c3        1 NGO      0.139100
      4 C4          1.5010    0.8430    2.3990 c3        1 NGO      0.082100
      5 C5          0.0770    0.3020    2.2350 c3        1 NGO      0.093100
      6 C6         -0.9360    0.9070    3.2140 c3        1 NGO      0.143400
      7 C7          0.5520   -2.0030   -0.6000 c2        1 NGO      0.574600
      8 C8          0.0790   -3.3510   -0.9880 c3        1 NGO     -0.177400
      9 N2          1.7950   -1.5890   -0.3060 nh        1 NGO     -0.353100
     10 O1         -0.3390   -0.9980   -0.5400 os        1 NGO     -0.388400
     11 O3          3.5990    0.8860    1.1680 oh        1 NGO     -0.592800
     12 O4          2.0270    0.5580    3.6810 oh        1 NGO     -0.584800
     13 O5         -0.3950    0.7010    0.9310 os        1 NGO     -0.355600
     14 O6         -1.8750   -0.1170    3.4830 oh        1 NGO     -0.596800
     15 HC1         0.1560    0.9890   -0.9970 h2        1 NGO      0.164700
     16 HC2         2.4710    0.3790   -0.7270 h1        1 NGO      0.151700
     17 HC3         2.7630   -0.8630    1.9300 h1        1 NGO      0.083700
     18 HC4         1.5210    1.9490    2.1900 h1        1 NGO      0.084700
     19 HC5         0.0580   -0.8190    2.3160 h1        1 NGO      0.085700
     20 HC61       -0.4170    1.1960    4.1660 h1        1 NGO      0.056200
     21 HC62       -1.4290    1.8060    2.7580 h1        1 NGO      0.056200
     22 HC81       -0.3060   -3.3120   -2.0440 hc        1 NGO      0.123700
     23 HC82       -0.7770   -3.6430   -0.3200 hc        1 NGO      0.123700
     24 HC83        0.8910   -4.1160   -0.9150 hc        1 NGO      0.123700
     25 HN          2.6110   -2.1590   -0.2630 hn        1 NGO      0.356700
     26 HO3         4.0160    1.0780    2.0210 ho        1 NGO      0.450000
     27 HO4         1.6510    1.1930    4.3050 ho        1 NGO      0.434000
     28 HO6        -2.6640    0.3060    3.8440 ho        1 NGO      0.429000
@<TRIPOS>BOND
     1    1    2 1   
     2    1   10 1   
     3    1   13 1   
     4    1   15 1   
     5    2    3 1   
     6    2    9 1   
     7    2   16 1   
     8    3    4 1   
     9    3   11 1   
    10    3   17 1   
    11    4    5 1   
    12    4   12 1   
    13    4   18 1   
    14    5    6 1   
    15    5   13 1   
    16    5   19 1   
    17    6   14 1   
    18    6   20 1   
    19    6   21 1   
    20    7    8 1   
    21    7    9 2   
    22    7   10 1   
    23    8   22 1   
    24    8   23 1   
    25    8   24 1   
    26    9   25 1   
    27   11   26 1   
    28   12   27 1   
    29   14   28 1   
@<TRIPOS>SUBSTRUCTURE
     1 NGO         1 TEMP              0 ****  ****    0 ROOT
