@<TRIPOS>MOLECULE
NGQ
   22    18     1     0     0
SMALL
bcc


@<TRIPOS>ATOM
      1 C          -1.7580    0.6520   -0.1310 c1        1 NGQ      0.303000
      2 N           0.5020    1.0700   -0.8140 n3        1 NGQ     -0.297000
      3 O1         -2.0010    1.8160    0.2840 o         1 NGQ     -0.586000
      4 O2         -2.7020   -0.0970   -0.4930 o         1 NGQ     -0.586000
      5 CA         -0.3350    0.1360   -0.1450 c2        1 NGQ     -0.086000
      6 CB          0.1480   -0.0470    1.2750 c3        1 NGQ     -0.130000
      7 CD          0.6210   -1.7040    3.0420 c1        1 NGQ      0.323000
      8 CF          0.6050    1.0440   -2.2270 c2        1 NGQ      0.190000
      9 NF          1.5840    1.6740   -2.8220 n1        1 NGQ     -0.449000
     10 CG          0.0510   -1.5060    1.6560 c3        1 NGQ     -0.210000
     11 NG         -0.3530    0.3340   -2.9950 n3        1 NGQ     -0.335000
     12 OE1        -0.1270   -1.6110    4.0500 o         1 NGQ     -0.604000
     13 OE2         1.8480   -1.9420    3.1890 os        1 NGQ     -0.612000
     14 HN          0.9880    1.6730   -0.3320 hn        1 NGQ      0.186000
     15 HA         -0.3040   -0.7210   -0.6120 h4        1 NGQ      0.089000
     16 HB         -0.4060    0.4860    1.8790 hc        1 NGQ      0.090500
     17 HBA         1.0790    0.2460    1.3420 hc        1 NGQ      0.090500
     18 HNF         2.2020    2.1320   -2.3270 DU        1 NGQ      0.112000
     19 HG          0.5560   -2.0450    1.0150 hc        1 NGQ      0.057000
     20 HGA        -0.8880   -1.7840    1.6470 hc        1 NGQ      0.057000
     21 HNG        -0.2880    0.3200   -3.9070 hn        1 NGQ      0.198500
     22 HNGA       -1.0230   -0.1270   -2.5770 hn        1 NGQ      0.198500
@<TRIPOS>BOND
     1    1    3 1   
     2    1    4 1   
     3    2    5 1   
     4    2    8 1   
     5    2   14 1   
     6    5    6 1   
     7    5   15 1   
     8    6   10 1   
     9    6   16 1   
    10    6   17 1   
    11    7   10 1   
    12    7   12 1   
    13    8    9 1   
    14    8   11 1   
    15   10   19 1   
    16   10   20 1   
    17   11   21 1   
    18   11   22 1   
@<TRIPOS>SUBSTRUCTURE
     1 NGQ         1 TEMP              0 ****  ****    0 ROOT
