@<TRIPOS>MOLECULE
NGQ
   22    21     1     0     0
SMALL
bcc


@<TRIPOS>ATOM
      1 C           1.4400   -1.1250   -0.3310 c         1 NGQ      0.883600
      2 N           0.8100    1.3240   -0.1340 nh        1 NGQ     -0.732200
      3 O1          1.6610   -2.1620    0.3530 o         1 NGQ     -0.863300
      4 O2          2.0050   -0.9110   -1.4520 o         1 NGQ     -0.863300
      5 CA          0.4640   -0.0530    0.2430 c3        1 NGQ      0.043500
      6 CB         -0.9640   -0.4170   -0.1950 c3        1 NGQ     -0.042400
      7 CD         -3.4480    0.0220    0.0570 c         1 NGQ      0.902600
      8 CF          2.1680    1.6790    0.2550 c2        1 NGQ      0.740100
      9 NF          2.3740    2.1780    1.4520 n2        1 NGQ     -0.855100
     10 CG         -2.0320    0.3610    0.5350 c3        1 NGQ     -0.179400
     11 NG          3.2000    1.5770   -0.7530 nh        1 NGQ     -0.960800
     12 OE1        -3.7460    0.1580   -1.1690 o         1 NGQ     -0.877300
     13 OE2        -4.3040   -0.3450    0.9200 o         1 NGQ     -0.877300
     14 HN          0.7190    1.4050   -1.1350 hn        1 NGQ      0.365800
     15 HA          0.5160   -0.1090    1.3680 h1        1 NGQ      0.062700
     16 HB         -1.0840   -0.2660   -1.3000 hc        1 NGQ      0.047200
     17 HBA        -1.0910   -1.5130    0.0090 hc        1 NGQ      0.047200
     18 HNF         3.3320    2.4000    1.6330 hn        1 NGQ      0.340400
     19 HG         -1.9600    0.1600    1.6350 hc        1 NGQ      0.023700
     20 HGA        -1.8790    1.4600    0.3790 hc        1 NGQ      0.023700
     21 HNG         2.9540    0.9270   -1.4840 hn        1 NGQ      0.385800
     22 HNGA        4.0820    1.3210   -0.3600 hn        1 NGQ      0.385800
@<TRIPOS>BOND
     1    1    3 1   
     2    1    4 1   
     3    1    5 1   
     4    2    5 1   
     5    2    8 1   
     6    2   14 1   
     7    5    6 1   
     8    5   15 1   
     9    6   10 1   
    10    6   16 1   
    11    6   17 1   
    12    7   10 1   
    13    7   12 1   
    14    7   13 1   
    15    8    9 2   
    16    8   11 1   
    17    9   18 1   
    18   10   19 1   
    19   10   20 1   
    20   11   21 1   
    21   11   22 1   
@<TRIPOS>SUBSTRUCTURE
     1 NGQ         1 TEMP              0 ****  ****    0 ROOT
