@<TRIPOS>MOLECULE
NGR
   45    45     1     0     0
SMALL
bcc


@<TRIPOS>ATOM
      1 O2          0.3770   -0.2920   -0.0710 oh        1 NGR     -0.322000
      2 C1          2.4330    0.9210   -0.5520 c3        1 NGR      0.116000
      3 OA          1.6670    2.0940   -0.3240 os        1 NGR     -0.306000
      4 C2          1.7590   -0.2330    0.2140 c3        1 NGR     -0.017000
      5 C3          1.9850   -0.1250    1.7290 c3        1 NGR     -0.037000
      6 O3          1.6510   -1.3410    2.3770 oh        1 NGR     -0.334000
      7 C4          3.4710    0.1400    2.0280 c3        1 NGR      0.016000
      8 O4          3.6790    0.3490    3.4120 oh        1 NGR     -0.322000
      9 C5          3.8730    1.4270    1.2930 c3        1 NGR      0.018000
     10 O5          3.7380    1.2220   -0.1190 os        1 NGR     -0.284000
     11 C6          5.3380    1.7880    1.5290 c3        1 NGR     -0.014000
     12 O6          5.4750    3.1560    1.1720 oh        1 NGR     -0.339000
     13 C11         2.4130    5.5870   -1.4930 c3        1 NGR      0.136000
     14 O11         2.8050    5.2650   -2.7830 oh        1 NGR     -0.318000
     15 HO11        2.0900    4.7780   -3.2240 ho        1 NGR      0.240000
     16 C12         1.8780    4.4460   -0.5980 c3        1 NGR     -0.005000
     17 O12         2.6830    4.3790    0.5590 oh        1 NGR     -0.311000
     18 HO12        3.4980    3.9020    0.3350 ho        1 NGR      0.232000
     19 C13         1.8240    3.0970   -1.3330 c3        1 NGR     -0.004000
     20 C14         0.6220    3.0100   -2.2840 c3        1 NGR     -0.071000
     21 O14         1.1600    2.7780   -3.5790 oh        1 NGR     -0.342000
     22 HO14        0.4190    2.7970   -4.1960 ho        1 NGR      0.211000
     23 C15         0.2620    6.2790   -2.1440 c1        1 NGR     -0.090000
     24 O15         1.4260    6.6460   -1.6590 os        1 NGR     -0.200000
     25 C16        -0.6960    7.4160   -2.2880 c3        1 NGR     -0.086000
     26 O16        -1.8020    7.0500   -3.0890 oh        1 NGR     -0.313000
     27 HO16       -1.9780    6.1130   -2.9340 ho        1 NGR      0.208000
     28 H1          2.5330    0.6800   -1.6490 h2        1 NGR      0.142000
     29 H2          2.1740   -1.2110   -0.1630 h1        1 NGR      0.140000
     30 H3          1.3560    0.7100    2.1500 h1        1 NGR      0.106000
     31 HO2         0.0070    0.5860    0.0980 ho        1 NGR      0.220000
     32 HO3         0.7650   -1.5810    2.0740 ho        1 NGR      0.223000
     33 H4          4.0910   -0.7310    1.6790 h1        1 NGR      0.098000
     34 HO4         3.2670   -0.3980    3.8670 ho        1 NGR      0.225000
     35 H5          3.2060    2.2750    1.6190 h1        1 NGR      0.137000
     36 H6          5.5790    1.6400    2.6160 h1        1 NGR      0.089500
     37 H6A         6.0090    1.1550    0.8910 h1        1 NGR      0.089500
     38 HO6         6.3930    3.3960    1.3450 ho        1 NGR      0.208000
     39 H11         3.2840    6.1160   -1.0040 h2        1 NGR      0.167000
     40 H13         2.7860    2.9390   -1.9010 h1        1 NGR      0.134000
     41 H14         0.0350    3.9710   -2.2780 h1        1 NGR      0.100500
     42 H15        -0.0410    2.1540   -1.9860 h1        1 NGR      0.100500
     43 H16        -0.2500    8.3140   -2.7980 h1        1 NGR      0.111000
     44 H16A       -1.0630    7.7230   -1.2670 h1        1 NGR      0.111000
     45 H12         0.8530    4.7200   -0.2140 h1        1 NGR      0.137000
@<TRIPOS>BOND
     1    1    4 1   
     2    1   31 1   
     3    2    3 1   
     4    2    4 1   
     5    2   10 1   
     6    2   28 1   
     7    3   19 1   
     8    4    5 1   
     9    4   29 1   
    10    5    6 1   
    11    5    7 1   
    12    5   30 1   
    13    6   32 1   
    14    7    8 1   
    15    7    9 1   
    16    7   33 1   
    17    8   34 1   
    18    9   10 1   
    19    9   11 1   
    20    9   35 1   
    21   11   12 1   
    22   11   36 1   
    23   11   37 1   
    24   12   38 1   
    25   13   14 1   
    26   13   16 1   
    27   13   24 1   
    28   13   39 1   
    29   14   15 1   
    30   16   17 1   
    31   16   19 1   
    32   16   45 1   
    33   17   18 1   
    34   19   20 1   
    35   19   40 1   
    36   20   21 1   
    37   20   41 1   
    38   20   42 1   
    39   21   22 1   
    40   23   24 1   
    41   23   25 1   
    42   25   26 1   
    43   25   43 1   
    44   25   44 1   
    45   26   27 1   
@<TRIPOS>SUBSTRUCTURE
     1 NGR         1 TEMP              0 ****  ****    0 ROOT
