@<TRIPOS>MOLECULE
NGR
   45    46     1     0     0
SMALL
bcc


@<TRIPOS>ATOM
      1 O2         -0.0180    0.0530    0.4440 oh        1 NGR     -0.592800
      2 C1          1.9390    1.1300   -0.5460 c3        1 NGR      0.299900
      3 OA          1.4310    2.3450   -0.0110 os        1 NGR     -0.453600
      4 C2          1.3870   -0.0200    0.3170 c3        1 NGR      0.096100
      5 C3          2.0430   -0.0470    1.7050 c3        1 NGR      0.074100
      6 O3          1.7570   -1.2640    2.3760 oh        1 NGR     -0.607800
      7 C4          3.5730    0.0350    1.5740 c3        1 NGR      0.128100
      8 O4          4.1880    0.1250    2.8460 oh        1 NGR     -0.596800
      9 C5          3.9120    1.3170    0.7980 c3        1 NGR      0.128100
     10 O5          3.3440    1.2330   -0.5140 os        1 NGR     -0.430600
     11 C6          5.4170    1.4830    0.6000 c3        1 NGR      0.137400
     12 O6          5.6350    2.8530    0.2900 oh        1 NGR     -0.616800
     13 C11         1.9130    6.0050   -0.6300 c3        1 NGR      0.314900
     14 O11         3.0250    6.1160   -1.4940 oh        1 NGR     -0.623800
     15 HO11        3.8120    6.1350   -0.9340 ho        1 NGR      0.426000
     16 C12         1.9120    4.6630    0.1340 c3        1 NGR      0.089100
     17 O12         3.1270    4.5540    0.8480 oh        1 NGR     -0.597800
     18 HO12        3.7770    4.1030    0.2860 ho        1 NGR      0.432000
     19 C13         1.6850    3.4890   -0.8280 c3        1 NGR      0.122100
     20 C14         0.4710    3.7550   -1.7340 c3        1 NGR      0.099100
     21 O14         0.4520    2.6930   -2.6770 oh        1 NGR     -0.596800
     22 HO14       -0.3660    2.7790   -3.1820 ho        1 NGR      0.410000
     23 C15         0.6410    5.1060   -2.4450 c3        1 NGR      0.066100
     24 O15         0.8040    6.1560   -1.4840 os        1 NGR     -0.411600
     25 C16        -0.6120    5.4940   -3.2360 c3        1 NGR      0.138400
     26 O16        -0.4010    6.6630   -3.9960 oh        1 NGR     -0.592800
     27 HO16       -0.0730    7.3410   -3.3900 ho        1 NGR      0.419000
     28 H1          1.6710    1.0110   -1.6350 h2        1 NGR      0.118700
     29 H2          1.5780   -0.9950   -0.2150 h1        1 NGR      0.100700
     30 H3          1.6650    0.8170    2.3220 h1        1 NGR      0.064700
     31 HO2        -0.2380    0.9480    0.7380 ho        1 NGR      0.421000
     32 HO3         0.8020   -1.3980    2.3110 ho        1 NGR      0.424000
     33 H4          3.9570   -0.8720    1.0310 h1        1 NGR      0.058700
     34 HO4         3.8260   -0.5990    3.3760 ho        1 NGR      0.426000
     35 H5          3.4900    2.2140    1.3360 h1        1 NGR      0.094700
     36 H6          5.7790    0.8390   -0.2430 h1        1 NGR      0.050700
     37 H6A         5.9410    1.2100    1.5550 h1        1 NGR      0.050700
     38 HO6         6.5890    2.9720    0.2240 ho        1 NGR      0.409000
     39 H11         1.8550    6.8750    0.0850 h2        1 NGR      0.085700
     40 H13         2.6010    3.3270   -1.4640 h1        1 NGR      0.093700
     41 H14         1.5400    5.0780   -3.1200 h1        1 NGR      0.092700
     42 H15        -0.4720    3.7490   -1.1220 h1        1 NGR      0.057700
     43 H16        -1.4780    5.6370   -2.5360 h1        1 NGR      0.049700
     44 H16A       -0.8500    4.6970   -3.9890 h1        1 NGR      0.049700
     45 H12         1.1070    4.6820    0.9210 h1        1 NGR      0.095700
@<TRIPOS>BOND
     1    1    4 1   
     2    1   31 1   
     3    2    3 1   
     4    2    4 1   
     5    2   10 1   
     6    2   28 1   
     7    3   19 1   
     8    4    5 1   
     9    4   29 1   
    10    5    6 1   
    11    5    7 1   
    12    5   30 1   
    13    6   32 1   
    14    7    8 1   
    15    7    9 1   
    16    7   33 1   
    17    8   34 1   
    18    9   10 1   
    19    9   11 1   
    20    9   35 1   
    21   11   12 1   
    22   11   36 1   
    23   11   37 1   
    24   12   38 1   
    25   13   14 1   
    26   13   16 1   
    27   13   24 1   
    28   13   39 1   
    29   14   15 1   
    30   16   17 1   
    31   16   19 1   
    32   16   45 1   
    33   17   18 1   
    34   19   20 1   
    35   19   40 1   
    36   20   21 1   
    37   20   23 1   
    38   20   42 1   
    39   21   22 1   
    40   23   24 1   
    41   23   25 1   
    42   23   41 1   
    43   25   26 1   
    44   25   43 1   
    45   25   44 1   
    46   26   27 1   
@<TRIPOS>SUBSTRUCTURE
     1 NGR         1 TEMP              0 ****  ****    0 ROOT
