@<TRIPOS>MOLECULE
NGR
   45    46     1     0     0
SMALL
bcc


@<TRIPOS>ATOM
      1 O2         -1.4470   -2.4140    0.4320 oh        1 NGR     -0.601800
      2 C1          0.5290   -1.2280   -0.2310 c3        1 NGR      0.327900
      3 OA         -0.1010   -0.0950    0.2400 os        1 NGR     -0.431600
      4 C2         -0.0190   -2.4350    0.5030 c3        1 NGR      0.130100
      5 C3          0.3930   -2.4620    1.9370 c3        1 NGR      0.069100
      6 O3         -0.0220   -3.7210    2.5210 oh        1 NGR     -0.608800
      7 C4          1.8780   -2.3080    2.1050 c3        1 NGR      0.083100
      8 O4          2.1800   -2.1690    3.5050 oh        1 NGR     -0.600800
      9 C5          2.4220   -1.0990    1.3620 c3        1 NGR      0.103100
     10 O5          2.0110   -1.0730   -0.0520 os        1 NGR     -0.428600
     11 C6          3.9030   -1.1140    1.4370 c3        1 NGR      0.144400
     12 O6          4.3260   -0.2910    2.5000 oh        1 NGR     -0.594800
     13 C11        -0.2160    3.1910   -1.8650 c3        1 NGR      0.298900
     14 O11         0.1610    2.8560   -2.9950 oh        1 NGR     -0.636800
     15 HO11        0.5020    3.5940   -3.4370 ho        1 NGR      0.431000
     16 C12         0.2020    2.1120   -0.7820 c3        1 NGR      0.132100
     17 O12         1.5840    1.8940   -0.8850 oh        1 NGR     -0.574800
     18 HO12        2.0210    2.5980   -0.5660 ho        1 NGR      0.420000
     19 C13        -0.5050    0.7830   -0.9220 c3        1 NGR      0.079100
     20 C14        -1.9180    0.8910   -0.9340 c3        1 NGR      0.099100
     21 O14        -2.5220   -0.5220   -1.2740 oh        1 NGR     -0.601800
     22 HO14       -3.3910   -0.5640   -0.9770 ho        1 NGR      0.430000
     23 C15        -2.4270    1.8370   -1.8750 c3        1 NGR      0.143100
     24 O15        -1.8000    3.1840   -1.7710 os        1 NGR     -0.441600
     25 C16        -3.9190    1.9820   -1.6490 c3        1 NGR      0.135400
     26 O16        -4.3890    3.1090   -2.3340 oh        1 NGR     -0.598800
     27 HO16       -5.2800    3.0860   -2.3660 ho        1 NGR      0.402000
     28 H1          0.3330   -1.3240   -1.1890 h2        1 NGR      0.105700
     29 H2          0.3060   -3.2410    0.0680 h1        1 NGR      0.066700
     30 H3         -0.0720   -1.7040    2.4260 h1        1 NGR      0.084700
     31 HO2        -1.7620   -3.2590    0.4390 ho        1 NGR      0.429000
     32 HO3        -0.4660   -3.5640    3.2860 ho        1 NGR      0.412000
     33 H4          2.3190   -3.1100    1.7660 h1        1 NGR      0.058700
     34 HO4         2.4140   -2.9280    3.8230 ho        1 NGR      0.410000
     35 H5          2.1000   -0.3050    1.7900 h1        1 NGR      0.100700
     36 H6          4.2250   -2.0730    1.5960 h1        1 NGR      0.053700
     37 H6A         4.2730   -0.7820    0.6070 h1        1 NGR      0.053700
     38 HO6         5.2070   -0.1980    2.4700 ho        1 NGR      0.416000
     39 H11         0.1460    4.0850   -1.6240 h2        1 NGR      0.085700
     40 H12         0.0010    2.4890    0.1480 h1        1 NGR      0.098700
     41 H13        -0.2120    0.3530   -1.7630 h1        1 NGR      0.081700
     42 H14        -2.2230    1.1560   -0.0250 h1        1 NGR      0.057700
     43 H15        -2.2790    1.4940   -2.7740 h1        1 NGR      0.085700
     44 H16        -4.3670    1.2020   -1.9730 h1        1 NGR      0.046200
     45 H16A       -4.0950    2.0850   -0.6960 h1        1 NGR      0.046200
@<TRIPOS>BOND
     1    1    4 1   
     2    1   31 1   
     3    2    3 1   
     4    2    4 1   
     5    2   10 1   
     6    2   28 1   
     7    3   19 1   
     8    4    5 1   
     9    4   29 1   
    10    5    6 1   
    11    5    7 1   
    12    5   30 1   
    13    6   32 1   
    14    7    8 1   
    15    7    9 1   
    16    7   33 1   
    17    8   34 1   
    18    9   10 1   
    19    9   11 1   
    20    9   35 1   
    21   11   12 1   
    22   11   36 1   
    23   11   37 1   
    24   12   38 1   
    25   13   14 1   
    26   13   16 1   
    27   13   24 1   
    28   13   39 1   
    29   14   15 1   
    30   16   17 1   
    31   16   19 1   
    32   16   40 1   
    33   17   18 1   
    34   19   20 1   
    35   19   41 1   
    36   20   21 1   
    37   20   23 1   
    38   20   42 1   
    39   21   22 1   
    40   23   24 1   
    41   23   25 1   
    42   23   43 1   
    43   25   26 1   
    44   25   44 1   
    45   25   45 1   
    46   26   27 1   
@<TRIPOS>SUBSTRUCTURE
     1 NGR         1 TEMP              0 ****  ****    0 ROOT
