@<TRIPOS>MOLECULE
NGR
   45    46     1     0     0
SMALL
bcc


@<TRIPOS>ATOM
      1 O2         -1.7160    3.0870    0.1090 oh        1 NGR     -0.592800
      2 C1         -1.0280    0.9460   -0.8440 c3        1 NGR      0.303900
      3 OA         -0.2550    0.7620    0.3340 os        1 NGR     -0.448600
      4 C2         -2.1840    1.9000   -0.4950 c3        1 NGR      0.097100
      5 C3         -3.2250    1.2220    0.4100 c3        1 NGR      0.073100
      6 O3         -4.4140    1.9910    0.4760 oh        1 NGR     -0.607800
      7 C4         -3.6190   -0.1520   -0.1610 c3        1 NGR      0.133100
      8 O4         -4.4760   -0.8430    0.7290 oh        1 NGR     -0.593800
      9 C5         -2.3400   -0.9830   -0.3130 c3        1 NGR      0.087100
     10 O5         -1.4640   -0.3330   -1.2450 os        1 NGR     -0.448600
     11 C6         -2.5980   -2.3730   -0.8930 c3        1 NGR      0.142400
     12 O6         -1.3930   -3.1110   -0.9420 oh        1 NGR     -0.602800
     13 C11         2.5640   -1.4720    1.3560 c3        1 NGR      0.298900
     14 O11         2.5860   -2.4040    0.3030 oh        1 NGR     -0.626800
     15 HO11        3.4250   -2.8780    0.3480 ho        1 NGR      0.423000
     16 C12         1.1660   -0.8250    1.3910 c3        1 NGR      0.134100
     17 O12         0.1780   -1.8160    1.5450 oh        1 NGR     -0.579800
     18 HO12        0.1700   -2.3630    0.7430 ho        1 NGR      0.431000
     19 C13         0.9480    0.0200    0.1260 c3        1 NGR      0.119100
     20 C14         2.1200    0.9950   -0.0720 c3        1 NGR      0.106100
     21 O14         1.9120    1.6130   -1.3310 oh        1 NGR     -0.608800
     22 HO14        2.5760    2.3130   -1.4170 ho        1 NGR      0.429000
     23 C15         3.4510    0.2250   -0.0800 c3        1 NGR      0.072100
     24 O15         3.6120   -0.5570    1.1030 os        1 NGR     -0.440600
     25 C16         4.6550    1.1740   -0.1030 c3        1 NGR      0.126400
     26 O16         4.6780    1.9270   -1.2990 oh        1 NGR     -0.602800
     27 HO16        4.7850    1.3080   -2.0310 ho        1 NGR      0.409000
     28 H1         -0.3980    1.3320   -1.6960 h2        1 NGR      0.115700
     29 H2         -2.6740    2.2380   -1.4520 h1        1 NGR      0.099700
     30 H3         -2.8020    1.0960    1.4460 h1        1 NGR      0.064700
     31 HO2        -1.1400    2.8320    0.8440 ho        1 NGR      0.421000
     32 HO3        -4.1460    2.8980    0.6800 ho        1 NGR      0.423000
     33 H4         -4.1310   -0.0180   -1.1540 h1        1 NGR      0.057700
     34 HO4        -5.2020   -0.2370    0.9340 ho        1 NGR      0.424000
     35 H5         -1.8190   -1.0760    0.6830 h1        1 NGR      0.098700
     36 H6         -3.2750   -2.9420   -0.2010 h1        1 NGR      0.065200
     37 H6A        -3.0550   -2.2960   -1.9130 h1        1 NGR      0.065200
     38 HO6        -0.8030   -2.6450   -1.5490 ho        1 NGR      0.407000
     39 H11         2.8230   -1.9370    2.3490 h2        1 NGR      0.089700
     40 H13         0.8520   -0.6520   -0.7720 h1        1 NGR      0.087700
     41 H14         2.1200    1.7650    0.7470 h1        1 NGR      0.058700
     42 H15         3.4720   -0.4550   -0.9770 h1        1 NGR      0.063700
     43 H16         4.5780    1.9360    0.7180 h1        1 NGR      0.064700
     44 H16A        5.6020    0.5860    0.0180 h1        1 NGR      0.064700
     45 H12         1.0770   -0.1800    2.3100 h1        1 NGR      0.099700
@<TRIPOS>BOND
     1    1    4 1   
     2    1   31 1   
     3    2    3 1   
     4    2    4 1   
     5    2   10 1   
     6    2   28 1   
     7    3   19 1   
     8    4    5 1   
     9    4   29 1   
    10    5    6 1   
    11    5    7 1   
    12    5   30 1   
    13    6   32 1   
    14    7    8 1   
    15    7    9 1   
    16    7   33 1   
    17    8   34 1   
    18    9   10 1   
    19    9   11 1   
    20    9   35 1   
    21   11   12 1   
    22   11   36 1   
    23   11   37 1   
    24   12   38 1   
    25   13   14 1   
    26   13   16 1   
    27   13   24 1   
    28   13   39 1   
    29   14   15 1   
    30   16   17 1   
    31   16   19 1   
    32   16   45 1   
    33   17   18 1   
    34   19   20 1   
    35   19   40 1   
    36   20   21 1   
    37   20   23 1   
    38   20   41 1   
    39   21   22 1   
    40   23   24 1   
    41   23   25 1   
    42   23   42 1   
    43   25   26 1   
    44   25   43 1   
    45   25   44 1   
    46   26   27 1   
@<TRIPOS>SUBSTRUCTURE
     1 NGR         1 TEMP              0 ****  ****    0 ROOT
