@<TRIPOS>MOLECULE
NGS
   33    32     1     0     0
SMALL
bcc


@<TRIPOS>ATOM
      1 C1         -0.8400   -0.4960   -1.0140 c3        1 NGS      0.331900
      2 C2          0.6830   -0.5280   -0.9630 c3        1 NGS      0.035700
      3 C3          1.2000   -0.5530    0.4280 c3        1 NGS      0.122100
      4 C4          0.6180    0.5350    1.2650 c3        1 NGS      0.105100
      5 C5         -0.9020    0.5630    1.2040 c3        1 NGS      0.062100
      6 C6         -1.3860    1.7740    1.9100 c3        1 NGS      0.214400
      7 O1         -1.2400   -0.3020   -2.3280 oh        1 NGS     -0.582800
      8 O3          2.6430   -0.4010    0.4000 oh        1 NGS     -0.622800
      9 O5         -1.4110    0.5810   -0.1770 os        1 NGS     -0.439600
     10 O6         -2.8030    1.7070    2.0550 os        1 NGS     -0.614600
     11 N           1.1500   -1.7070   -1.6570 n         1 NGS     -0.540900
     12 C           1.8830   -1.5740   -2.8760 c         1 NGS      0.658100
     13 O           2.1150   -0.4630   -3.3320 o         1 NGS     -0.624100
     14 CH3         2.3810   -2.8470   -3.6300 c3        1 NGS     -0.173100
     15 S          -3.4500    2.8710    2.8010 s4        1 NGS      1.879600
     16 O7         -4.8660    2.5440    3.2110 o         1 NGS     -0.687400
     17 O8         -2.6110    3.2570    3.9940 os        1 NGS     -1.053000
     18 O9         -3.6770    4.0520    1.8830 o         1 NGS     -0.687400
     19 O4          1.0260    0.3450    2.6270 oh        1 NGS     -0.637800
     20 H1         -1.1880   -1.3630   -0.6990 h2        1 NGS      0.080700
     21 H2          1.0300    0.2570   -1.4120 h1        1 NGS      0.083700
     22 H3          0.9790   -1.4170    0.8320 h1        1 NGS      0.052700
     23 H4          0.9720    1.4180    0.9400 h1        1 NGS      0.048700
     24 H5         -1.2580   -0.2470    1.6700 h1        1 NGS      0.097700
     25 H6         -0.9780    1.8230    2.7760 h1        1 NGS      0.037700
     26 H6A        -1.1520    2.5590    1.4000 h1        1 NGS      0.037700
     27 HO3         3.0170   -0.9900    0.9650 ho        1 NGS      0.429000
     28 HN          0.9680   -2.5100   -1.3360 hn        1 NGS      0.312500
     29 HH3         1.6260   -3.4300   -3.8150 hc        1 NGS      0.060367
     30 HH3A        2.8060   -2.5810   -4.4780 hc        1 NGS      0.060367
     31 HH3B        3.0400   -3.3290   -3.0670 hc        1 NGS      0.060367
     32 HO4         1.7280    0.9120    2.8200 ho        1 NGS      0.467000
     33 H14        -2.1010   -0.4610   -2.3980 ho        1 NGS      0.425000
@<TRIPOS>BOND
     1    1    2 1   
     2    1    7 1   
     3    1    9 1   
     4    1   20 1   
     5    2    3 1   
     6    2   11 1   
     7    2   21 1   
     8    3    4 1   
     9    3    8 1   
    10    3   22 1   
    11    4    5 1   
    12    4   19 1   
    13    4   23 1   
    14    5    6 1   
    15    5    9 1   
    16    5   24 1   
    17    6   10 1   
    18    6   25 1   
    19    6   26 1   
    20    7   33 1   
    21    8   27 1   
    22   10   15 1   
    23   11   12 1   
    24   11   28 1   
    25   12   13 2   
    26   12   14 1   
    27   14   29 1   
    28   14   30 1   
    29   14   31 1   
    30   15   16 1   
    31   15   18 1   
    32   19   32 1   
@<TRIPOS>SUBSTRUCTURE
     1 NGS         1 TEMP              0 ****  ****    0 ROOT
