@<TRIPOS>MOLECULE
NGS
   33    33     1     0     0
SMALL
bcc


@<TRIPOS>ATOM
      1 C1          1.4450    1.1510   -0.2530 c3        1 NGS      0.331900
      2 C2          2.3590   -0.0910   -0.0050 c3        1 NGS      0.035700
      3 C3          1.5740   -1.3210   -0.5100 c3        1 NGS      0.122100
      4 C4          0.2420   -1.4020    0.2640 c3        1 NGS      0.105100
      5 C5         -0.5430   -0.0950    0.0880 c3        1 NGS      0.062100
      6 C6         -1.8170   -0.0680    0.9550 c3        1 NGS      0.214400
      7 O1          1.9880    2.3450    0.2260 oh        1 NGS     -0.582800
      8 O3          2.3690   -2.4770   -0.2970 oh        1 NGS     -0.622800
      9 O5          0.2610    1.0060    0.5210 os        1 NGS     -0.439600
     10 O6         -2.7420   -0.9610    0.4390 os        1 NGS     -0.620500
     11 N           3.6580    0.0480   -0.6170 n         1 NGS     -0.540900
     12 C           4.7040    0.6390    0.0640 c         1 NGS      0.658100
     13 O           4.5250    1.2330    1.1490 o         1 NGS     -0.624100
     14 CH3         6.0680    0.5830   -0.5820 c3        1 NGS     -0.173100
     15 S          -3.9340   -0.4500   -0.7320 s6        1 NGS      1.700300
     16 O7         -4.7090   -1.5970   -0.8270 o         1 NGS     -0.747533
     17 O8         -4.5030    0.6530   -0.1060 o         1 NGS     -0.747533
     18 O9         -3.0970   -0.1720   -1.8120 o         1 NGS     -0.747533
     19 O4         -0.4290   -2.5380   -0.2470 oh        1 NGS     -0.637800
     20 H1          1.2150    1.3090   -1.3410 h2        1 NGS      0.080700
     21 H2          2.4960   -0.1880    1.1160 h1        1 NGS      0.083700
     22 H3          1.3600   -1.2320   -1.6120 h1        1 NGS      0.052700
     23 H4          0.4540   -1.5790    1.3560 h1        1 NGS      0.048700
     24 H5         -0.8350    0.0350   -0.9950 h1        1 NGS      0.097700
     25 H6         -1.5690   -0.3880    2.0030 h1        1 NGS      0.037700
     26 H6A        -2.2270    0.9790    0.9720 h1        1 NGS      0.037700
     27 HO3         1.7640   -3.2320   -0.3200 ho        1 NGS      0.429000
     28 HN          3.8620   -0.5720   -1.3650 hn        1 NGS      0.312500
     29 HH3         6.3910   -0.4750   -0.7260 hc        1 NGS      0.060367
     30 HH3A        6.0490    1.0990   -1.5720 hc        1 NGS      0.060367
     31 HH3B        6.8010    1.1010    0.0820 hc        1 NGS      0.060367
     32 HO4        -1.3860   -2.3770   -0.1850 ho        1 NGS      0.467000
     33 H14         2.2860    2.1950    1.1350 ho        1 NGS      0.425000
@<TRIPOS>BOND
     1    1    2 1   
     2    1    7 1   
     3    1    9 1   
     4    1   20 1   
     5    2    3 1   
     6    2   11 1   
     7    2   21 1   
     8    3    4 1   
     9    3    8 1   
    10    3   22 1   
    11    4    5 1   
    12    4   19 1   
    13    4   23 1   
    14    5    6 1   
    15    5    9 1   
    16    5   24 1   
    17    6   10 1   
    18    6   25 1   
    19    6   26 1   
    20    7   33 1   
    21    8   27 1   
    22   10   15 1   
    23   11   12 1   
    24   11   28 1   
    25   12   13 2   
    26   12   14 1   
    27   14   29 1   
    28   14   30 1   
    29   14   31 1   
    30   15   16 1   
    31   15   17 1   
    32   15   18 1   
    33   19   32 1   
@<TRIPOS>SUBSTRUCTURE
     1 NGS         1 TEMP              0 ****  ****    0 ROOT
