@<TRIPOS>MOLECULE
NGT
   27    28     1     0     0
SMALL
bcc


@<TRIPOS>ATOM
      1 C1          0.0010   -0.0770    0.0730 c3        1 NGT      0.231200
      2 C2          1.5580   -0.0240    0.0910 c3        1 NGT      0.043500
      3 C3          2.1840   -0.0090    1.5080 c3        1 NGT      0.116100
      4 C4          1.2770    0.6900    2.5310 c3        1 NGT      0.124100
      5 C5         -0.0990    0.0200    2.4790 c3        1 NGT      0.092100
      6 C6         -1.0500    0.6020    3.5300 c3        1 NGT      0.142400
      7 C7          1.2460   -2.0340   -0.9980 c2        1 NGT      0.474200
      8 C8          1.5370   -3.2760   -1.7570 c3        1 NGT     -0.133400
      9 N2          2.1180   -1.1240   -0.6850 n2        1 NGT     -0.599900
     10 S1         -0.4100   -1.7680   -0.5230 ss        1 NGT     -0.337300
     11 O3          3.3940    0.7290    1.4910 oh        1 NGT     -0.606800
     12 O4          1.7940    0.5230    3.8380 oh        1 NGT     -0.592800
     13 O5         -0.6980    0.3210    1.2150 os        1 NGT     -0.386600
     14 O6         -2.2490   -0.1350    3.5980 oh        1 NGT     -0.592800
     15 HC1        -0.3940    0.6180   -0.7220 h2        1 NGT      0.105700
     16 HC2         1.8710    0.9350   -0.4210 h1        1 NGT      0.105700
     17 HC3         2.3880   -1.0580    1.8700 h1        1 NGT      0.066700
     18 HC4         1.1930    1.7850    2.2890 h1        1 NGT      0.065700
     19 HC5        -0.0120   -1.0930    2.6040 h1        1 NGT      0.081700
     20 HC61       -0.5750    0.5020    4.5430 h1        1 NGT      0.067700
     21 HC62       -1.2600    1.6790    3.3000 h1        1 NGT      0.067700
     22 HC81        0.6240   -3.9190   -1.8040 hc        1 NGT      0.068033
     23 HC82        1.8550   -3.0250   -2.8010 hc        1 NGT      0.068033
     24 HC83        2.3610   -3.8540   -1.2670 hc        1 NGT      0.068033
     25 HO3         4.0010    0.2670    0.8970 ho        1 NGT      0.425000
     26 HO4         2.6990    0.8620    3.8180 ho        1 NGT      0.426000
     27 HO6        -2.6630   -0.0890    2.7270 ho        1 NGT      0.409000
@<TRIPOS>BOND
     1    1    2 1   
     2    1   10 1   
     3    1   13 1   
     4    1   15 1   
     5    2    3 1   
     6    2    9 1   
     7    2   16 1   
     8    3    4 1   
     9    3   11 1   
    10    3   17 1   
    11    4    5 1   
    12    4   12 1   
    13    4   18 1   
    14    5    6 1   
    15    5   13 1   
    16    5   19 1   
    17    6   14 1   
    18    6   20 1   
    19    6   21 1   
    20    7    8 1   
    21    7    9 2   
    22    7   10 1   
    23    8   22 1   
    24    8   23 1   
    25    8   24 1   
    26   11   25 1   
    27   12   26 1   
    28   14   27 1   
@<TRIPOS>SUBSTRUCTURE
     1 NGT         1 TEMP              0 ****  ****    0 ROOT
