@<TRIPOS>MOLECULE
NGT
   27    28     1     0     0
SMALL
bcc


@<TRIPOS>ATOM
      1 C1          0.5370    1.1370    0.4020 c3        1 NGT      0.223200
      2 C2         -0.8870    0.7260    0.8910 c3        1 NGT      0.080500
      3 C3         -1.7900    0.0100   -0.1430 c3        1 NGT      0.164100
      4 C4         -1.2230   -0.0010   -1.5720 c3        1 NGT      0.078100
      5 C5          0.2810   -0.2650   -1.5270 c3        1 NGT      0.061100
      6 C6          0.9040   -0.3700   -2.9220 c3        1 NGT      0.137400
      7 C7          0.3950   -0.2770    2.5330 c2        1 NGT      0.463200
      8 C8          0.7580   -1.0300    3.7600 c3        1 NGT     -0.130400
      9 N2         -0.8120   -0.0560    2.1190 n2        1 NGT     -0.576900
     10 S1          1.7060    0.3830    1.5940 ss        1 NGT     -0.337300
     11 O3         -3.0120    0.7340   -0.1350 oh        1 NGT     -0.596800
     12 O4         -1.9280   -1.0340   -2.2440 oh        1 NGT     -0.595800
     13 O5          0.8970    0.8790   -0.9280 os        1 NGT     -0.390600
     14 O6          2.2820   -0.6560   -2.8540 oh        1 NGT     -0.588800
     15 HC1         0.6700    2.2500    0.4970 h2        1 NGT      0.107700
     16 HC2        -1.4250    1.6890    1.1670 h1        1 NGT      0.117700
     17 HC3        -1.9830   -1.0600    0.1610 h1        1 NGT      0.079700
     18 HC4        -1.4200    0.9900   -2.0710 h1        1 NGT      0.066700
     19 HC5         0.5140   -1.1870   -0.9280 h1        1 NGT      0.082700
     20 HC61        0.4530   -1.2400   -3.4700 h1        1 NGT      0.054200
     21 HC62        0.7290    0.5820   -3.4910 h1        1 NGT      0.054200
     22 HC81        1.8700   -1.1260    3.8350 hc        1 NGT      0.067367
     23 HC82        0.3800   -0.4960    4.6680 hc        1 NGT      0.067367
     24 HC83        0.3080   -2.0550    3.7400 hc        1 NGT      0.067367
     25 HO3        -3.6380    0.2170   -0.6580 ho        1 NGT      0.418000
     26 HO4        -1.6860   -0.9800   -3.1770 ho        1 NGT      0.410000
     27 HO6         2.6910    0.0340   -2.3130 ho        1 NGT      0.418000
@<TRIPOS>BOND
     1    1    2 1   
     2    1   10 1   
     3    1   13 1   
     4    1   15 1   
     5    2    3 1   
     6    2    9 1   
     7    2   16 1   
     8    3    4 1   
     9    3   11 1   
    10    3   17 1   
    11    4    5 1   
    12    4   12 1   
    13    4   18 1   
    14    5    6 1   
    15    5   13 1   
    16    5   19 1   
    17    6   14 1   
    18    6   20 1   
    19    6   21 1   
    20    7    8 1   
    21    7    9 2   
    22    7   10 1   
    23    8   22 1   
    24    8   23 1   
    25    8   24 1   
    26   11   25 1   
    27   12   26 1   
    28   14   27 1   
@<TRIPOS>SUBSTRUCTURE
     1 NGT         1 TEMP              0 ****  ****    0 ROOT
