@<TRIPOS>MOLECULE
NGT
   27    28     1     0     0
SMALL
bcc


@<TRIPOS>ATOM
      1 C1          0.0180   -0.0670    0.0630 c3        1 NGT      0.231200
      2 C2          1.5750   -0.0290    0.1010 c3        1 NGT      0.043500
      3 C3          2.1830   -0.0220    1.5250 c3        1 NGT      0.116100
      4 C4          1.2710    0.6830    2.5380 c3        1 NGT      0.124100
      5 C5         -0.1110    0.0270    2.4680 c3        1 NGT      0.092100
      6 C6         -1.0690    0.6160    3.5080 c3        1 NGT      0.142400
      7 C7          1.2570   -2.0340   -0.9960 c2        1 NGT      0.474200
      8 C8          1.5460   -3.2780   -1.7530 c3        1 NGT     -0.133400
      9 N2          2.1340   -1.1330   -0.6700 n2        1 NGT     -0.599900
     10 S1         -0.4020   -1.7520   -0.5410 ss        1 NGT     -0.337300
     11 O3          3.4010    0.7040    1.5250 oh        1 NGT     -0.606800
     12 O4          1.7690    0.5090    3.8520 oh        1 NGT     -0.592800
     13 O5         -0.6910    0.3360    1.1970 os        1 NGT     -0.386600
     14 O6         -2.2760   -0.1100    3.5600 oh        1 NGT     -0.592800
     15 HC1        -0.3600    0.6340   -0.7350 h2        1 NGT      0.105700
     16 HC2         1.9040    0.9280   -0.4060 h1        1 NGT      0.105700
     17 HC3         2.3730   -1.0740    1.8880 h1        1 NGT      0.066700
     18 HC4         1.2000    1.7800    2.2970 h1        1 NGT      0.065700
     19 HC5        -0.0360   -1.0870    2.5920 h1        1 NGT      0.081700
     20 HC61       -1.2670    1.6960    3.2770 h1        1 NGT      0.067700
     21 HC62       -0.6080    0.5100    4.5270 h1        1 NGT      0.067700
     22 HC81        0.6210   -3.9020   -1.8300 hc        1 NGT      0.068033
     23 HC82        1.9000   -3.0290   -2.7850 hc        1 NGT      0.068033
     24 HC83        2.3420   -3.8740   -1.2400 hc        1 NGT      0.068033
     25 HO3         4.0100    0.2370    0.9380 ho        1 NGT      0.425000
     26 HO4         2.6780    0.8400    3.8440 ho        1 NGT      0.426000
     27 HO6        -2.6780   -0.0580    2.6830 ho        1 NGT      0.409000
@<TRIPOS>BOND
     1    1    2 1   
     2    1   10 1   
     3    1   13 1   
     4    1   15 1   
     5    2    3 1   
     6    2    9 1   
     7    2   16 1   
     8    3    4 1   
     9    3   11 1   
    10    3   17 1   
    11    4    5 1   
    12    4   12 1   
    13    4   18 1   
    14    5    6 1   
    15    5   13 1   
    16    5   19 1   
    17    6   14 1   
    18    6   20 1   
    19    6   21 1   
    20    7    8 1   
    21    7    9 2   
    22    7   10 1   
    23    8   22 1   
    24    8   23 1   
    25    8   24 1   
    26   11   25 1   
    27   12   26 1   
    28   14   27 1   
@<TRIPOS>SUBSTRUCTURE
     1 NGT         1 TEMP              0 ****  ****    0 ROOT
