@<TRIPOS>MOLECULE
NGT
   27    28     1     0     0
SMALL
bcc


@<TRIPOS>ATOM
      1 C1          0.0190   -0.0850    0.0580 c3        1 NGT      0.231200
      2 C2          1.5750   -0.0410    0.0970 c3        1 NGT      0.043500
      3 C3          2.1830   -0.0130    1.5210 c3        1 NGT      0.116100
      4 C4          1.2670    0.7020    2.5240 c3        1 NGT      0.124100
      5 C5         -0.1120    0.0400    2.4620 c3        1 NGT      0.092100
      6 C6         -1.0730    0.6390    3.4930 c3        1 NGT      0.142400
      7 C7          1.2660   -2.0610   -0.9740 c2        1 NGT      0.474200
      8 C8          1.5600   -3.3130   -1.7150 c3        1 NGT     -0.133400
      9 N2          2.1390   -1.1530   -0.6600 n2        1 NGT     -0.599900
     10 S1         -0.3940   -1.7800   -0.5230 ss        1 NGT     -0.337300
     11 O3          3.3980    0.7170    1.5110 oh        1 NGT     -0.606800
     12 O4          1.7660    0.5480    3.8400 oh        1 NGT     -0.592800
     13 O5         -0.6930    0.3300    1.1870 os        1 NGT     -0.386600
     14 O6         -2.2780   -0.0900    3.5550 oh        1 NGT     -0.592800
     15 HC1        -0.3620    0.6030   -0.7490 h2        1 NGT      0.105700
     16 HC2         1.9010    0.9100   -0.4230 h1        1 NGT      0.105700
     17 HC3         2.3760   -1.0590    1.8970 h1        1 NGT      0.066700
     18 HC4         1.1930    1.7960    2.2690 h1        1 NGT      0.065700
     19 HC5        -0.0330   -1.0720    2.6010 h1        1 NGT      0.081700
     20 HC61       -1.2740    1.7150    3.2490 h1        1 NGT      0.067700
     21 HC62       -0.6120    0.5480    4.5140 h1        1 NGT      0.067700
     22 HC81        2.3790   -3.8860   -1.2140 hc        1 NGT      0.068033
     23 HC82        0.6450   -3.9550   -1.7590 hc        1 NGT      0.068033
     24 HC83        1.8830   -3.0750   -2.7600 hc        1 NGT      0.068033
     25 HO3         4.0090    0.2460    0.9310 ho        1 NGT      0.425000
     26 HO4         2.6740    0.8820    3.8280 ho        1 NGT      0.426000
     27 HO6        -2.6790   -0.0510    2.6770 ho        1 NGT      0.409000
@<TRIPOS>BOND
     1    1    2 1   
     2    1   10 1   
     3    1   13 1   
     4    1   15 1   
     5    2    3 1   
     6    2    9 1   
     7    2   16 1   
     8    3    4 1   
     9    3   11 1   
    10    3   17 1   
    11    4    5 1   
    12    4   12 1   
    13    4   18 1   
    14    5    6 1   
    15    5   13 1   
    16    5   19 1   
    17    6   14 1   
    18    6   20 1   
    19    6   21 1   
    20    7    8 1   
    21    7    9 2   
    22    7   10 1   
    23    8   22 1   
    24    8   23 1   
    25    8   24 1   
    26   11   25 1   
    27   12   26 1   
    28   14   27 1   
@<TRIPOS>SUBSTRUCTURE
     1 NGT         1 TEMP              0 ****  ****    0 ROOT
