@<TRIPOS>MOLECULE
NGV
   42    45     1     0     0
SMALL
bcc


@<TRIPOS>ATOM
      1 O17         0.2710   -0.8340    0.0130 o         1 NGV     -0.526000
      2 C14         1.2930   -0.1510   -0.0710 c         1 NGV      0.644300
      3 O16         1.6840    0.5590    1.0330 os        1 NGV     -0.429900
      4 C15         0.8380    0.4720    2.1820 c3        1 NGV      0.122700
      5 C10         2.1970    0.0170   -1.2290 ce        1 NGV     -0.123400
      6 C9          3.4480   -0.5000   -1.2230 c2        1 NGV     -0.000400
      7 C13         4.0190   -1.2540   -0.0830 c3        1 NGV     -0.080900
      8 C8          4.3420   -0.3710   -2.4010 c3        1 NGV     -0.166200
      9 C19         1.6740    0.7420   -2.3800 ca        1 NGV      0.060200
     10 C20         2.5330    1.0680   -3.4390 ca        1 NGV     -0.198600
     11 C7          3.9650    0.7190   -3.3690 c         1 NGV      0.585700
     12 O22         4.8310    1.2600   -4.0620 o         1 NGV     -0.495100
     13 C11         0.3230    1.1220   -2.4400 ca        1 NGV     -0.134000
     14 C18        -0.1730    1.8000   -3.5490 ca        1 NGV     -0.062600
     15 C17         0.6580    2.1240   -4.6360 ca        1 NGV     -0.240600
     16 C5          0.0970    2.8300   -5.8050 c         1 NGV      0.607300
     17 O20         0.8170    3.4370   -6.6120 o         1 NGV     -0.531100
     18 C6          2.0220    1.7660   -4.5670 ca        1 NGV      0.246100
     19 O21         2.9360    2.0030   -5.5460 oh        1 NGV     -0.468100
     20 C12        -1.6090    2.1750   -3.5540 c         1 NGV      0.579300
     21 O18        -2.2760    2.2110   -2.5130 o         1 NGV     -0.503100
     22 C21        -2.2020    2.4800   -4.8730 ca        1 NGV     -0.095600
     23 C1         -3.5900    2.4680   -5.0150 ca        1 NGV     -0.121000
     24 C2         -4.1700    2.7350   -6.2580 ca        1 NGV     -0.074000
     25 C3         -3.3700    3.0140   -7.3580 ca        1 NGV     -0.204000
     26 C16        -1.3690    2.7760   -5.9650 ca        1 NGV     -0.161600
     27 C4         -1.9700    3.0360   -7.2140 ca        1 NGV      0.174100
     28 O19        -1.1380    3.2890   -8.2730 oh        1 NGV     -0.462100
     29 H151        1.3370    1.1410    2.9250 h1        1 NGV      0.054033
     30 H152       -0.1880    0.8330    1.9280 h1        1 NGV      0.054033
     31 H153        0.7950   -0.5840    2.5420 h1        1 NGV      0.054033
     32 H131        4.9090   -0.7080    0.3220 hc        1 NGV      0.062033
     33 H132        4.3530   -2.2670   -0.4240 hc        1 NGV      0.062033
     34 H133        3.2800   -1.3800    0.7460 hc        1 NGV      0.062033
     35 H81         4.3340   -1.3450   -2.9690 hc        1 NGV      0.097700
     36 H82         5.4000   -0.1990   -2.0580 hc        1 NGV      0.097700
     37 H11        -0.3630    0.8790   -1.6090 ha        1 NGV      0.177000
     38 H21         2.5550    2.5580   -6.2490 ho        1 NGV      0.463000
     39 H1         -4.2210    2.2500   -4.1380 ha        1 NGV      0.163000
     40 H2         -5.2660    2.7230   -6.3640 ha        1 NGV      0.145000
     41 H3         -3.8210    3.2220   -8.3390 ha        1 NGV      0.143000
     42 H19        -1.6870    3.4860   -9.0480 ho        1 NGV      0.423000
@<TRIPOS>BOND
     1    1    2 2   
     2    2    3 1   
     3    2    5 1   
     4    3    4 1   
     5    4   29 1   
     6    4   30 1   
     7    4   31 1   
     8    5    6 2   
     9    5    9 1   
    10    6    7 1   
    11    6    8 1   
    12    7   32 1   
    13    7   33 1   
    14    7   34 1   
    15    8   11 1   
    16    8   35 1   
    17    8   36 1   
    18    9   10 ar  
    19    9   13 ar  
    20   10   11 1   
    21   10   18 ar  
    22   11   12 2   
    23   13   14 ar  
    24   13   37 1   
    25   14   15 ar  
    26   14   20 1   
    27   15   16 1   
    28   15   18 ar  
    29   16   17 2   
    30   16   26 1   
    31   18   19 1   
    32   19   38 1   
    33   20   21 2   
    34   20   22 1   
    35   22   23 ar  
    36   22   26 ar  
    37   23   24 ar  
    38   23   39 1   
    39   24   25 ar  
    40   24   40 1   
    41   25   27 ar  
    42   25   41 1   
    43   26   27 ar  
    44   27   28 1   
    45   28   42 1   
@<TRIPOS>SUBSTRUCTURE
     1 NGV         1 TEMP              0 ****  ****    0 ROOT
