@<TRIPOS>MOLECULE
NGV
   42    40     1     0     0
SMALL
bcc


@<TRIPOS>ATOM
      1 O17         0.1710   -1.9590    3.5890 o         1 NGV     -0.331000
      2 C14         0.9900   -1.0090    3.3180 c1        1 NGV      0.343000
      3 O16         1.1020    0.1210    4.2090 o         1 NGV     -0.270000
      4 C15         0.4660   -0.0710    5.4660 c3        1 NGV     -0.068000
      5 C10         1.7460   -1.0130    1.9990 c2        1 NGV     -0.108000
      6 C9          3.1090   -1.6520    1.9220 c1        1 NGV     -0.003000
      7 C13         3.8280   -2.0680    3.2260 c2        1 NGV     -0.205000
      8 C8          3.7920   -1.8320    0.5620 c3        1 NGV     -0.190000
      9 C19         1.0600   -0.5380    0.7300 c2        1 NGV      0.075000
     10 C20         1.7610   -0.5320   -0.4790 c1        1 NGV     -0.232000
     11 C7          3.2520   -0.9440   -0.5050 c1        1 NGV      0.288000
     12 O22         3.9570   -0.6420   -1.4660 o         1 NGV     -0.326000
     13 C11        -0.2910   -0.1160    0.7660 c2        1 NGV     -0.138000
     14 C18        -0.9420    0.3200   -0.4460 c1        1 NGV     -0.041000
     15 C17        -0.2350    0.3230   -1.6530 c1        1 NGV     -0.161000
     16 C5         -0.9560    0.7420   -2.9770 c2        1 NGV      0.316000
     17 O20        -0.3590    0.6430   -4.0710 o         1 NGV     -0.227000
     18 C6          1.1120   -0.0990   -1.6840 c2        1 NGV      0.203000
     19 O21         1.9070    0.5010   -2.6640 oh        1 NGV     -0.221000
     20 C12        -2.3700    0.8410   -0.4040 c2        1 NGV      0.302000
     21 O18        -2.9660    0.8350    0.6100 o         1 NGV     -0.266000
     22 C21        -3.0880    1.2330   -1.7130 c2        1 NGV     -0.083000
     23 C1         -4.3630    1.7190   -1.6620 c2        1 NGV     -0.120000
     24 C2         -5.0000    2.1420   -2.8300 c1        1 NGV     -0.080000
     25 C3         -4.3240    2.0670   -4.0690 c1        1 NGV     -0.201000
     26 C16        -2.4060    1.1540   -2.9430 c2        1 NGV     -0.135000
     27 C4         -3.0430    1.5790   -4.1230 c2        1 NGV      0.123000
     28 O19        -2.6040    1.1780   -5.4200 oh        1 NGV     -0.216000
     29 H151       -0.5270   -0.1690    5.3330 h1        1 NGV      0.093667
     30 H152        0.6460    0.7190    6.0490 h1        1 NGV      0.093667
     31 H153        0.8320   -0.9080    5.9040 h1        1 NGV      0.093667
     32 H131        4.6980   -2.3880    3.0270 ha        1 NGV      0.102667
     33 H132        3.2870   -2.8090    3.6910 ha        1 NGV      0.102667
     34 H133        3.8900   -1.3390    3.7830 ha        1 NGV      0.102667
     35 H81         3.8500   -2.7500    0.1560 hc        1 NGV      0.142500
     36 H82         4.6850   -1.6710    0.7300 hc        1 NGV      0.142500
     37 H11        -0.7590   -0.0330    1.6330 ha        1 NGV      0.170000
     38 H21         2.1600   -0.0950   -3.2350 ho        1 NGV      0.261000
     39 H1         -4.8620    1.7730   -0.7500 ha        1 NGV      0.160000
     40 H2         -5.8960    2.4860   -2.7900 ha        1 NGV      0.144000
     41 H3         -4.7560    2.3500   -4.8580 ha        1 NGV      0.142000
     42 H19        -2.5530    1.9090   -5.9640 ho        1 NGV      0.221000
@<TRIPOS>BOND
     1    1    2 1   
     2    2    5 1   
     3    3    4 1   
     4    4   29 1   
     5    4   30 1   
     6    4   31 1   
     7    5    6 1   
     8    5    9 1   
     9    6    8 1   
    10    7   32 1   
    11    7   33 1   
    12    7   34 1   
    13    8   11 1   
    14    8   35 1   
    15    8   36 1   
    16    9   10 1   
    17    9   13 1   
    18   10   18 1   
    19   11   12 1   
    20   13   14 1   
    21   13   37 1   
    22   14   20 1   
    23   15   16 1   
    24   15   18 1   
    25   16   17 1   
    26   16   26 1   
    27   18   19 1   
    28   19   38 1   
    29   20   21 1   
    30   20   22 1   
    31   22   23 1   
    32   22   26 1   
    33   23   24 1   
    34   23   39 1   
    35   24   40 1   
    36   25   27 1   
    37   25   41 1   
    38   26   27 1   
    39   27   28 1   
    40   28   42 1   
@<TRIPOS>SUBSTRUCTURE
     1 NGV         1 TEMP              0 ****  ****    0 ROOT
