@<TRIPOS>MOLECULE
NGV
   42    45     1     0     0
SMALL
bcc


@<TRIPOS>ATOM
      1 O17         9.0970    2.4260   12.5070 o         1 NGV     -0.524000
      2 C14         9.5480    2.1880   13.6290 c         1 NGV      0.644300
      3 O16        10.8960    2.3320   13.8240 os        1 NGV     -0.429900
      4 C15        11.6690    2.7130   12.6840 c3        1 NGV      0.122700
      5 C10         8.8210    1.7590   14.8430 ce        1 NGV     -0.126400
      6 C9          8.6770    2.5870   15.9050 c2        1 NGV      0.003600
      7 C13         9.2280    3.9600   15.9550 c3        1 NGV     -0.081900
      8 C8          7.9100    2.1740   17.1060 c3        1 NGV     -0.167200
      9 C19         8.2470    0.4190   14.8350 ca        1 NGV      0.067200
     10 C20         7.6820   -0.0970   16.0080 ca        1 NGV     -0.203600
     11 C7          7.7130    0.6880   17.2560 c         1 NGV      0.586700
     12 O22         7.5770    0.1900   18.3770 o         1 NGV     -0.495100
     13 C11         8.2590   -0.3660   13.6690 ca        1 NGV     -0.135000
     14 C18         7.6960   -1.6360   13.6640 ca        1 NGV     -0.057600
     15 C17         7.0920   -2.1740   14.8170 ca        1 NGV     -0.244600
     16 C5          6.4690   -3.5060   14.7670 c         1 NGV      0.624300
     17 O20         6.1260   -4.0930   15.8150 o         1 NGV     -0.606100
     18 C6          7.1040   -1.3980   15.9980 ca        1 NGV      0.254100
     19 O21         6.5510   -1.7680   17.1830 oh        1 NGV     -0.469100
     20 C12         7.7550   -2.4170   12.4050 c         1 NGV      0.577300
     21 O18         8.5140   -2.0960   11.4830 o         1 NGV     -0.504100
     22 C21         6.8560   -3.5850   12.3010 ca        1 NGV     -0.093600
     23 C1          6.6460   -4.1450   11.0450 ca        1 NGV     -0.120000
     24 C2          5.8010   -5.2540   10.9010 ca        1 NGV     -0.078000
     25 C3          5.1860   -5.8060   12.0060 ca        1 NGV     -0.153000
     26 C16         6.2370   -4.1210   13.4520 ca        1 NGV     -0.225600
     27 C4          5.4080   -5.2490   13.2920 ca        1 NGV      0.203100
     28 O19         4.7420   -5.9030   14.2870 oh        1 NGV     -0.498100
     29 H151       11.3410    3.7160   12.3210 h1        1 NGV      0.054367
     30 H152       12.7160    2.7390   13.0760 h1        1 NGV      0.054367
     31 H153       11.5530    1.9540   11.8730 h1        1 NGV      0.054367
     32 H131        9.7340    4.2420   14.9980 hc        1 NGV      0.063033
     33 H132        8.4080    4.6940   16.1570 hc        1 NGV      0.063033
     34 H133        9.9790    4.0340   16.7820 hc        1 NGV      0.063033
     35 H81         6.8870    2.6470   17.0620 hc        1 NGV      0.098700
     36 H82         8.4140    2.5670   18.0330 hc        1 NGV      0.098700
     37 H11         8.7110    0.0240   12.7390 ha        1 NGV      0.180000
     38 H21         6.2910   -2.7040   17.1740 ho        1 NGV      0.465000
     39 H1          7.1520   -3.7120   10.1660 ha        1 NGV      0.163000
     40 H2          5.6360   -5.6860    9.9010 ha        1 NGV      0.147000
     41 H3          4.5220   -6.6800   11.9220 ha        1 NGV      0.161000
     42 H19         4.9550   -5.5260   15.1560 ho        1 NGV      0.462000
@<TRIPOS>BOND
     1    1    2 2   
     2    2    3 1   
     3    2    5 1   
     4    3    4 1   
     5    4   29 1   
     6    4   30 1   
     7    4   31 1   
     8    5    6 2   
     9    5    9 1   
    10    6    7 1   
    11    6    8 1   
    12    7   32 1   
    13    7   33 1   
    14    7   34 1   
    15    8   11 1   
    16    8   35 1   
    17    8   36 1   
    18    9   10 ar  
    19    9   13 ar  
    20   10   11 1   
    21   10   18 ar  
    22   11   12 2   
    23   13   14 ar  
    24   13   37 1   
    25   14   15 ar  
    26   14   20 1   
    27   15   16 1   
    28   15   18 ar  
    29   16   17 2   
    30   16   26 1   
    31   18   19 1   
    32   19   38 1   
    33   20   21 2   
    34   20   22 1   
    35   22   23 ar  
    36   22   26 ar  
    37   23   24 ar  
    38   23   39 1   
    39   24   25 ar  
    40   24   40 1   
    41   25   27 ar  
    42   25   41 1   
    43   26   27 ar  
    44   27   28 1   
    45   28   42 1   
@<TRIPOS>SUBSTRUCTURE
     1 NGV         1 TEMP              0 ****  ****    0 ROOT
