@<TRIPOS>MOLECULE
NGV
   42    45     1     0     0
SMALL
bcc


@<TRIPOS>ATOM
      1 O17         0.3530   -1.1330   -0.1410 o         1 NGV     -0.521000
      2 C14         1.2710   -0.3130   -0.1610 c         1 NGV      0.643300
      3 O16         1.4690    0.4580    0.9550 os        1 NGV     -0.432900
      4 C15         0.5570    0.2600    2.0380 c3        1 NGV      0.122700
      5 C10         2.2280   -0.0260   -1.2520 ce        1 NGV     -0.124400
      6 C9          3.5330   -0.3690   -1.1590 c2        1 NGV      0.000600
      7 C13         4.1230   -1.0280    0.0280 c3        1 NGV     -0.084900
      8 C8          4.4830   -0.1020   -2.2680 c3        1 NGV     -0.166200
      9 C19         1.6910    0.6320   -2.4370 ca        1 NGV      0.061200
     10 C20         2.4950    0.7690   -3.5760 ca        1 NGV     -0.198600
     11 C7          3.8490    0.1870   -3.6030 c         1 NGV      0.586700
     12 O22         4.4630   -0.0560   -4.6460 o         1 NGV     -0.496100
     13 C11         0.3820    1.1430   -2.4420 ca        1 NGV     -0.132000
     14 C18        -0.1220    1.7850   -3.5670 ca        1 NGV     -0.061600
     15 C17         0.6660    1.9560   -4.7200 ca        1 NGV     -0.241600
     16 C5          0.1050    2.6530   -5.8940 c         1 NGV      0.606300
     17 O20         0.8320    3.1450   -6.7710 o         1 NGV     -0.531100
     18 C6          1.9850    1.4560   -4.7130 ca        1 NGV      0.247100
     19 O21         2.8690    1.5850   -5.7380 oh        1 NGV     -0.466100
     20 C12        -1.5150    2.2930   -3.5170 c         1 NGV      0.580300
     21 O18        -2.1140    2.4470   -2.4460 o         1 NGV     -0.505100
     22 C21        -2.1550    2.5830   -4.8190 ca        1 NGV     -0.095600
     23 C1         -3.5440    2.6990   -4.8830 ca        1 NGV     -0.121000
     24 C2         -4.1700    2.9530   -6.1070 ca        1 NGV     -0.074000
     25 C3         -3.4160    3.0910   -7.2630 ca        1 NGV     -0.204000
     26 C16        -1.3650    2.7360   -5.9710 ca        1 NGV     -0.160600
     27 C4         -2.0130    2.9840   -7.1980 ca        1 NGV      0.174100
     28 O19        -1.2270    3.0960   -8.3140 oh        1 NGV     -0.462100
     29 H151       -0.4870    0.4670    1.7000 h1        1 NGV      0.053700
     30 H152        0.8960    1.0000    2.8040 h1        1 NGV      0.053700
     31 H153        0.6380   -0.7880    2.4140 h1        1 NGV      0.053700
     32 H131        4.2510   -2.1220   -0.1760 hc        1 NGV      0.063367
     33 H132        5.1290   -0.5940    0.2540 hc        1 NGV      0.063367
     34 H133        3.4750   -0.9080    0.9320 hc        1 NGV      0.063367
     35 H81         5.1120    0.7940   -1.9930 hc        1 NGV      0.098700
     36 H82         5.1860   -0.9740   -2.3830 hc        1 NGV      0.098700
     37 H11        -0.2600    1.0360   -1.5500 ha        1 NGV      0.171000
     38 H21         2.4570    2.0320   -6.4970 ho        1 NGV      0.462000
     39 H1         -4.1380    2.5920   -3.9610 ha        1 NGV      0.163000
     40 H2         -5.2670    3.0420   -6.1510 ha        1 NGV      0.145000
     41 H3         -3.9040    3.2870   -8.2290 ha        1 NGV      0.144000
     42 H19        -1.8010    3.2970   -9.0690 ho        1 NGV      0.424000
@<TRIPOS>BOND
     1    1    2 2   
     2    2    3 1   
     3    2    5 1   
     4    3    4 1   
     5    4   29 1   
     6    4   30 1   
     7    4   31 1   
     8    5    6 2   
     9    5    9 1   
    10    6    7 1   
    11    6    8 1   
    12    7   32 1   
    13    7   33 1   
    14    7   34 1   
    15    8   11 1   
    16    8   35 1   
    17    8   36 1   
    18    9   10 ar  
    19    9   13 ar  
    20   10   11 1   
    21   10   18 ar  
    22   11   12 2   
    23   13   14 ar  
    24   13   37 1   
    25   14   15 ar  
    26   14   20 1   
    27   15   16 1   
    28   15   18 ar  
    29   16   17 2   
    30   16   26 1   
    31   18   19 1   
    32   19   38 1   
    33   20   21 2   
    34   20   22 1   
    35   22   23 ar  
    36   22   26 ar  
    37   23   24 ar  
    38   23   39 1   
    39   24   25 ar  
    40   24   40 1   
    41   25   27 ar  
    42   25   41 1   
    43   26   27 ar  
    44   27   28 1   
    45   28   42 1   
@<TRIPOS>SUBSTRUCTURE
     1 NGV         1 TEMP              0 ****  ****    0 ROOT
