@<TRIPOS>MOLECULE
NGW
   29    30     1     0     0
SMALL
bcc


@<TRIPOS>ATOM
      1 O4         -0.0680    0.1900   -0.1110 oh        1 NGW     -0.590800
      2 C4          1.3470    0.1020   -0.0440 c3        1 NGW      0.087100
      3 C3          1.7920    0.0660    1.4240 c3        1 NGW      0.071100
      4 C5          1.7750   -1.2160   -0.6990 c3        1 NGW      0.091100
      5 O3          1.4960    1.2950    2.0680 oh        1 NGW     -0.598800
      6 C2          3.3260   -0.1210    1.5280 c3        1 NGW      0.142500
      7 N2          3.7810   -0.4470    2.8740 n3        1 NGW     -0.807200
      8 C1          3.8260   -1.2240    0.5680 c3        1 NGW      0.254200
      9 C7          3.6440   -1.8750    3.1430 c3        1 NGW      0.276600
     10 C8          4.7020   -2.4100    4.0870 c3        1 NGW     -0.081100
     11 S1          3.7620   -2.7530    1.5510 ss        1 NGW     -0.385200
     12 O5          3.2050   -1.2840   -0.6880 os        1 NGW     -0.390600
     13 C6          1.3720   -1.2730   -2.1740 c3        1 NGW      0.141400
     14 O6          1.6020   -2.5510   -2.7220 oh        1 NGW     -0.591800
     15 H4         -0.2890    1.1240   -0.0200 ho        1 NGW      0.408000
     16 HA          1.8260    0.9710   -0.5730 h1        1 NGW      0.064700
     17 H3          1.2530   -0.7770    1.9440 h1        1 NGW      0.060700
     18 H5          1.3500   -2.0960   -0.1410 h1        1 NGW      0.087700
     19 HB          0.5350    1.3350    2.1520 ho        1 NGW      0.408000
     20 H2          3.8110    0.8620    1.2500 h1        1 NGW      0.103700
     21 HC          3.2990    0.1060    3.5580 hn        1 NGW      0.392800
     22 H1          4.9070   -1.0480    0.3020 h2        1 NGW      0.114700
     23 H6          2.5420   -2.7440   -2.6100 ho        1 NGW      0.412000
     24 H7          2.6280   -2.1320    3.5580 h2        1 NGW      0.046700
     25 H81C        4.5930   -1.9440    5.0970 hc        1 NGW      0.051367
     26 H82C        4.5780   -3.5150    4.1850 hc        1 NGW      0.051367
     27 H83C        5.7310   -2.1960    3.7080 hc        1 NGW      0.051367
     28 H61C        0.2650   -1.1040   -2.2560 h1        1 NGW      0.062700
     29 H62C        1.9310   -0.4910   -2.7540 h1        1 NGW      0.062700
@<TRIPOS>BOND
     1    1    2 1   
     2    1   15 1   
     3    2    3 1   
     4    2    4 1   
     5    2   16 1   
     6    3    5 1   
     7    3    6 1   
     8    3   17 1   
     9    4   12 1   
    10    4   13 1   
    11    4   18 1   
    12    5   19 1   
    13    6    7 1   
    14    6    8 1   
    15    6   20 1   
    16    7    9 1   
    17    7   21 1   
    18    8   11 1   
    19    8   12 1   
    20    8   22 1   
    21    9   10 1   
    22    9   11 1   
    23    9   24 1   
    24   10   25 1   
    25   10   26 1   
    26   10   27 1   
    27   13   14 1   
    28   13   28 1   
    29   13   29 1   
    30   14   23 1   
@<TRIPOS>SUBSTRUCTURE
     1 NGW         1 TEMP              0 ****  ****    0 ROOT
