@<TRIPOS>MOLECULE
NGW
   29    30     1     0     0
SMALL
bcc


@<TRIPOS>ATOM
      1 O4          2.0190    2.1070   -0.9700 oh        1 NGW     -0.597800
      2 C4          1.4400    1.3050    0.0490 c3        1 NGW      0.077100
      3 C3         -0.0700    1.5920   -0.0260 c3        1 NGW      0.160100
      4 C5          1.6890   -0.1850   -0.1880 c3        1 NGW      0.056100
      5 O3         -0.3160    2.9060    0.4490 oh        1 NGW     -0.591800
      6 C2         -0.8930    0.6550    0.8930 c3        1 NGW      0.141500
      7 N2         -2.2840    0.6200    0.4500 n3        1 NGW     -0.784200
      8 C1         -0.3230   -0.7900    0.9650 c3        1 NGW      0.228200
      9 C7         -2.4900   -0.4260   -0.5280 c3        1 NGW      0.288600
     10 C8         -3.8700   -1.0450   -0.5460 c3        1 NGW     -0.097100
     11 S1         -1.2540   -1.7590   -0.2500 ss        1 NGW     -0.445200
     12 O5          1.0720   -0.9130    0.8790 os        1 NGW     -0.386600
     13 C6          3.1750   -0.5480   -0.1100 c3        1 NGW      0.138400
     14 O6          3.3920   -1.9070   -0.4130 oh        1 NGW     -0.589800
     15 H4          2.9770    2.0410   -0.8710 ho        1 NGW      0.410000
     16 HA          1.8400    1.6090    1.0560 h1        1 NGW      0.062700
     17 H3         -0.3980    1.5020   -1.1000 h1        1 NGW      0.068700
     18 H5          1.2560   -0.5140   -1.1720 h1        1 NGW      0.090700
     19 HB          0.1270    3.5040   -0.1690 ho        1 NGW      0.419000
     20 H2         -0.8540    1.1060    1.9290 h1        1 NGW      0.095700
     21 HC         -2.9040    0.5220    1.2330 hn        1 NGW      0.378800
     22 H1         -0.5450   -1.2390    1.9740 h2        1 NGW      0.101700
     23 H6          2.8350   -2.4260    0.1820 ho        1 NGW      0.418000
     24 H7         -2.2530    0.0040   -1.5410 h2        1 NGW      0.089700
     25 H81C       -4.6400   -0.2710   -0.7890 hc        1 NGW      0.054700
     26 H82C       -3.9050   -1.8400   -1.3300 hc        1 NGW      0.054700
     27 H83C       -4.1240   -1.5070    0.4390 hc        1 NGW      0.054700
     28 H61C        3.7430    0.0190   -0.8950 h1        1 NGW      0.052200
     29 H62C        3.5750   -0.3070    0.9100 h1        1 NGW      0.052200
@<TRIPOS>BOND
     1    1    2 1   
     2    1   15 1   
     3    2    3 1   
     4    2    4 1   
     5    2   16 1   
     6    3    5 1   
     7    3    6 1   
     8    3   17 1   
     9    4   12 1   
    10    4   13 1   
    11    4   18 1   
    12    5   19 1   
    13    6    7 1   
    14    6    8 1   
    15    6   20 1   
    16    7    9 1   
    17    7   21 1   
    18    8   11 1   
    19    8   12 1   
    20    8   22 1   
    21    9   10 1   
    22    9   11 1   
    23    9   24 1   
    24   10   25 1   
    25   10   26 1   
    26   10   27 1   
    27   13   14 1   
    28   13   28 1   
    29   13   29 1   
    30   14   23 1   
@<TRIPOS>SUBSTRUCTURE
     1 NGW         1 TEMP              0 ****  ****    0 ROOT
