@<TRIPOS>MOLECULE
NGW
   29    30     1     0     0
SMALL
bcc


@<TRIPOS>ATOM
      1 O4         -0.1040    0.1380   -0.0720 oh        1 NGW     -0.590800
      2 C4          1.3120    0.0770   -0.0260 c3        1 NGW      0.087100
      3 C3          1.7810    0.0510    1.4340 c3        1 NGW      0.071100
      4 C5          1.7550   -1.2340   -0.6860 c3        1 NGW      0.091100
      5 O3          1.4720    1.2760    2.0820 oh        1 NGW     -0.598800
      6 C2          3.3190   -0.1060    1.5150 c3        1 NGW      0.142500
      7 N2          3.8010   -0.4220    2.8540 n3        1 NGW     -0.807200
      8 C1          3.8250   -1.2020    0.5490 c3        1 NGW      0.254200
      9 C7          3.6960   -1.8510    3.1270 c3        1 NGW      0.276600
     10 C8          4.7780   -2.3650    4.0550 c3        1 NGW     -0.081100
     11 S1          3.8050   -2.7300    1.5350 ss        1 NGW     -0.385200
     12 O5          3.1860   -1.2750   -0.6970 os        1 NGW     -0.390600
     13 C6          1.3310   -1.3000   -2.1550 c3        1 NGW      0.141400
     14 O6          1.5750   -2.5740   -2.7050 oh        1 NGW     -0.591800
     15 H4         -0.3410    1.0690    0.0210 ho        1 NGW      0.408000
     16 HA          1.7670    0.9540   -0.5640 h1        1 NGW      0.064700
     17 H3          1.2660   -0.8000    1.9640 h1        1 NGW      0.060700
     18 H5          1.3550   -2.1200   -0.1210 h1        1 NGW      0.087700
     19 HB          0.5110    1.2980    2.1810 ho        1 NGW      0.408000
     20 H2          3.7810    0.8850    1.2290 h1        1 NGW      0.103700
     21 HC          3.3200    0.1230    3.5450 hn        1 NGW      0.392800
     22 H1          4.8980   -1.0060    0.2660 h2        1 NGW      0.114700
     23 H6          2.5200   -2.7510   -2.6070 ho        1 NGW      0.412000
     24 H7          2.6910   -2.1270    3.5590 h2        1 NGW      0.046700
     25 H81C        5.7960   -2.1320    3.6600 hc        1 NGW      0.051367
     26 H82C        4.6760   -3.4730    4.1570 hc        1 NGW      0.051367
     27 H83C        4.6760   -1.9000    5.0670 hc        1 NGW      0.051367
     28 H61C        0.2190   -1.1520   -2.2200 h1        1 NGW      0.062700
     29 H62C        1.8670   -0.5090   -2.7440 h1        1 NGW      0.062700
@<TRIPOS>BOND
     1    1    2 1   
     2    1   15 1   
     3    2    3 1   
     4    2    4 1   
     5    2   16 1   
     6    3    5 1   
     7    3    6 1   
     8    3   17 1   
     9    4   12 1   
    10    4   13 1   
    11    4   18 1   
    12    5   19 1   
    13    6    7 1   
    14    6    8 1   
    15    6   20 1   
    16    7    9 1   
    17    7   21 1   
    18    8   11 1   
    19    8   12 1   
    20    8   22 1   
    21    9   10 1   
    22    9   11 1   
    23    9   24 1   
    24   10   25 1   
    25   10   26 1   
    26   10   27 1   
    27   13   14 1   
    28   13   28 1   
    29   13   29 1   
    30   14   23 1   
@<TRIPOS>SUBSTRUCTURE
     1 NGW         1 TEMP              0 ****  ****    0 ROOT
