@<TRIPOS>MOLECULE
NGW
   29    30     1     0     0
SMALL
bcc


@<TRIPOS>ATOM
      1 O4         -0.1120    0.1270   -0.0640 oh        1 NGW     -0.590800
      2 C4          1.3050    0.0750   -0.0200 c3        1 NGW      0.087100
      3 C3          1.7740    0.0430    1.4410 c3        1 NGW      0.071100
      4 C5          1.7570   -1.2290   -0.6880 c3        1 NGW      0.091100
      5 O3          1.4570    1.2620    2.0960 oh        1 NGW     -0.598800
      6 C2          3.3140   -0.1040    1.5200 c3        1 NGW      0.142500
      7 N2          3.7980   -0.4250    2.8570 n7        1 NGW     -0.807200
      8 C1          3.8260   -1.1900    0.5470 c3        1 NGW      0.254200
      9 C7          3.7020   -1.8570    3.1210 c3        1 NGW      0.276600
     10 C8          4.7880   -2.3700    4.0460 c3        1 NGW     -0.081100
     11 S1          3.8170   -2.7250    1.5230 ss        1 NGW     -0.385200
     12 O5          3.1880   -1.2600   -0.7000 os        1 NGW     -0.390600
     13 C6          1.3330   -1.2880   -2.1570 c3        1 NGW      0.141400
     14 O6          1.5850   -2.5580   -2.7150 oh        1 NGW     -0.591800
     15 H4         -0.3550    1.0560    0.0350 ho        1 NGW      0.408000
     16 HA          1.7540    0.9590   -0.5510 h1        1 NGW      0.064700
     17 H3          1.2650   -0.8150    1.9650 h1        1 NGW      0.060700
     18 H5          1.3630   -2.1210   -0.1280 h1        1 NGW      0.087700
     19 HB          0.4970    1.2770    2.1950 ho        1 NGW      0.408000
     20 H2          3.7690    0.8910    1.2400 h1        1 NGW      0.103700
     21 HC          3.3130    0.1120    3.5520 hn        1 NGW      0.392800
     22 H1          4.8980   -0.9860    0.2650 h2        1 NGW      0.114700
     23 H6          2.5310   -2.7280   -2.6180 ho        1 NGW      0.412000
     24 H7          2.6990   -2.1430    3.5510 h2        1 NGW      0.046700
     25 H81C        5.8040   -2.1280    3.6520 hc        1 NGW      0.051367
     26 H82C        4.6920   -3.4790    4.1400 hc        1 NGW      0.051367
     27 H83C        4.6820   -1.9120    5.0600 hc        1 NGW      0.051367
     28 H61C        1.8630   -0.4900   -2.7410 h1        1 NGW      0.062700
     29 H62C        0.2200   -1.1470   -2.2210 h1        1 NGW      0.062700
@<TRIPOS>BOND
     1    1    2 1   
     2    1   15 1   
     3    2    3 1   
     4    2    4 1   
     5    2   16 1   
     6    3    5 1   
     7    3    6 1   
     8    3   17 1   
     9    4   12 1   
    10    4   13 1   
    11    4   18 1   
    12    5   19 1   
    13    6    7 1   
    14    6    8 1   
    15    6   20 1   
    16    7    9 1   
    17    7   21 1   
    18    8   11 1   
    19    8   12 1   
    20    8   22 1   
    21    9   10 1   
    22    9   11 1   
    23    9   24 1   
    24   10   25 1   
    25   10   26 1   
    26   10   27 1   
    27   13   14 1   
    28   13   28 1   
    29   13   29 1   
    30   14   23 1   
@<TRIPOS>SUBSTRUCTURE
     1 NGW         1 TEMP              0 ****  ****    0 ROOT
