@<TRIPOS>MOLECULE
NGW
   29    30     1     0     0
SMALL
bcc


@<TRIPOS>ATOM
      1 O4         -1.4320    1.4630   -1.0530 oh        1 NGW     -0.590800
      2 C4         -0.1450    1.4630   -1.0530 c3        1 NGW      0.121100
      3 C3          0.3320    1.4630    0.3660 c3        1 NGW      0.115100
      4 C5          0.4390    0.0390   -2.0460 c3        1 NGW      0.057100
      5 O3          1.8150    1.6580    0.3670 oh        1 NGW     -0.594800
      6 C2          0.0360    0.2690    1.0670 c3        1 NGW      0.102500
      7 N2         -1.3330    0.1460    1.3530 n3        1 NGW     -0.785200
      8 C1          0.5030   -1.1330    0.2810 c3        1 NGW      0.191200
      9 C7         -1.5630   -1.3540    1.5090 c3        1 NGW      0.276600
     10 C8         -1.7600   -1.6890    2.9030 c3        1 NGW     -0.083100
     11 S1         -0.1370   -2.1070    0.9110 ss        1 NGW     -0.336200
     12 O5          0.0390   -1.1960   -1.1620 os        1 NGW     -0.406600
     13 C6          1.6280    0.0860   -2.2060 c3        1 NGW      0.108400
     14 O6          2.0080   -0.8550   -3.1860 oh        1 NGW     -0.593800
     15 H4         -1.7280    2.1220   -1.5680 ho        1 NGW      0.409000
     16 HA          0.1640    2.2840   -1.4810 h1        1 NGW      0.101700
     17 H3         -0.0830    2.2120    0.8350 h1        1 NGW      0.073700
     18 H5         -0.0230    0.0090   -2.9050 h1        1 NGW      0.102700
     19 HB          2.0160    2.3990    0.8130 ho        1 NGW      0.412000
     20 H2          0.5130    0.3030    1.9170 h1        1 NGW      0.083700
     21 HC         -1.8200    0.4560    0.6470 hn        1 NGW      0.374800
     22 H1          1.4690   -1.2590    0.3410 h2        1 NGW      0.091700
     23 H6          2.8530   -0.7150   -3.4190 ho        1 NGW      0.409000
     24 H7         -2.3360   -1.6320    0.9820 h2        1 NGW      0.080700
     25 H81C       -1.0510   -2.2910    3.1960 hc        1 NGW      0.051033
     26 H82C       -2.6260   -2.1270    3.0130 hc        1 NGW      0.051033
     27 H83C       -1.7380   -0.8740    3.4400 hc        1 NGW      0.051033
     28 H61C        1.8820    0.9820   -2.4990 h1        1 NGW      0.063700
     29 H62C        2.0780   -0.1210   -1.3650 h1        1 NGW      0.063700
@<TRIPOS>BOND
     1    1    2 1   
     2    1   15 1   
     3    2    3 1   
     4    2    4 1   
     5    2   16 1   
     6    3    5 1   
     7    3    6 1   
     8    3   17 1   
     9    4   12 1   
    10    4   13 1   
    11    4   18 1   
    12    5   19 1   
    13    6    7 1   
    14    6    8 1   
    15    6   20 1   
    16    7    9 1   
    17    7   21 1   
    18    8   11 1   
    19    8   12 1   
    20    8   22 1   
    21    9   10 1   
    22    9   11 1   
    23    9   24 1   
    24   10   25 1   
    25   10   26 1   
    26   10   27 1   
    27   13   14 1   
    28   13   28 1   
    29   13   29 1   
    30   14   23 1   
@<TRIPOS>SUBSTRUCTURE
     1 NGW         1 TEMP              0 ****  ****    0 ROOT
