@<TRIPOS>MOLECULE
NGY
   33    32     1     0     0
SMALL
bcc


@<TRIPOS>ATOM
      1 O1         -2.6030   -0.6710   -0.5030 oh        1 NGY     -0.591800
      2 C1         -1.2170   -0.6440   -0.5090 c3        1 NGY      0.332900
      3 C2         -0.7190   -0.6320    0.9280 c3        1 NGY      0.010700
      4 C3          0.7500   -0.4240    1.0150 c3        1 NGY      0.119100
      5 C4          1.1950    0.7620    0.2470 c3        1 NGY      0.086100
      6 C5          0.6890    0.7450   -1.1870 c3        1 NGY      0.061100
      7 C6          1.3810   -0.3430   -1.9310 c3        1 NGY      0.194400
      8 O3          1.4280   -1.6140    0.4860 oh        1 NGY     -0.593800
      9 O4          0.7010    1.9530    0.9010 oh        1 NGY     -0.642800
     10 O5         -0.7680    0.5320   -1.2690 os        1 NGY     -0.452600
     11 O6          1.2810   -0.0990   -3.3160 os        1 NGY     -0.596600
     12 N          -1.3970    0.4480    1.6570 n         1 NGY     -0.537900
     13 C          -2.0820    0.1670    2.8790 c         1 NGY      0.652100
     14 O          -2.1030   -0.9630    3.3150 o         1 NGY     -0.624100
     15 CH3        -2.7950    1.3020    3.6420 c3        1 NGY     -0.175100
     16 S           2.3580   -0.7050   -4.1720 s4        1 NGY      1.882600
     17 O7          2.0480   -0.5390   -5.6440 o         1 NGY     -0.683900
     18 O8          3.6420    0.0600   -4.0570 o         1 NGY     -0.683900
     19 O9          2.5500   -2.1510   -3.8160 os        1 NGY     -1.082000
     20 H1         -0.8830   -1.4610   -0.9570 h2        1 NGY      0.070700
     21 H2         -0.9390   -1.4740    1.3420 h1        1 NGY      0.106700
     22 H3          1.0010   -0.3050    1.9610 h1        1 NGY      0.088700
     23 H4          2.1840    0.7860    0.2380 h1        1 NGY      0.095700
     24 H5          0.9080    1.6070   -1.6090 h1        1 NGY      0.113700
     25 H6          2.3300   -0.3670   -1.6700 h1        1 NGY      0.025200
     26 H6A         0.9580   -1.2110   -1.7160 h1        1 NGY      0.025200
     27 HO3         1.8650   -2.0280    1.1470 ho        1 NGY      0.408000
     28 HN         -1.3890    1.2970    1.3250 hn        1 NGY      0.327500
     29 HH3        -3.5650    1.6070    3.1270 hc        1 NGY      0.060700
     30 HH3A       -3.0970    0.9690    4.5170 hc        1 NGY      0.060700
     31 HH3B       -2.1770    2.0420    3.7720 hc        1 NGY      0.060700
     32 H13         1.3580    2.4900    1.0550 ho        1 NGY      0.462000
     33 H15        -2.8920   -1.1350   -1.1990 ho        1 NGY      0.419000
@<TRIPOS>BOND
     1    1    2 1   
     2    1   33 1   
     3    2    3 1   
     4    2   10 1   
     5    2   20 1   
     6    3    4 1   
     7    3   12 1   
     8    3   21 1   
     9    4    5 1   
    10    4    8 1   
    11    4   22 1   
    12    5    6 1   
    13    5    9 1   
    14    5   23 1   
    15    6    7 1   
    16    6   10 1   
    17    6   24 1   
    18    7   11 1   
    19    7   25 1   
    20    7   26 1   
    21    8   27 1   
    22    9   32 1   
    23   11   16 1   
    24   12   13 1   
    25   12   28 1   
    26   13   14 2   
    27   13   15 1   
    28   15   29 1   
    29   15   30 1   
    30   15   31 1   
    31   16   17 1   
    32   16   18 1   
@<TRIPOS>SUBSTRUCTURE
     1 NGY         1 TEMP              0 ****  ****    0 ROOT
