@<TRIPOS>MOLECULE
NGY
   33    33     1     0     0
SMALL
bcc


@<TRIPOS>ATOM
      1 O1         -1.2030    1.6630    1.1450 oh        1 NGY     -0.646800
      2 C1         -1.4280    1.2970   -0.1980 c3        1 NGY      0.327900
      3 C2         -2.4160    0.0940   -0.2530 c3        1 NGY      0.082700
      4 C3         -1.7080   -1.1360    0.3680 c3        1 NGY      0.116100
      5 C4         -0.3780   -1.3690   -0.3760 c3        1 NGY      0.104100
      6 C5          0.5010   -0.1230   -0.2350 c3        1 NGY      0.053100
      7 C6          1.8220   -0.2530   -1.0180 c3        1 NGY      0.212400
      8 O3         -2.5700   -2.2540    0.2390 oh        1 NGY     -0.612800
      9 O4          0.2030   -2.5270    0.1960 oh        1 NGY     -0.635800
     10 O5         -0.1770    1.0160   -0.7800 os        1 NGY     -0.439600
     11 O6          2.6990   -1.0430   -0.2910 os        1 NGY     -0.616500
     12 N          -3.6640    0.4110    0.3880 n         1 NGY     -0.542900
     13 C          -4.8740    0.4090   -0.2710 c         1 NGY      0.664100
     14 O          -4.9550    0.3200   -1.5140 o         1 NGY     -0.623100
     15 CH3        -6.1150    0.5680    0.5800 c3        1 NGY     -0.175100
     16 S           3.8380   -0.3060    0.8100 s6        1 NGY      1.700300
     17 O7          2.9540    0.2970    1.7030 o         1 NGY     -0.748200
     18 O8          4.5240   -1.4230    1.2650 o         1 NGY     -0.748200
     19 O9          4.5240    0.5650   -0.0290 o         1 NGY     -0.748200
     20 H1         -1.8270    2.1730   -0.7860 h2        1 NGY      0.069700
     21 H2         -2.6160   -0.1220   -1.3450 h1        1 NGY      0.104700
     22 H3         -1.4970   -0.9560    1.4600 h1        1 NGY      0.060700
     23 H4         -0.5850   -1.5830   -1.4620 h1        1 NGY      0.049700
     24 H5          0.7360    0.0600    0.8540 h1        1 NGY      0.102700
     25 H6          1.6330   -0.7550   -2.0040 h1        1 NGY      0.035700
     26 H6A         2.2490    0.7720   -1.1960 h1        1 NGY      0.035700
     27 HO3        -2.0190   -3.0380    0.3690 ho        1 NGY      0.423000
     28 HN         -3.6500    0.4320    1.3810 hn        1 NGY      0.315500
     29 HH3        -6.2290   -0.3110    1.2590 hc        1 NGY      0.059367
     30 HH3A       -6.0600    1.4990    1.1920 hc        1 NGY      0.059367
     31 HH3B       -7.0050    0.6250   -0.0930 hc        1 NGY      0.059367
     32 H13         1.1680   -2.4080    0.2040 ho        1 NGY      0.462000
     33 H15        -0.3200    2.0570    1.2020 ho        1 NGY      0.438000
@<TRIPOS>BOND
     1    1    2 1   
     2    1   33 1   
     3    2    3 1   
     4    2   10 1   
     5    2   20 1   
     6    3    4 1   
     7    3   12 1   
     8    3   21 1   
     9    4    5 1   
    10    4    8 1   
    11    4   22 1   
    12    5    6 1   
    13    5    9 1   
    14    5   23 1   
    15    6    7 1   
    16    6   10 1   
    17    6   24 1   
    18    7   11 1   
    19    7   25 1   
    20    7   26 1   
    21    8   27 1   
    22    9   32 1   
    23   11   16 1   
    24   12   13 1   
    25   12   28 1   
    26   13   14 2   
    27   13   15 1   
    28   15   29 1   
    29   15   30 1   
    30   15   31 1   
    31   16   17 1   
    32   16   18 1   
    33   16   19 1   
@<TRIPOS>SUBSTRUCTURE
     1 NGY         1 TEMP              0 ****  ****    0 ROOT
