@<TRIPOS>MOLECULE
NGZ
   30    29     1     0     0
SMALL
bcc


@<TRIPOS>ATOM
      1 C1         -1.1790    0.0810   -0.7060 c3        1 NGZ      0.135000
      2 C2          0.3330    0.0810   -0.7060 c3        1 NGZ      0.020000
      3 C3          0.8970    0.0810    0.6670 c3        1 NGZ     -0.018000
      4 C4          0.3190   -1.0050    1.5150 c3        1 NGZ     -0.033000
      5 C5         -1.1990   -1.0020    1.5020 c3        1 NGZ     -0.037000
      6 C6         -1.6920   -2.2200    2.2210 c3        1 NGZ     -0.013000
      7 C7          1.3670    1.1480   -2.7150 c1        1 NGZ      0.308000
      8 C8          1.8570    2.3870   -3.4500 c2        1 NGZ     -0.242000
      9 N2          0.8050    1.2690   -1.4100 n3        1 NGZ     -0.363000
     10 O3          2.3320   -0.1020    0.5840 oh        1 NGZ     -0.321000
     11 O4          0.7710   -0.8310    2.8640 oh        1 NGZ     -0.318000
     12 O5         -1.7490   -0.9980    0.1470 os        1 NGZ     -0.309000
     13 O6         -3.1010   -2.2660    2.1580 oh        1 NGZ     -0.322000
     14 O7          1.4520    0.0580   -3.2400 o         1 NGZ     -0.365000
     15 O1         -1.6260    1.3020   -0.2400 oh        1 NGZ     -0.353000
     16 H1         -1.4940   -0.0420   -1.6220 h2        1 NGZ      0.130000
     17 H2          0.6490   -0.7130   -1.1780 h1        1 NGZ      0.153000
     18 H3          0.7100    0.9430    1.0860 h1        1 NGZ      0.093000
     19 H4          0.6370   -1.8670    1.1830 h1        1 NGZ      0.143000
     20 H5         -1.5160   -0.2080    1.9730 h1        1 NGZ      0.103000
     21 H61        -1.3210   -3.0190    1.7990 h1        1 NGZ      0.103000
     22 H62        -1.4080   -2.1840    3.1540 h1        1 NGZ      0.103000
     23 H81         2.5530    2.8250   -2.9230 ha        1 NGZ      0.107000
     24 H82         1.1120    3.0030   -3.5820 ha        1 NGZ      0.107000
     25 H83         2.2220    2.1280   -4.3180 ha        1 NGZ      0.107000
     26 HN2         0.7390    2.0890   -1.0170 hn        1 NGZ      0.229000
     27 HO3         2.7370    0.5020    1.0940 ho        1 NGZ      0.220000
     28 HB          0.5930   -0.0030    3.1310 ho        1 NGZ      0.205000
     29 HO6        -3.3980   -2.9380    2.6560 ho        1 NGZ      0.209000
     30 HO1        -2.4000    1.5020   -0.6270 ho        1 NGZ      0.218000
@<TRIPOS>BOND
     1    1    2 1   
     2    1   12 1   
     3    1   15 1   
     4    1   16 1   
     5    2    3 1   
     6    2    9 1   
     7    2   17 1   
     8    3    4 1   
     9    3   10 1   
    10    3   18 1   
    11    4    5 1   
    12    4   11 1   
    13    4   19 1   
    14    5    6 1   
    15    5   12 1   
    16    5   20 1   
    17    6   13 1   
    18    6   21 1   
    19    6   22 1   
    20    7    9 1   
    21    7   14 1   
    22    8   23 1   
    23    8   24 1   
    24    8   25 1   
    25    9   26 1   
    26   10   27 1   
    27   11   28 1   
    28   13   29 1   
    29   15   30 1   
@<TRIPOS>SUBSTRUCTURE
     1 NGZ         1 TEMP              0 ****  ****    0 ROOT
