@<TRIPOS>MOLECULE
NGZ
   31    31     1     0     0
SMALL
bcc


@<TRIPOS>ATOM
      1 C1         -0.0860   -0.1220   -0.1840 c3        1 NGZ      0.331900
      2 C2          1.4180    0.2210    0.0080 c3        1 NGZ      0.097500
      3 C3          1.7260    0.3430    1.5180 c3        1 NGZ      0.126100
      4 C4          1.3030   -0.9650    2.2080 c3        1 NGZ      0.105100
      5 C5         -0.1980   -1.1920    1.9740 c3        1 NGZ      0.061100
      6 C6         -0.6570   -2.5580    2.5110 c3        1 NGZ      0.131400
      7 C7          2.0890    1.2980   -2.1770 c         1 NGZ      0.558100
      8 C8          3.2040    2.1280   -2.7150 c3        1 NGZ     -0.191100
      9 N2          1.8010    1.4870   -0.7010 n4        1 NGZ     -0.677800
     10 O3          3.1150    0.5880    1.6270 oh        1 NGZ     -0.633800
     11 O4          1.5950   -0.7540    3.5750 oh        1 NGZ     -0.603800
     12 O5         -0.4870   -1.2320    0.5710 os        1 NGZ     -0.411600
     13 O6         -0.4540   -2.6110    3.9050 oh        1 NGZ     -0.594800
     14 O7          1.3880    0.4960   -2.7720 o         1 NGZ     -0.408100
     15 O1         -0.8230    0.9960    0.2480 oh        1 NGZ     -0.656800
     16 H1         -0.3120   -0.4000   -1.2560 h2        1 NGZ      0.120700
     17 H2          2.0300   -0.6210   -0.4320 hx        1 NGZ      0.131700
     18 H3          1.1540    1.2040    1.9720 h1        1 NGZ      0.089700
     19 H4          1.8990   -1.8320    1.8100 h1        1 NGZ      0.072700
     20 H5         -0.7840   -0.3590    2.4510 h1        1 NGZ      0.074700
     21 H61        -0.0200   -3.3800    2.0870 h1        1 NGZ      0.078200
     22 H62        -1.7290   -2.7310    2.2350 h1        1 NGZ      0.078200
     23 H81         3.2500    1.9860   -3.8280 hc        1 NGZ      0.117367
     24 H82         3.0470    3.2150   -2.4970 hc        1 NGZ      0.117367
     25 H83         4.1820    1.8010   -2.2730 hc        1 NGZ      0.117367
     26 HN2         2.6390    1.8680   -0.2360 hn        1 NGZ      0.478300
     27 HO3         3.3730    0.3890    2.5420 ho        1 NGZ      0.470000
     28 HB          1.3660   -1.5670    4.0550 ho        1 NGZ      0.459000
     29 HO6        -1.1790   -2.1360    4.3320 ho        1 NGZ      0.421000
     30 HO1        -1.7620    0.7600    0.2430 ho        1 NGZ      0.463000
     31 H22         1.0280    2.1600   -0.5920 hn        1 NGZ      0.478300
@<TRIPOS>BOND
     1    1    2 1   
     2    1   12 1   
     3    1   15 1   
     4    1   16 1   
     5    2    3 1   
     6    2    9 1   
     7    2   17 1   
     8    3    4 1   
     9    3   10 1   
    10    3   18 1   
    11    4    5 1   
    12    4   11 1   
    13    4   19 1   
    14    5    6 1   
    15    5   12 1   
    16    5   20 1   
    17    6   13 1   
    18    6   21 1   
    19    6   22 1   
    20    7    8 1   
    21    7    9 1   
    22    7   14 2   
    23    8   23 1   
    24    8   24 1   
    25    8   25 1   
    26    9   26 1   
    27    9   31 1   
    28   10   27 1   
    29   11   28 1   
    30   13   29 1   
    31   15   30 1   
@<TRIPOS>SUBSTRUCTURE
     1 NGZ         1 TEMP              0 ****  ****    0 ROOT
