@<TRIPOS>MOLECULE
NGZ
   31    31     1     0     0
SMALL
bcc


@<TRIPOS>ATOM
      1 C1         -0.0850   -0.0810   -0.1550 c3        1 NGZ      0.332900
      2 C2          1.4320    0.2180   -0.0000 c3        1 NGZ      0.096500
      3 C3          1.7780    0.3430    1.5010 c3        1 NGZ      0.125100
      4 C4          1.3280   -0.9430    2.2180 c3        1 NGZ      0.105100
      5 C5         -0.1830   -1.1230    2.0170 c3        1 NGZ      0.096100
      6 C6         -0.6850   -2.4650    2.5710 c3        1 NGZ      0.131400
      7 C7          2.0760    1.2680   -2.2100 c         1 NGZ      0.557100
      8 C8          3.1440    2.1250   -2.7970 c3        1 NGZ     -0.191100
      9 N2          1.8360    1.4680   -0.7270 ny        1 NGZ     -0.676800
     10 O3          3.1770    0.5420    1.5740 oh        1 NGZ     -0.634800
     11 O4          1.6780   -0.7280    3.5710 oh        1 NGZ     -0.602800
     12 O5         -0.5000   -1.1730    0.6190 os        1 NGZ     -0.414600
     13 O6         -0.6710   -2.3290    3.9810 oh        1 NGZ     -0.617800
     14 O7          1.3810    0.4370   -2.7700 o         1 NGZ     -0.408100
     15 O1         -0.7800    1.0620    0.2800 oh        1 NGZ     -0.656800
     16 H1         -0.3430   -0.3630   -1.2200 h2        1 NGZ      0.120700
     17 H2          2.0090   -0.6440   -0.4480 hx        1 NGZ      0.132700
     18 H3          1.2470    1.2270    1.9600 h1        1 NGZ      0.089700
     19 H4          1.8900   -1.8330    1.8190 h1        1 NGZ      0.070700
     20 H5         -0.7360   -0.2700    2.4990 h1        1 NGZ      0.090700
     21 H61        -1.7220   -2.6630    2.1920 h1        1 NGZ      0.057200
     22 H62        -0.0050   -3.3000    2.2570 h1        1 NGZ      0.057200
     23 H81         4.1480    1.8230   -2.3990 hc        1 NGZ      0.117367
     24 H82         2.9710    3.2080   -2.5730 hc        1 NGZ      0.117367
     25 H83         3.1440    1.9820   -3.9110 hc        1 NGZ      0.117367
     26 HN2         2.6990    1.8220   -0.2870 hn        1 NGZ      0.478300
     27 HO3         3.4530    0.3390    2.4820 ho        1 NGZ      0.472000
     28 HB          1.2180   -1.3890    4.1130 ho        1 NGZ      0.460000
     29 HO6        -1.1600   -3.0790    4.3440 ho        1 NGZ      0.436000
     30 HO1        -1.7230    0.8460    0.3240 ho        1 NGZ      0.464000
     31 H22         1.0890    2.1670   -0.5980 hn        1 NGZ      0.478300
@<TRIPOS>BOND
     1    1    2 1   
     2    1   12 1   
     3    1   15 1   
     4    1   16 1   
     5    2    3 1   
     6    2    9 1   
     7    2   17 1   
     8    3    4 1   
     9    3   10 1   
    10    3   18 1   
    11    4    5 1   
    12    4   11 1   
    13    4   19 1   
    14    5    6 1   
    15    5   12 1   
    16    5   20 1   
    17    6   13 1   
    18    6   21 1   
    19    6   22 1   
    20    7    8 1   
    21    7    9 1   
    22    7   14 2   
    23    8   23 1   
    24    8   24 1   
    25    8   25 1   
    26    9   26 1   
    27    9   31 1   
    28   10   27 1   
    29   11   28 1   
    30   13   29 1   
    31   15   30 1   
@<TRIPOS>SUBSTRUCTURE
     1 NGZ         1 TEMP              0 ****  ****    0 ROOT
