@<TRIPOS>MOLECULE
NGZ
   30    30     1     0     0
SMALL
bcc


@<TRIPOS>ATOM
      1 C1         -0.0280   -1.3190   -0.3210 c3        1 NGZ      0.319900
      2 C2          0.8110   -0.0730    0.0840 c3        1 NGZ      0.095700
      3 C3          0.0290    1.1860   -0.3640 c3        1 NGZ      0.130100
      4 C4         -1.3690    1.1510    0.2820 c3        1 NGZ      0.081100
      5 C5         -2.1060   -0.1240   -0.1400 c3        1 NGZ      0.071100
      6 C6         -3.4350   -0.2840    0.6060 c3        1 NGZ      0.135400
      7 C7          3.2600   -0.2220    0.3750 c         1 NGZ      0.665100
      8 C8          4.6070   -0.0690   -0.2860 c3        1 NGZ     -0.174100
      9 N2          2.1440   -0.1410   -0.4450 n         1 NGZ     -0.554900
     10 O3          0.7470    2.3250    0.0710 oh        1 NGZ     -0.594800
     11 O4         -2.0330    2.3110   -0.1980 oh        1 NGZ     -0.600800
     12 O5         -1.3430   -1.2850    0.2010 os        1 NGZ     -0.457600
     13 O6         -4.1240   -1.4400    0.1850 oh        1 NGZ     -0.591800
     14 O7          3.1490   -0.4530    1.5940 o         1 NGZ     -0.605100
     15 O1         -0.1610   -1.3550   -1.7200 oh        1 NGZ     -0.622800
     16 H1          0.4130   -2.2680    0.0970 h2        1 NGZ      0.088700
     17 H2          0.8700   -0.0750    1.2160 h1        1 NGZ      0.113700
     18 H3         -0.0800    1.2050   -1.4850 h1        1 NGZ      0.066700
     19 H4         -1.2720    1.1970    1.4030 h1        1 NGZ      0.062700
     20 H5         -2.2790   -0.1150   -1.2520 h1        1 NGZ      0.078700
     21 H61        -3.2520   -0.3180    1.7130 h1        1 NGZ      0.051700
     22 H62        -4.1170    0.5710    0.3510 h1        1 NGZ      0.051700
     23 H81         5.4030   -0.2380    0.4800 hc        1 NGZ      0.067700
     24 H82         4.7320   -0.8110   -1.1110 hc        1 NGZ      0.067700
     25 H83         4.7160    0.9620   -0.7010 hc        1 NGZ      0.067700
     26 HN2         2.2570    0.1310   -1.3920 hn        1 NGZ      0.316500
     27 HO3         0.1890    3.0910   -0.1240 ho        1 NGZ      0.422000
     28 HB         -2.8690    2.3760    0.2800 ho        1 NGZ      0.411000
     29 HO6        -3.5430   -2.1930    0.3540 ho        1 NGZ      0.415000
     30 HO1        -0.6680   -2.1470   -1.9430 ho        1 NGZ      0.420000
@<TRIPOS>BOND
     1    1    2 1   
     2    1   12 1   
     3    1   15 1   
     4    1   16 1   
     5    2    3 1   
     6    2    9 1   
     7    2   17 1   
     8    3    4 1   
     9    3   10 1   
    10    3   18 1   
    11    4    5 1   
    12    4   11 1   
    13    4   19 1   
    14    5    6 1   
    15    5   12 1   
    16    5   20 1   
    17    6   13 1   
    18    6   21 1   
    19    6   22 1   
    20    7    8 1   
    21    7    9 1   
    22    7   14 2   
    23    8   23 1   
    24    8   24 1   
    25    8   25 1   
    26    9   26 1   
    27   10   27 1   
    28   11   28 1   
    29   13   29 1   
    30   15   30 1   
@<TRIPOS>SUBSTRUCTURE
     1 NGZ         1 TEMP              0 ****  ****    0 ROOT
