@<TRIPOS>MOLECULE
NH
    2     1     1     0     0
SMALL
bcc


@<TRIPOS>ATOM
      1 N          -0.0100    0.0630   -0.0000 n1        1 NH      -0.082000
      2 H          -0.9240   -0.3080   -0.0330 hn        1 NH       0.082000
@<TRIPOS>BOND
     1    1    2 1   
@<TRIPOS>SUBSTRUCTURE
     1 NH          1 TEMP              0 ****  ****    0 ROOT
