@<TRIPOS>MOLECULE
NH1
   72    75     1     0     0
SMALL
bcc


@<TRIPOS>ATOM
      1 O4          0.0680   -0.0870   -1.1560 oh        1 NH1     -0.498100
      2 C23         1.3740   -0.1810   -0.7300 ca        1 NH1      0.122100
      3 C20         1.7200   -0.5570    0.5750 ca        1 NH1     -0.183000
      4 C17         3.0650   -0.6290    0.9290 ca        1 NH1     -0.091000
      5 C29         4.0650   -0.3320   -0.0020 ca        1 NH1     -0.116300
      6 C14         3.7010    0.0450   -1.3020 ca        1 NH1     -0.091000
      7 C25         2.3650    0.1230   -1.6770 ca        1 NH1     -0.183000
      8 C8          5.5000   -0.4010    0.3860 c3        1 NH1     -0.031100
      9 C7          6.1640   -1.6390   -0.1860 c3        1 NH1     -0.070400
     10 C3          7.6650   -1.7260    0.1330 c3        1 NH1      0.180800
     11 O2          7.8060   -1.2500    1.4820 os        1 NH1     -0.421900
     12 C1          9.0350   -0.7850    1.9110 c         1 NH1      0.736800
     13 O1          9.0010   -0.5130    3.1120 o         1 NH1     -0.566500
     14 C6         10.1500   -0.6150    0.9700 ce        1 NH1     -0.210600
     15 S1         11.7460   -0.5790    1.5500 ss        1 NH1     -0.097500
     16 C21        12.1320    1.0620    1.8430 ca        1 NH1     -0.064100
     17 C24        11.1700    1.8900    2.4280 ca        1 NH1     -0.076000
     18 C12        11.4140    3.2250    2.7310 ca        1 NH1     -0.139300
     19 C2         12.6990    3.7590    2.4590 ca        1 NH1      0.145600
     20 N1         13.0300    5.0690    2.8210 nh        1 NH1     -0.817200
     21 C15        13.6740    2.9130    1.8850 ca        1 NH1     -0.195000
     22 C18        13.4160    1.5770    1.5740 ca        1 NH1      0.004700
     23 C26        14.5090    0.7250    0.9690 c3        1 NH1     -0.007700
     24 C10        15.8500    1.4540    0.8900 c3        1 NH1     -0.090767
     25 C27        14.7330   -0.5230    1.8210 c3        1 NH1     -0.090767
     26 C9         14.1240    0.3250   -0.4530 c3        1 NH1     -0.090767
     27 C11        10.3520    4.0530    3.3470 c3        1 NH1     -0.046800
     28 C5          9.8410   -0.6030   -0.3580 c2        1 NH1      0.197900
     29 O3         10.8180   -0.3680   -1.2810 oh        1 NH1     -0.457100
     30 C4          8.4510   -0.8400   -0.8420 c3        1 NH1     -0.131200
     31 C22         8.1880   -3.1750    0.0740 c3        1 NH1     -0.088700
     32 C13         7.5710   -4.0690    1.1540 c3        1 NH1     -0.076400
     33 C28         6.8610   -5.2160    0.4510 c3        1 NH1     -0.079900
     34 C16         7.3810   -5.2450   -0.9790 c3        1 NH1     -0.079900
     35 C19         7.9390   -3.8580   -1.2710 c3        1 NH1     -0.076400
     36 H37        -0.5060   -0.3120   -0.4090 ho        1 NH1      0.419000
     37 H35         0.9380   -0.7900    1.3120 ha        1 NH1      0.142000
     38 H34         3.3410   -0.9210    1.9540 ha        1 NH1      0.133500
     39 H33         4.4850    0.2840   -2.0370 ha        1 NH1      0.133500
     40 H36         2.0720    0.4180   -2.6940 ha        1 NH1      0.142000
     41 H6          6.0310    0.5180    0.0170 hc        1 NH1      0.059700
     42 H7          5.6010   -0.4110    1.5050 hc        1 NH1      0.059700
     43 H4          6.0380   -1.6480   -1.3000 hc        1 NH1      0.058200
     44 H5          5.6570   -2.5530    0.2240 hc        1 NH1      0.058200
     45 H9         10.1800    1.4630    2.6750 ha        1 NH1      0.151000
     46 H13        12.2520    5.6890    2.8820 hn        1 NH1      0.388300
     47 H14        13.7980    5.4520    2.3170 hn        1 NH1      0.388300
     48 H8         14.6700    3.3430    1.6900 ha        1 NH1      0.133000
     49 H15        16.6220    0.7680    0.4650 hc        1 NH1      0.040256
     50 H16        16.1860    1.7750    1.9050 hc        1 NH1      0.040256
     51 H17        15.7800    2.3460    0.2230 hc        1 NH1      0.040256
     52 H18        13.8820   -1.2430    1.7290 hc        1 NH1      0.040256
     53 H19        14.8540   -0.2420    2.8950 hc        1 NH1      0.040256
     54 H20        15.6580   -1.0530    1.4840 hc        1 NH1      0.040256
     55 H21        14.0630    1.2300   -1.1030 hc        1 NH1      0.040256
     56 H22        14.8940   -0.3660   -0.8710 hc        1 NH1      0.040256
     57 H23        13.1300   -0.1910   -0.4610 hc        1 NH1      0.040256
     58 H10        10.1020    4.9270    2.6940 hc        1 NH1      0.041367
     59 H11         9.4180    3.4590    3.5020 hc        1 NH1      0.041367
     60 H12        10.6840    4.4420    4.3430 hc        1 NH1      0.041367
     61 H3         10.4170   -0.3760   -2.1650 ho        1 NH1      0.427000
     62 H1          7.9360    0.1550   -0.9450 hc        1 NH1      0.083200
     63 H2          8.4600   -1.3330   -1.8500 hc        1 NH1      0.083200
     64 H32         9.2980   -3.1180    0.2560 hc        1 NH1      0.059700
     65 H24         8.3810   -4.4630    1.8190 hc        1 NH1      0.049200
     66 H25         6.8670   -3.4910    1.8040 hc        1 NH1      0.049200
     67 H26         7.0540   -6.1870    0.9690 hc        1 NH1      0.044200
     68 H27         5.7540   -5.0460    0.4560 hc        1 NH1      0.044200
     69 H28         6.5690   -5.5100   -1.6990 hc        1 NH1      0.044200
     70 H29         8.1870   -6.0140   -1.0820 hc        1 NH1      0.044200
     71 H30         7.2110   -3.2780   -1.8920 hc        1 NH1      0.049200
     72 H31         8.8910   -3.9300   -1.8540 hc        1 NH1      0.049200
@<TRIPOS>BOND
     1    1    2 1   
     2    1   36 1   
     3    2    3 ar  
     4    2    7 ar  
     5    3    4 ar  
     6    3   37 1   
     7    4    5 ar  
     8    4   38 1   
     9    5    6 ar  
    10    5    8 1   
    11    6    7 ar  
    12    6   39 1   
    13    7   40 1   
    14    8    9 1   
    15    8   41 1   
    16    8   42 1   
    17    9   10 1   
    18    9   43 1   
    19    9   44 1   
    20   10   11 1   
    21   10   30 1   
    22   10   31 1   
    23   11   12 1   
    24   12   13 2   
    25   12   14 1   
    26   14   15 1   
    27   14   28 2   
    28   15   16 1   
    29   16   17 ar  
    30   16   22 ar  
    31   17   18 ar  
    32   17   45 1   
    33   18   19 ar  
    34   18   27 1   
    35   19   20 1   
    36   19   21 ar  
    37   20   46 1   
    38   20   47 1   
    39   21   22 ar  
    40   21   48 1   
    41   22   23 1   
    42   23   24 1   
    43   23   25 1   
    44   23   26 1   
    45   24   49 1   
    46   24   50 1   
    47   24   51 1   
    48   25   52 1   
    49   25   53 1   
    50   25   54 1   
    51   26   55 1   
    52   26   56 1   
    53   26   57 1   
    54   27   58 1   
    55   27   59 1   
    56   27   60 1   
    57   28   29 1   
    58   28   30 1   
    59   29   61 1   
    60   30   62 1   
    61   30   63 1   
    62   31   32 1   
    63   31   35 1   
    64   31   64 1   
    65   32   33 1   
    66   32   65 1   
    67   32   66 1   
    68   33   34 1   
    69   33   67 1   
    70   33   68 1   
    71   34   35 1   
    72   34   69 1   
    73   34   70 1   
    74   35   71 1   
    75   35   72 1   
@<TRIPOS>SUBSTRUCTURE
     1 NH1         1 TEMP              0 ****  ****    0 ROOT
