@<TRIPOS>MOLECULE
NH1
   72    75     1     0     0
SMALL
bcc


@<TRIPOS>ATOM
      1 O4          1.9800    0.5350    8.8390 oh        1 NH1     -0.498100
      2 C23         1.6610    0.4090    7.5060 ca        1 NH1      0.122100
      3 C20         1.5190   -0.9000    7.0160 ca        1 NH1     -0.183500
      4 C17         1.1960   -1.0880    5.6770 ca        1 NH1     -0.091500
      5 C29         1.0130    0.0060    4.8210 ca        1 NH1     -0.115300
      6 C14         1.1590    1.3020    5.3250 ca        1 NH1     -0.091500
      7 C25         1.4820    1.5140    6.6620 ca        1 NH1     -0.183500
      8 C8          0.6770   -0.2100    3.3870 c3        1 NH1     -0.031100
      9 C7         -0.8010    0.0210    3.1300 c3        1 NH1     -0.069400
     10 C3         -1.1880   -0.1170    1.6490 c3        1 NH1      0.175800
     11 O2         -0.4130   -1.2200    1.1460 os        1 NH1     -0.421900
     12 C1         -0.1980   -1.3340   -0.2140 c         1 NH1      0.748800
     13 O1          0.3680   -2.3960   -0.4830 o         1 NH1     -0.573500
     14 C6         -0.5730   -0.2490   -1.1230 ce        1 NH1     -0.294600
     15 S1         -0.7960   -0.5230   -2.7790 ss        1 NH1     -0.113500
     16 C21         0.7260   -0.3240   -3.5370 ca        1 NH1     -0.069100
     17 C24         1.8970   -0.5870   -2.8230 ca        1 NH1     -0.077000
     18 C12         3.1640   -0.4400   -3.3780 ca        1 NH1     -0.130300
     19 C2          3.2680   -0.0180   -4.7280 ca        1 NH1      0.142600
     20 N1          4.5130    0.2440   -5.3110 nh        1 NH1     -0.816200
     21 C15         2.0790    0.2050   -5.4590 ca        1 NH1     -0.189000
     22 C18         0.8120    0.0600   -4.8920 ca        1 NH1     -0.007300
     23 C26        -0.4170    0.2980   -5.7400 c3        1 NH1     -0.009700
     24 C10        -0.0750    0.6070   -7.1970 c3        1 NH1     -0.090100
     25 C27        -1.2990   -0.9490   -5.7460 c3        1 NH1     -0.090100
     26 C9         -1.2040    1.4900   -5.2020 c3        1 NH1     -0.090100
     27 C11         4.3690   -0.7260   -2.5670 c3        1 NH1     -0.047800
     28 C5         -0.8460    0.9690   -0.5670 c2        1 NH1      0.233900
     29 O3         -1.1410    2.0930   -1.2630 oh        1 NH1     -0.479100
     30 C4         -0.8480    1.1820    0.9080 c3        1 NH1     -0.095200
     31 C22        -2.6810   -0.4570    1.4700 c3        1 NH1     -0.085700
     32 C13        -3.0470   -1.8320    2.0380 c3        1 NH1     -0.076400
     33 C28        -4.1190   -1.6210    3.0970 c3        1 NH1     -0.079400
     34 C16        -4.6760   -0.2210    2.8860 c3        1 NH1     -0.079400
     35 C19        -3.6190    0.5620    2.1190 c3        1 NH1     -0.076400
     36 H37         2.0550    1.4800    9.0390 ho        1 NH1      0.418000
     37 H35         1.6650   -1.7520    7.6940 ha        1 NH1      0.142000
     38 H34         1.0870   -2.1110    5.2850 ha        1 NH1      0.134500
     39 H33         1.0200    2.1660    4.6570 ha        1 NH1      0.134500
     40 H36         1.5970    2.5350    7.0530 ha        1 NH1      0.142000
     41 H6          0.9460   -1.2570    3.0780 hc        1 NH1      0.059700
     42 H7          1.2850    0.4860    2.7500 hc        1 NH1      0.059700
     43 H4         -1.0800    1.0520    3.4730 hc        1 NH1      0.058700
     44 H5         -1.4000   -0.7140    3.7290 hc        1 NH1      0.058700
     45 H9          1.8170   -0.9450   -1.7800 ha        1 NH1      0.150000
     46 H13         4.5140    0.2070   -6.3060 hn        1 NH1      0.388800
     47 H14         5.2710   -0.2570   -4.9010 hn        1 NH1      0.388800
     48 H8          2.1810    0.5140   -6.5120 ha        1 NH1      0.135000
     49 H15        -1.0190    0.7380   -7.7820 hc        1 NH1      0.040033
     50 H16         0.5120    1.5530   -7.2760 hc        1 NH1      0.040033
     51 H17         0.5030   -0.2310   -7.6540 hc        1 NH1      0.040033
     52 H18        -0.7080   -1.8350   -6.0790 hc        1 NH1      0.040033
     53 H19        -1.7230   -1.1640   -4.7340 hc        1 NH1      0.040033
     54 H20        -2.1550   -0.8030   -6.4490 hc        1 NH1      0.040033
     55 H21        -0.5480    2.3900   -5.1370 hc        1 NH1      0.040033
     56 H22        -2.0600    1.7170   -5.8830 hc        1 NH1      0.040033
     57 H23        -1.6140    1.2650   -4.1860 hc        1 NH1      0.040033
     58 H10         4.9770   -1.5400   -3.0360 hc        1 NH1      0.043033
     59 H11         5.0100    0.1870   -2.4790 hc        1 NH1      0.043033
     60 H12         4.0900   -1.0570   -1.5360 hc        1 NH1      0.043033
     61 H3         -1.1000    1.8920   -2.2220 ho        1 NH1      0.457000
     62 H1          0.1730    1.5400    1.2110 hc        1 NH1      0.093700
     63 H2         -1.5900    1.9780    1.1840 hc        1 NH1      0.093700
     64 H32        -2.8700   -0.4720    0.3600 hc        1 NH1      0.055700
     65 H24        -2.1490   -2.3460    2.4640 hc        1 NH1      0.049950
     66 H25        -3.4370   -2.4830    1.2150 hc        1 NH1      0.049950
     67 H26        -3.6740   -1.7100    4.1200 hc        1 NH1      0.043450
     68 H27        -4.9240   -2.3910    3.0130 hc        1 NH1      0.043450
     69 H28        -4.9110    0.2720    3.8620 hc        1 NH1      0.043450
     70 H29        -5.6260   -0.2670    2.2960 hc        1 NH1      0.043450
     71 H30        -3.0620    1.2360    2.8180 hc        1 NH1      0.049950
     72 H31        -4.0920    1.2090    1.3390 hc        1 NH1      0.049950
@<TRIPOS>BOND
     1    1    2 1   
     2    1   36 1   
     3    2    3 ar  
     4    2    7 ar  
     5    3    4 ar  
     6    3   37 1   
     7    4    5 ar  
     8    4   38 1   
     9    5    6 ar  
    10    5    8 1   
    11    6    7 ar  
    12    6   39 1   
    13    7   40 1   
    14    8    9 1   
    15    8   41 1   
    16    8   42 1   
    17    9   10 1   
    18    9   43 1   
    19    9   44 1   
    20   10   11 1   
    21   10   30 1   
    22   10   31 1   
    23   11   12 1   
    24   12   13 2   
    25   12   14 1   
    26   14   15 1   
    27   14   28 2   
    28   15   16 1   
    29   16   17 ar  
    30   16   22 ar  
    31   17   18 ar  
    32   17   45 1   
    33   18   19 ar  
    34   18   27 1   
    35   19   20 1   
    36   19   21 ar  
    37   20   46 1   
    38   20   47 1   
    39   21   22 ar  
    40   21   48 1   
    41   22   23 1   
    42   23   24 1   
    43   23   25 1   
    44   23   26 1   
    45   24   49 1   
    46   24   50 1   
    47   24   51 1   
    48   25   52 1   
    49   25   53 1   
    50   25   54 1   
    51   26   55 1   
    52   26   56 1   
    53   26   57 1   
    54   27   58 1   
    55   27   59 1   
    56   27   60 1   
    57   28   29 1   
    58   28   30 1   
    59   29   61 1   
    60   30   62 1   
    61   30   63 1   
    62   31   32 1   
    63   31   35 1   
    64   31   64 1   
    65   32   33 1   
    66   32   65 1   
    67   32   66 1   
    68   33   34 1   
    69   33   67 1   
    70   33   68 1   
    71   34   35 1   
    72   34   69 1   
    73   34   70 1   
    74   35   71 1   
    75   35   72 1   
@<TRIPOS>SUBSTRUCTURE
     1 NH1         1 TEMP              0 ****  ****    0 ROOT
