@<TRIPOS>MOLECULE
NH1
   72    75     1     0     0
SMALL
bcc


@<TRIPOS>ATOM
      1 O4          0.0100   -0.1190   -0.9530 oh        1 NH1     -0.497100
      2 C23         1.3560   -0.1320   -0.6660 ca        1 NH1      0.122100
      3 C20         1.7790   -1.0450    0.3150 ca        1 NH1     -0.182500
      4 C17         3.1280   -1.1030    0.6440 ca        1 NH1     -0.092000
      5 C29         4.0610   -0.2690    0.0120 ca        1 NH1     -0.115300
      6 C14         3.6230    0.6360   -0.9590 ca        1 NH1     -0.092000
      7 C25         2.2750    0.7120   -1.3040 ca        1 NH1     -0.182500
      8 C8          5.4990   -0.3420    0.3890 c3        1 NH1     -0.031100
      9 C7          6.1470   -1.5990   -0.1610 c3        1 NH1     -0.070400
     10 C3          7.6450   -1.7040    0.1660 c3        1 NH1      0.180800
     11 O2          7.7910   -1.2010    1.5040 os        1 NH1     -0.421900
     12 C1          9.0260   -0.7450    1.9250 c         1 NH1      0.737800
     13 O1          8.9950   -0.4480    3.1210 o         1 NH1     -0.567500
     14 C6         10.1450   -0.6120    0.9830 ce        1 NH1     -0.212600
     15 S1         11.7390   -0.5750    1.5690 ss        1 NH1     -0.097500
     16 C21        12.1380    1.0710    1.8060 ca        1 NH1     -0.062100
     17 C24        11.1770    1.9290    2.3480 ca        1 NH1     -0.077000
     18 C12        11.4290    3.2730    2.6030 ca        1 NH1     -0.137300
     19 C2         12.7190    3.7870    2.3180 ca        1 NH1      0.141600
     20 N1         13.0060    5.1490    2.4700 nv        1 NH1     -0.815200
     21 C15        13.6990    2.9090    1.8030 ca        1 NH1     -0.193000
     22 C18        13.4310    1.5650    1.5330 ca        1 NH1      0.003700
     23 C26        14.5210    0.6820    0.9700 c3        1 NH1     -0.007700
     24 C10        15.8690    1.3970    0.8770 c3        1 NH1     -0.090767
     25 C27        14.7260   -0.5370    1.8670 c3        1 NH1     -0.090767
     26 C9         14.1450    0.2370   -0.4410 c3        1 NH1     -0.090767
     27 C11        10.3660    4.1340    3.1690 c3        1 NH1     -0.046800
     28 C5          9.8410   -0.6270   -0.3450 c2        1 NH1      0.199900
     29 O3         10.8240   -0.4320   -1.2700 oh        1 NH1     -0.457100
     30 C4          8.4480   -0.8520   -0.8270 c3        1 NH1     -0.131200
     31 C22         8.1450   -3.1620    0.1400 c3        1 NH1     -0.088700
     32 C13         7.5100   -4.0210    1.2370 c3        1 NH1     -0.076400
     33 C28         6.7880   -5.1750    0.5570 c3        1 NH1     -0.079400
     34 C16         7.3100   -5.2420   -0.8700 c3        1 NH1     -0.079400
     35 C19         7.8870   -3.8700   -1.1920 c3        1 NH1     -0.076400
     36 H37        -0.1450    0.5620   -1.6240 ho        1 NH1      0.418000
     37 H35         1.0420   -1.6940    0.8060 ha        1 NH1      0.142000
     38 H34         3.4700   -1.8110    1.4150 ha        1 NH1      0.134000
     39 H33         4.3450    1.3010   -1.4560 ha        1 NH1      0.134000
     40 H36         1.9360    1.4270   -2.0660 ha        1 NH1      0.142000
     41 H6          6.0440    0.5630    0.0080 hc        1 NH1      0.060700
     42 H7          5.5960   -0.3350    1.5090 hc        1 NH1      0.060700
     43 H4          5.6230   -2.4970    0.2620 hc        1 NH1      0.057700
     44 H5          6.0270   -1.6250   -1.2750 hc        1 NH1      0.057700
     45 H9         10.1810    1.5200    2.5990 ha        1 NH1      0.151000
     46 H13        12.4420    5.6110    3.1510 hn        1 NH1      0.386800
     47 H14        13.9760    5.3520    2.5700 hn        1 NH1      0.386800
     48 H8         14.7000    3.3220    1.6030 ha        1 NH1      0.133000
     49 H15        16.2010    1.7470    1.8830 hc        1 NH1      0.040256
     50 H16        15.8120    2.2670    0.1810 hc        1 NH1      0.040256
     51 H17        16.6380    0.6900    0.4800 hc        1 NH1      0.040256
     52 H18        13.8680   -1.2520    1.7920 hc        1 NH1      0.040256
     53 H19        15.6480   -1.0870    1.5560 hc        1 NH1      0.040256
     54 H20        14.8400   -0.2210    2.9300 hc        1 NH1      0.040256
     55 H21        14.9110   -0.4760   -0.8280 hc        1 NH1      0.040256
     56 H22        13.1460   -0.2690   -0.4410 hc        1 NH1      0.040256
     57 H23        14.0990    1.1200   -1.1220 hc        1 NH1      0.040256
     58 H10        10.1370    4.9840    2.4770 hc        1 NH1      0.041367
     59 H11         9.4240    3.5540    3.3320 hc        1 NH1      0.041367
     60 H12        10.6830    4.5590    4.1550 hc        1 NH1      0.041367
     61 H3         10.4240   -0.4420   -2.1540 ho        1 NH1      0.427000
     62 H1          8.4500   -1.3670   -1.8240 hc        1 NH1      0.083200
     63 H2          7.9490    0.1480   -0.9530 hc        1 NH1      0.083200
     64 H32         9.2550   -3.1190    0.3220 hc        1 NH1      0.059700
     65 H24         8.3120   -4.4110    1.9140 hc        1 NH1      0.049200
     66 H25         6.8120   -3.4190    1.8700 hc        1 NH1      0.049200
     67 H26         6.9670   -6.1360    1.0980 hc        1 NH1      0.044200
     68 H27         5.6830   -4.9910    0.5560 hc        1 NH1      0.044200
     69 H28         8.1070   -6.0240   -0.9540 hc        1 NH1      0.044200
     70 H29         6.4970   -5.5130   -1.5860 hc        1 NH1      0.044200
     71 H30         8.8380   -3.9670   -1.7720 hc        1 NH1      0.049200
     72 H31         7.1680   -3.2930   -1.8250 hc        1 NH1      0.049200
@<TRIPOS>BOND
     1    1    2 1   
     2    1   36 1   
     3    2    3 ar  
     4    2    7 ar  
     5    3    4 ar  
     6    3   37 1   
     7    4    5 ar  
     8    4   38 1   
     9    5    6 ar  
    10    5    8 1   
    11    6    7 ar  
    12    6   39 1   
    13    7   40 1   
    14    8    9 1   
    15    8   41 1   
    16    8   42 1   
    17    9   10 1   
    18    9   43 1   
    19    9   44 1   
    20   10   11 1   
    21   10   30 1   
    22   10   31 1   
    23   11   12 1   
    24   12   13 2   
    25   12   14 1   
    26   14   15 1   
    27   14   28 2   
    28   15   16 1   
    29   16   17 ar  
    30   16   22 ar  
    31   17   18 ar  
    32   17   45 1   
    33   18   19 ar  
    34   18   27 1   
    35   19   20 1   
    36   19   21 ar  
    37   20   46 1   
    38   20   47 1   
    39   21   22 ar  
    40   21   48 1   
    41   22   23 1   
    42   23   24 1   
    43   23   25 1   
    44   23   26 1   
    45   24   49 1   
    46   24   50 1   
    47   24   51 1   
    48   25   52 1   
    49   25   53 1   
    50   25   54 1   
    51   26   55 1   
    52   26   56 1   
    53   26   57 1   
    54   27   58 1   
    55   27   59 1   
    56   27   60 1   
    57   28   29 1   
    58   28   30 1   
    59   29   61 1   
    60   30   62 1   
    61   30   63 1   
    62   31   32 1   
    63   31   35 1   
    64   31   64 1   
    65   32   33 1   
    66   32   65 1   
    67   32   66 1   
    68   33   34 1   
    69   33   67 1   
    70   33   68 1   
    71   34   35 1   
    72   34   69 1   
    73   34   70 1   
    74   35   71 1   
    75   35   72 1   
@<TRIPOS>SUBSTRUCTURE
     1 NH1         1 TEMP              0 ****  ****    0 ROOT
