@<TRIPOS>MOLECULE
NH1
   73    76     1     0     0
SMALL
bcc


@<TRIPOS>ATOM
      1 O4         -0.1970   -0.5400   -0.1550 oh        1 NH1     -0.490100
      2 C23         1.1750   -0.4840   -0.0910 ca        1 NH1      0.133100
      3 C20         1.7570   -0.8070    1.1470 ca        1 NH1     -0.181500
      4 C17         3.1400   -0.7670    1.2740 ca        1 NH1     -0.089500
      5 C29         3.9510   -0.4110    0.1880 ca        1 NH1     -0.130300
      6 C14         3.3570   -0.0910   -1.0370 ca        1 NH1     -0.089500
      7 C25         1.9730   -0.1250   -1.1870 ca        1 NH1     -0.181500
      8 C8          5.4310   -0.3650    0.3420 c3        1 NH1     -0.025100
      9 C7          6.0760   -1.6270   -0.2000 c3        1 NH1     -0.073400
     10 C3          7.6090   -1.6190   -0.1120 c3        1 NH1      0.177800
     11 O2          7.9200   -1.0110    1.1590 os        1 NH1     -0.398900
     12 C1          9.1710   -0.4850    1.3590 c         1 NH1      0.741800
     13 O1          9.3350   -0.1200    2.5270 o         1 NH1     -0.583500
     14 C6         10.1200   -0.3290    0.2470 ce        1 NH1     -0.302600
     15 S1         11.7770   -0.2380    0.5440 ss        1 NH1      0.085500
     16 C21        12.1400    1.2260    1.2730 ca        1 NH1      0.023900
     17 C24        11.1400    2.1590    1.5940 ca        1 NH1     -0.125000
     18 C12        11.4070    3.3560    2.2460 ca        1 NH1     -0.016300
     19 C2         12.7490    3.6270    2.5790 ca        1 NH1     -0.134400
     20 N1         13.0760    4.8590    3.2910 n4        1 NH1     -0.685000
     21 C15        13.7730    2.7220    2.2490 ca        1 NH1     -0.081000
     22 C18        13.4950    1.5230    1.5970 ca        1 NH1     -0.043300
     23 C26        14.6270    0.5780    1.2580 c3        1 NH1     -0.015700
     24 C10        15.9890    1.1130    1.7000 c3        1 NH1     -0.097100
     25 C27        14.4240   -0.7600    1.9650 c3        1 NH1     -0.097100
     26 C9         14.7000    0.3690   -0.2530 c3        1 NH1     -0.097100
     27 C11        10.3150    4.2970    2.5850 c3        1 NH1     -0.082800
     28 C5          9.6110   -0.4150   -1.0190 c2        1 NH1      0.242900
     29 O3         10.4140   -0.1620   -2.0860 oh        1 NH1     -0.461100
     30 C4          8.1880   -0.7850   -1.2640 c3        1 NH1     -0.140200
     31 C22         8.2040   -3.0390   -0.1270 c3        1 NH1     -0.087700
     32 C13         7.8020   -3.8600    1.1020 c3        1 NH1     -0.076900
     33 C28         7.0600   -5.0930    0.6070 c3        1 NH1     -0.079900
     34 C16         7.3730   -5.2280   -0.8760 c3        1 NH1     -0.079900
     35 C19         7.8050   -3.8510   -1.3610 c3        1 NH1     -0.076900
     36 H37        -0.4670   -0.2990   -1.0540 ho        1 NH1      0.423000
     37 H35         1.1130   -1.0850    1.9930 ha        1 NH1      0.147000
     38 H34         3.6030   -1.0170    2.2410 ha        1 NH1      0.131500
     39 H33         3.9870    0.1920   -1.8930 ha        1 NH1      0.131500
     40 H36         1.5110    0.1280   -2.1510 ha        1 NH1      0.147000
     41 H6          5.7020   -0.2470    1.4260 hc        1 NH1      0.052200
     42 H7          5.8370    0.5310   -0.2000 hc        1 NH1      0.052200
     43 H4          5.7850   -1.7610   -1.2760 hc        1 NH1      0.067200
     44 H5          5.6900   -2.5130    0.3710 hc        1 NH1      0.067200
     45 H9         10.0880    1.9190    1.3550 ha        1 NH1      0.169000
     46 H13        12.7060    5.6620    2.7710 hn        1 NH1      0.454467
     47 H14        12.6390    4.8380    4.2200 hn        1 NH1      0.454467
     48 H8         14.8120    2.9750    2.5210 ha        1 NH1      0.147000
     49 H15        16.7830    0.3800    1.4140 hc        1 NH1      0.049033
     50 H16        16.2210    2.0820    1.1960 hc        1 NH1      0.049033
     51 H17        16.0270    1.2440    2.8080 hc        1 NH1      0.049033
     52 H18        13.5280   -1.3040    1.5740 hc        1 NH1      0.049033
     53 H19        15.3170   -1.4100    1.7970 hc        1 NH1      0.049033
     54 H20        14.2960   -0.6050    3.0630 hc        1 NH1      0.049033
     55 H21        13.7700   -0.1120   -0.6470 hc        1 NH1      0.049033
     56 H22        15.5630   -0.2970   -0.4950 hc        1 NH1      0.049033
     57 H23        14.8450    1.3460   -0.7730 hc        1 NH1      0.049033
     58 H10        10.4670    5.2850    2.0810 hc        1 NH1      0.062700
     59 H11        10.2580    4.4580    3.6920 hc        1 NH1      0.062700
     60 H12         9.3230    3.8940    2.2540 hc        1 NH1      0.062700
     61 H3          9.9040   -0.2810   -2.9060 ho        1 NH1      0.448000
     62 H1          8.0910   -1.3750   -2.2160 hc        1 NH1      0.096200
     63 H2          7.5920    0.1620   -1.3800 hc        1 NH1      0.096200
     64 H32         9.3240   -2.9160   -0.1180 hc        1 NH1      0.048700
     65 H24         7.1700   -3.2600    1.8030 hc        1 NH1      0.049950
     66 H25         8.7220   -4.1620    1.6650 hc        1 NH1      0.049950
     67 H26         7.3760   -6.0050    1.1700 hc        1 NH1      0.051200
     68 H27         5.9580   -4.9680    0.7600 hc        1 NH1      0.051200
     69 H28         6.4840   -5.5930   -1.4460 hc        1 NH1      0.051200
     70 H29         8.1990   -5.9680   -1.0320 hc        1 NH1      0.051200
     71 H30         8.6660   -3.9340   -2.0700 hc        1 NH1      0.049950
     72 H31         6.9640   -3.3620   -1.9140 hc        1 NH1      0.049950
     73 H131       14.0900    4.9530    3.3930 hn        1 NH1      0.454467
@<TRIPOS>BOND
     1    1    2 1   
     2    1   36 1   
     3    2    3 ar  
     4    2    7 ar  
     5    3    4 ar  
     6    3   37 1   
     7    4    5 ar  
     8    4   38 1   
     9    5    6 ar  
    10    5    8 1   
    11    6    7 ar  
    12    6   39 1   
    13    7   40 1   
    14    8    9 1   
    15    8   41 1   
    16    8   42 1   
    17    9   10 1   
    18    9   43 1   
    19    9   44 1   
    20   10   11 1   
    21   10   30 1   
    22   10   31 1   
    23   11   12 1   
    24   12   13 2   
    25   12   14 1   
    26   14   15 1   
    27   14   28 2   
    28   15   16 1   
    29   16   17 ar  
    30   16   22 ar  
    31   17   18 ar  
    32   17   45 1   
    33   18   19 ar  
    34   18   27 1   
    35   19   20 1   
    36   19   21 ar  
    37   20   46 1   
    38   20   47 1   
    39   20   73 1   
    40   21   22 ar  
    41   21   48 1   
    42   22   23 1   
    43   23   24 1   
    44   23   25 1   
    45   23   26 1   
    46   24   49 1   
    47   24   50 1   
    48   24   51 1   
    49   25   52 1   
    50   25   53 1   
    51   25   54 1   
    52   26   55 1   
    53   26   56 1   
    54   26   57 1   
    55   27   58 1   
    56   27   59 1   
    57   27   60 1   
    58   28   29 1   
    59   28   30 1   
    60   29   61 1   
    61   30   62 1   
    62   30   63 1   
    63   31   32 1   
    64   31   35 1   
    65   31   64 1   
    66   32   33 1   
    67   32   65 1   
    68   32   66 1   
    69   33   34 1   
    70   33   67 1   
    71   33   68 1   
    72   34   35 1   
    73   34   69 1   
    74   34   70 1   
    75   35   71 1   
    76   35   72 1   
@<TRIPOS>SUBSTRUCTURE
     1 NH1         1 TEMP              0 ****  ****    0 ROOT
