@<TRIPOS>MOLECULE
NH1
   72    70     1     0     0
SMALL
bcc


@<TRIPOS>ATOM
      1 O4         -4.6480   -7.7270    4.1980 oh        1 NH1     -0.252000
      2 C23        -4.0730   -6.4710    3.7990 c2        1 NH1      0.077000
      3 C20        -2.6860   -6.3310    3.7330 c2        1 NH1     -0.211000
      4 C17        -2.1250   -5.1580    3.2110 c1        1 NH1     -0.083000
      5 C29        -2.9460   -4.1350    2.7610 c1        1 NH1     -0.109000
      6 C14        -4.3420   -4.2760    2.8280 c1        1 NH1     -0.099000
      7 C25        -4.9010   -5.4420    3.3460 c1        1 NH1     -0.155000
      8 C8         -2.3110   -2.7940    2.2320 c3        1 NH1     -0.117000
      9 C7         -1.2290   -3.1220    1.1380 c3        1 NH1     -0.148000
     10 C3         -0.6570   -1.7740    0.5370 c3        1 NH1      0.109000
     11 O2         -1.1990   -0.6690    1.3010 os        1 NH1     -0.263000
     12 C1         -0.8720    0.6560    0.8630 c2        1 NH1      0.348000
     13 O1         -1.1570    1.6280    1.5650 o         1 NH1     -0.279000
     14 C6         -0.4950    0.8710   -0.7460 c2        1 NH1     -0.440000
     15 S1         -0.6190    2.5250   -1.4870 ss        1 NH1      0.394000
     16 C21         0.8820    3.4130   -1.2160 c2        1 NH1     -0.283000
     17 C24         1.4300    3.4760    0.0640 c2        1 NH1     -0.088000
     18 C12         2.5460    4.2850    0.3070 c1        1 NH1     -0.125000
     19 C2          3.1120    5.0310   -0.7360 c1        1 NH1      0.056000
     20 N1          4.2890    5.8020   -0.4990 n3        1 NH1     -0.324000
     21 C15         2.5680    4.9690   -2.0130 c1        1 NH1     -0.185000
     22 C18         1.4520    4.1620   -2.2620 c1        1 NH1      0.004000
     23 C26         0.7110    4.2670   -3.6390 c3        1 NH1     -0.016000
     24 C10        -0.8000    4.6250   -3.3960 c3        1 NH1     -0.209333
     25 C27         0.8030    2.9210   -4.3760 c3        1 NH1     -0.209333
     26 C9          1.3710    5.3650   -4.4940 c3        1 NH1     -0.209333
     27 C11         3.1060    4.4060    1.7120 c3        1 NH1     -0.171000
     28 C5         -0.5320   -0.4790   -1.7200 c1        1 NH1      0.160000
     29 O3         -0.5790   -0.3370   -3.1410 o         1 NH1     -0.212000
     30 C4         -0.9490   -1.7670   -1.0760 c3        1 NH1     -0.213000
     31 C22         0.3130   -1.7640    0.6590 c3        1 NH1     -0.130000
     32 C13         0.9010   -3.0230    0.2530 c3        1 NH1     -0.154500
     33 C28         1.9360   -3.0580    0.7320 c3        1 NH1     -0.158000
     34 C16         1.8490   -2.4580    1.5460 c3        1 NH1     -0.158000
     35 C19         0.4800   -1.6610    1.3170 c3        1 NH1     -0.154500
     36 H37        -4.5700   -7.8240    5.0900 ho        1 NH1      0.218000
     37 H35        -2.1160   -7.0410    4.0430 ha        1 NH1      0.135000
     38 H34        -1.1750   -5.0620    3.1660 ha        1 NH1      0.139000
     39 H33        -4.9370   -3.5360    2.5020 ha        1 NH1      0.128000
     40 H36        -5.8960   -5.5430    3.3930 ha        1 NH1      0.149000
     41 H6         -1.8880   -2.3180    2.9780 hc        1 NH1      0.099500
     42 H7         -3.0210   -2.2240    1.8350 hc        1 NH1      0.099500
     43 H4         -0.5000   -3.6350    1.5430 hc        1 NH1      0.096500
     44 H5         -1.6420   -3.6520    0.4170 hc        1 NH1      0.096500
     45 H9          1.0400    2.9630    0.7820 ha        1 NH1      0.133000
     46 H13         4.7430    5.6970    0.2550 hn        1 NH1      0.182000
     47 H14         4.5920    6.3950   -1.1410 hn        1 NH1      0.182000
     48 H8          2.9470    5.4650   -2.7020 ha        1 NH1      0.134000
     49 H15        -1.2580    3.8550   -2.9600 hc        1 NH1      0.080222
     50 H16        -1.2420    4.8230   -4.2740 hc        1 NH1      0.080222
     51 H17        -0.8620    5.4090   -2.8180 hc        1 NH1      0.080222
     52 H18         0.2340    2.2790   -3.9430 hc        1 NH1      0.080222
     53 H19         0.5190    3.0360   -5.2950 hc        1 NH1      0.080222
     54 H20         1.7100    2.6070   -4.3580 hc        1 NH1      0.080222
     55 H21         1.4830    6.2070   -3.9370 hc        1 NH1      0.080222
     56 H22         0.8080    5.5580   -5.2630 hc        1 NH1      0.080222
     57 H23         2.2480    5.0570   -4.8000 hc        1 NH1      0.080222
     58 H10         4.0290    4.0600    1.7290 hc        1 NH1      0.080000
     59 H11         2.5560    3.8920    2.3260 hc        1 NH1      0.080000
     60 H12         3.1060    5.3480    1.9840 hc        1 NH1      0.080000
     61 H3         -0.7300   -1.1480   -3.5220 ho        1 NH1      0.226000
     62 H1         -1.9040   -1.9520   -1.3090 hc        1 NH1      0.122500
     63 H2         -0.5130   -2.5270   -1.4820 hc        1 NH1      0.122500
     64 H32         0.6780   -1.0770    0.1410 hc        1 NH1      0.098000
     65 H24         0.9750   -3.0600   -0.7210 hc        1 NH1      0.088250
     66 H25         0.3590   -3.7690    0.5770 hc        1 NH1      0.088250
     67 H26         2.1580   -3.9790    1.0060 hc        1 NH1      0.083250
     68 H27         2.6380   -2.6960    0.0940 hc        1 NH1      0.083250
     69 H28         2.6190   -1.8230    1.5960 hc        1 NH1      0.083250
     70 H29         1.7960   -3.0040    2.3740 hc        1 NH1      0.083250
     71 H30         0.6100   -0.7180    1.4870 hc        1 NH1      0.088250
     72 H31        -0.2200   -2.0160    1.9020 hc        1 NH1      0.088250
@<TRIPOS>BOND
     1    1    2 1   
     2    1   36 1   
     3    2    3 1   
     4    2    7 1   
     5    3    4 1   
     6    3   37 1   
     7    4   38 1   
     8    5    6 1   
     9    5    8 1   
    10    6   39 1   
    11    7   40 1   
    12    8    9 1   
    13    8   41 1   
    14    8   42 1   
    15    9   10 1   
    16    9   43 1   
    17    9   44 1   
    18   10   11 1   
    19   10   30 1   
    20   10   31 1   
    21   11   12 1   
    22   12   13 1   
    23   12   14 1   
    24   14   15 1   
    25   14   28 1   
    26   15   16 1   
    27   16   17 1   
    28   16   22 1   
    29   17   18 1   
    30   17   45 1   
    31   18   27 1   
    32   19   20 1   
    33   19   21 1   
    34   20   46 1   
    35   20   47 1   
    36   21   48 1   
    37   22   23 1   
    38   23   24 1   
    39   23   25 1   
    40   23   26 1   
    41   24   49 1   
    42   24   50 1   
    43   24   51 1   
    44   25   52 1   
    45   25   53 1   
    46   25   54 1   
    47   26   55 1   
    48   26   56 1   
    49   26   57 1   
    50   27   58 1   
    51   27   59 1   
    52   27   60 1   
    53   28   30 1   
    54   29   61 1   
    55   30   62 1   
    56   30   63 1   
    57   31   32 1   
    58   31   35 1   
    59   31   64 1   
    60   32   33 1   
    61   32   65 1   
    62   32   66 1   
    63   33   34 1   
    64   33   67 1   
    65   33   68 1   
    66   34   35 1   
    67   34   69 1   
    68   34   70 1   
    69   35   71 1   
    70   35   72 1   
@<TRIPOS>SUBSTRUCTURE
     1 NH1         1 TEMP              0 ****  ****    0 ROOT
