@<TRIPOS>MOLECULE
NH3
    5     4     1     0     0
SMALL
bcc


@<TRIPOS>ATOM
      1 N          -0.0000   -0.0000    0.0000 n4        1 NH3     -0.913200
      2 HN1         1.0250   -0.0000   -0.0000 hn        1 NH3      0.478800
      3 HN2        -0.3420   -0.0000    0.9670 hn        1 NH3      0.478800
      4 HN3        -0.3420    0.8370   -0.4830 hn        1 NH3      0.478800
      5 HN4        -0.3420   -0.8370   -0.4830 hn        1 NH3      0.478800
@<TRIPOS>BOND
     1    1    2 1   
     2    1    3 1   
     3    1    4 1   
     4    1    5 1   
@<TRIPOS>SUBSTRUCTURE
     1 NH3         1 TEMP              0 ****  ****    0 ROOT
