@<TRIPOS>MOLECULE
NH3
    4     3     1     0     0
SMALL
bcc


@<TRIPOS>ATOM
      1 N          -0.0760   -0.1860   -0.1070 n3        1 NH3     -1.010400
      2 HN1         0.8360   -0.1860   -0.1070 hn        1 NH3      0.336800
      3 HN2        -0.3800   -0.1860    0.7520 hn        1 NH3      0.336800
      4 HN3        -0.3800    0.5580   -0.5370 hn        1 NH3      0.336800
@<TRIPOS>BOND
     1    1    2 1   
     2    1    3 1   
     3    1    4 1   
@<TRIPOS>SUBSTRUCTURE
     1 NH3         1 TEMP              0 ****  ****    0 ROOT
