@<TRIPOS>MOLECULE
NH3
    4     3     1     0     0
SMALL
bcc


@<TRIPOS>ATOM
      1 N          -0.0000    0.0370   -0.0000 n3        1 NH3     -1.010400
      2 HN1         0.4400   -0.3020    0.8290 hn        1 NH3      0.336800
      3 HN2         0.4970   -0.3020   -0.7960 hn        1 NH3      0.336800
      4 HN3        -0.9380   -0.3020   -0.0330 hn        1 NH3      0.336800
@<TRIPOS>BOND
     1    1    2 1   
     2    1    3 1   
     3    1    4 1   
@<TRIPOS>SUBSTRUCTURE
     1 NH3         1 TEMP              0 ****  ****    0 ROOT
