@<TRIPOS>MOLECULE
NH4
    5     4     1     0     0
SMALL
bcc


@<TRIPOS>ATOM
      1 N          -0.0180   -0.0260   -0.0000 n4        1 NH4     -0.913200
      2 HN1        -0.3590   -0.5090   -0.8370 hn        1 NH4      0.478800
      3 HN2         1.0070   -0.0250    0.0000 hn        1 NH4      0.478800
      4 HN3        -0.3600    0.9410    0.0000 hn        1 NH4      0.478800
      5 HN4        -0.3590   -0.5090    0.8370 hn        1 NH4      0.478800
@<TRIPOS>BOND
     1    1    2 1   
     2    1    3 1   
     3    1    4 1   
     4    1    5 1   
@<TRIPOS>SUBSTRUCTURE
     1 NH4         1 TEMP              0 ****  ****    0 ROOT
