@<TRIPOS>MOLECULE
NH5
   80    83     1     0     0
SMALL
bcc


@<TRIPOS>ATOM
      1 C1         -0.6770    2.2880   -2.8110 ca        1 NH5     -0.099000
      2 C2         -0.2840    2.9300   -3.9820 ca        1 NH5     -0.104000
      3 C3         -0.0030    4.3030   -3.9780 ca        1 NH5      0.048400
      4 C4         -0.1140    5.0300   -2.7770 ca        1 NH5      0.017400
      5 C5         -0.5030    4.3780   -1.6030 ca        1 NH5     -0.115000
      6 C6         -0.7910    3.0100   -1.6190 ca        1 NH5     -0.148300
      7 C7         -1.1700    2.3220   -0.3540 c3        1 NH5     -0.041100
      8 C8         -2.6350    2.6540   -0.0570 c3        1 NH5      0.104800
      9 N9         -3.0950    2.0550    1.2510 ny        1 NH5     -0.766000
     10 C10        -4.5080    2.4100    1.5420 c3        1 NH5      0.098800
     11 C11        -5.0330    1.8470    2.8710 c3        1 NH5     -0.181400
     12 C12        -6.4630    2.2960    3.0540 c         1 NH5      0.551100
     13 O13        -7.1040    2.9700    2.2630 o         1 NH5     -0.384100
     14 N14        -7.1710    1.8540    4.3270 nx        1 NH5     -0.597200
     15 C15        -8.6450    1.7650    4.0790 c3        1 NH5      0.079800
     16 C16        -9.4040    0.9170    5.1250 c3        1 NH5      0.087800
     17 N17       -10.8590    0.8690    4.8460 ny        1 NH5     -0.766000
     18 C18       -11.6230    0.0660    5.8670 c3        1 NH5      0.118800
     19 C19       -13.1020   -0.0220    5.4910 c3        1 NH5     -0.042100
     20 C20       -13.7310    1.3110    5.3140 ca        1 NH5     -0.185300
     21 C21       -14.4890    1.8860    6.3370 ca        1 NH5     -0.065000
     22 C22       -15.1410    3.1020    6.1520 ca        1 NH5     -0.184000
     23 C23       -15.0500    3.7790    4.9310 ca        1 NH5      0.157100
     24 C24       -14.2800    3.2330    3.8600 ca        1 NH5      0.010600
     25 C25       -13.6450    1.9910    4.0850 ca        1 NH5      0.038100
     26 O26       -12.8780    1.4160    3.0690 os        1 NH5     -0.416900
     27 C27       -13.3830    1.6810    1.7520 c3        1 NH5      0.058400
     28 C28       -13.6840    3.1580    1.5280 c         1 NH5      0.660500
     29 O29       -13.5290    3.6920    0.4240 o         1 NH5     -0.545500
     30 N30       -14.1150    3.8880    2.6350 ns        1 NH5     -0.449100
     31 O31       -15.6530    4.9820    4.6930 oh        1 NH5     -0.478100
     32 C32        -6.8530    2.8070    5.4900 c3        1 NH5      0.126500
     33 C33        -5.7070    2.2710    6.3550 c3        1 NH5     -0.099900
     34 C34        -5.5350    3.1820    7.5610 c3        1 NH5     -0.081900
     35 C35        -5.2860    4.6160    7.1470 c3        1 NH5     -0.097400
     36 C36        -6.3760    5.1290    6.2320 c3        1 NH5     -0.081900
     37 C37        -6.5540    4.2320    5.0180 c3        1 NH5     -0.099900
     38 Cl38        0.2220    6.6840   -2.7210 cl        1 NH5     -0.015400
     39 Cl39        0.4690    5.0540   -5.4090 cl        1 NH5      0.008600
     40 H1         -0.8780    1.2050   -2.8320 ha        1 NH5      0.143000
     41 H2         -0.1830    2.3540   -4.9180 ha        1 NH5      0.179000
     42 H5         -0.5590    4.9470   -0.6620 ha        1 NH5      0.138000
     43 H7         -0.5080    2.6780    0.4810 hc        1 NH5      0.077200
     44 H7A        -1.0330    1.2130   -0.4610 hc        1 NH5      0.077200
     45 H8         -3.2970    2.2500   -0.8740 hx        1 NH5      0.118700
     46 H8A        -2.7660    3.7730    0.0090 hx        1 NH5      0.118700
     47 HN9        -2.4810    2.3970    2.0000 hn        1 NH5      0.457800
     48 H10        -5.1480    2.0310    0.6890 hx        1 NH5      0.135700
     49 H10A       -4.5910    3.5400    1.5530 hx        1 NH5      0.135700
     50 H11        -4.4130    2.2200    3.7340 hc        1 NH5      0.122200
     51 H11A       -4.9920    0.7220    2.8690 hc        1 NH5      0.122200
     52 H15        -8.7980    1.3160    3.0510 hx        1 NH5      0.131700
     53 H15A       -9.0470    2.8230    4.0540 hx        1 NH5      0.131700
     54 H16        -9.2670    1.3440    6.1620 hx        1 NH5      0.121200
     55 H16A       -9.0150   -0.1430    5.1260 hx        1 NH5      0.121200
     56 HN17      -11.2660    1.8210    4.8280 hn        1 NH5      0.479300
     57 H18       -11.1740   -0.9660    5.9120 hx        1 NH5      0.108200
     58 H18A      -11.5000    0.5760    6.8650 hx        1 NH5      0.108200
     59 H19       -13.2260   -0.6290    4.5520 hc        1 NH5      0.110200
     60 H19A      -13.6080   -0.5880    6.3250 hc        1 NH5      0.110200
     61 H21       -14.5960    1.3610    7.3020 ha        1 NH5      0.162000
     62 H22       -15.7520    3.5260    6.9660 ha        1 NH5      0.177000
     63 H27       -12.5630    1.3390    1.0670 h1        1 NH5      0.106200
     64 H27A      -14.3180    1.0840    1.5790 h1        1 NH5      0.106200
     65 HN30      -14.5680    4.7710    2.5040 hn        1 NH5      0.371500
     66 HO31      -16.2520    5.1890    5.4310 ho        1 NH5      0.463000
     67 H32        -7.7890    2.8370    6.1280 hx        1 NH5      0.106700
     68 H33        -4.7510    2.2500    5.7720 hc        1 NH5      0.059950
     69 H33A       -5.9270    1.2300    6.7100 hc        1 NH5      0.059950
     70 H34        -4.6670    2.8060    8.1690 hc        1 NH5      0.085700
     71 H34A       -6.4460    3.1230    8.2130 hc        1 NH5      0.085700
     72 H35        -5.2400    5.2620    8.0670 hc        1 NH5      0.083200
     73 H35A       -4.2890    4.6990    6.6390 hc        1 NH5      0.083200
     74 H36        -6.1170    6.1630    5.8770 hc        1 NH5      0.085700
     75 H36A       -7.3450    5.2040    6.7930 hc        1 NH5      0.085700
     76 H37        -5.6110    4.2460    4.4090 hc        1 NH5      0.059950
     77 H37A       -7.3900    4.6240    4.3810 hc        1 NH5      0.059950
     78 H92        -2.9890    1.0340    1.1980 hn        1 NH5      0.457800
     79 H141       -6.8170    0.9240    4.5840 hn        1 NH5      0.454800
     80 H172      -11.0450    0.4600    3.9140 hn        1 NH5      0.479300
@<TRIPOS>BOND
     1    1    2 ar  
     2    1    6 ar  
     3    1   40 1   
     4    2    3 ar  
     5    2   41 1   
     6    3    4 ar  
     7    3   39 1   
     8    4    5 ar  
     9    4   38 1   
    10    5    6 ar  
    11    5   42 1   
    12    6    7 1   
    13    7    8 1   
    14    7   43 1   
    15    7   44 1   
    16    8    9 1   
    17    8   45 1   
    18    8   46 1   
    19    9   10 1   
    20    9   47 1   
    21    9   78 1   
    22   10   11 1   
    23   10   48 1   
    24   10   49 1   
    25   11   12 1   
    26   11   50 1   
    27   11   51 1   
    28   12   13 2   
    29   12   14 1   
    30   14   15 1   
    31   14   32 1   
    32   14   79 1   
    33   15   16 1   
    34   15   52 1   
    35   15   53 1   
    36   16   17 1   
    37   16   54 1   
    38   16   55 1   
    39   17   18 1   
    40   17   56 1   
    41   17   80 1   
    42   18   19 1   
    43   18   57 1   
    44   18   58 1   
    45   19   20 1   
    46   19   59 1   
    47   19   60 1   
    48   20   21 ar  
    49   20   25 ar  
    50   21   22 ar  
    51   21   61 1   
    52   22   23 ar  
    53   22   62 1   
    54   23   24 ar  
    55   23   31 1   
    56   24   25 ar  
    57   24   30 1   
    58   25   26 1   
    59   26   27 1   
    60   27   28 1   
    61   27   63 1   
    62   27   64 1   
    63   28   29 2   
    64   28   30 1   
    65   30   65 1   
    66   31   66 1   
    67   32   33 1   
    68   32   37 1   
    69   32   67 1   
    70   33   34 1   
    71   33   68 1   
    72   33   69 1   
    73   34   35 1   
    74   34   70 1   
    75   34   71 1   
    76   35   36 1   
    77   35   72 1   
    78   35   73 1   
    79   36   37 1   
    80   36   74 1   
    81   36   75 1   
    82   37   76 1   
    83   37   77 1   
@<TRIPOS>SUBSTRUCTURE
     1 NH5         1 TEMP              0 ****  ****    0 ROOT
