@<TRIPOS>MOLECULE
NH5
   80    83     1     0     0
SMALL
bcc


@<TRIPOS>ATOM
      1 C1         -0.7250    2.7770   -2.8680 ca        1 NH5     -0.099000
      2 C2         -0.2870    3.5720   -3.9240 ca        1 NH5     -0.104000
      3 C3          0.0940    4.9020   -3.7020 ca        1 NH5      0.048400
      4 C4          0.0370    5.4310   -2.3970 ca        1 NH5      0.017400
      5 C5         -0.3970    4.6260   -1.3400 ca        1 NH5     -0.115000
      6 C6         -0.7840    3.3030   -1.5730 ca        1 NH5     -0.148300
      7 C7         -1.2110    2.4480   -0.4320 c3        1 NH5     -0.041100
      8 C8         -2.6470    2.8310   -0.0650 c3        1 NH5      0.104800
      9 N9         -3.1490    2.0610    1.1340 n4        1 NH5     -0.766000
     10 C10        -4.5320    2.4650    1.4960 c3        1 NH5      0.098800
     11 C11        -5.0950    1.7310    2.7220 c3        1 NH5     -0.181400
     12 C12        -6.4890    2.2450    2.9930 c         1 NH5      0.551100
     13 O13        -7.0810    3.0810    2.3290 o         1 NH5     -0.384100
     14 N14        -7.2260    1.6550    4.1860 n4        1 NH5     -0.597200
     15 C15        -8.7030    1.7100    3.9450 c3        1 NH5      0.079800
     16 C16        -9.5200    0.7610    4.8500 c3        1 NH5      0.087800
     17 N17       -10.9750    0.8590    4.5830 n4        1 NH5     -0.766000
     18 C18       -11.7930   -0.0410    5.4730 c3        1 NH5      0.118800
     19 C19       -13.2750    0.0350    5.1040 c3        1 NH5     -0.042100
     20 C20       -13.8090    1.4190    5.1470 ca        1 NH5     -0.185300
     21 C21       -14.5240    1.8750    6.2570 ca        1 NH5     -0.065000
     22 C22       -15.0890    3.1480    6.2740 ca        1 NH5     -0.184000
     23 C23       -14.9510    4.0030    5.1750 ca        1 NH5      0.157100
     24 C24       -14.2210    3.5820    4.0220 ca        1 NH5      0.010600
     25 C25       -13.6750    2.2790    4.0410 ca        1 NH5      0.038100
     26 O26       -12.9500    1.8210    2.9380 os        1 NH5     -0.416900
     27 C27       -13.4340    2.3260    1.6850 c3        1 NH5      0.058400
     28 C28       -13.6300    3.8370    1.7010 c         1 NH5      0.660500
     29 O29       -13.4380    4.5280    0.6950 o         1 NH5     -0.545500
     30 N30       -14.0090    4.4100    2.9160 n         1 NH5     -0.449100
     31 O31       -15.4670    5.2670    5.1370 oh        1 NH5     -0.478100
     32 C32        -6.8400    2.3820    5.4840 c3        1 NH5      0.126500
     33 C33        -5.7350    1.6340    6.2370 c3        1 NH5     -0.099900
     34 C34        -5.4970    2.3240    7.5720 c3        1 NH5     -0.081900
     35 C35        -5.1470    3.7840    7.3920 c3        1 NH5     -0.097400
     36 C36        -6.1980    4.5140    6.5850 c3        1 NH5     -0.081900
     37 C37        -6.4400    3.8400    5.2440 c3        1 NH5     -0.099900
     38 CL38        0.4930    7.0240   -2.0780 cl        1 NH5     -0.015400
     39 CL39        0.6170    5.8400   -4.9980 cl        1 NH5      0.008600
     40 H1         -1.0040    1.7300   -3.0610 ha        1 NH5      0.143000
     41 H2         -0.2290    3.1490   -4.9420 ha        1 NH5      0.179000
     42 H5         -0.4100    5.0370   -0.3180 ha        1 NH5      0.138000
     43 H7         -1.1550    1.3630   -0.7180 hc        1 NH5      0.077200
     44 H7A        -0.5230    2.6150    0.4420 hc        1 NH5      0.077200
     45 H8         -2.6970    3.9310    0.1820 hx        1 NH5      0.118700
     46 H8A        -3.3380    2.6130   -0.9290 hx        1 NH5      0.118700
     47 HN9        -2.5100    2.2330    1.9210 hn        1 NH5      0.457800
     48 H10        -4.5330    3.5800    1.6910 hx        1 NH5      0.135700
     49 H10A       -5.1980    2.2760    0.6010 hx        1 NH5      0.135700
     50 H11        -4.4490    1.9150    3.6270 hc        1 NH5      0.122200
     51 H11A       -5.1350    0.6210    2.5380 hc        1 NH5      0.122200
     52 H15        -8.8890    1.4450    2.8610 hx        1 NH5      0.131700
     53 H15A       -9.0280    2.7840    4.0960 hx        1 NH5      0.131700
     54 H16        -9.2070   -0.3110    4.6770 hx        1 NH5      0.121200
     55 H16A       -9.3540    1.0050    5.9410 hx        1 NH5      0.121200
     56 HN17      -11.1890    0.6180    3.6000 hn        1 NH5      0.479300
     57 H18       -11.6360    0.2940    6.5370 hx        1 NH5      0.108200
     58 H18A      -11.4180   -1.0960    5.3480 hx        1 NH5      0.108200
     59 H19       -13.4420   -0.4050    4.0810 hc        1 NH5      0.110200
     60 H19A      -13.8200   -0.6200    5.8420 hc        1 NH5      0.110200
     61 H21       -14.6680    1.2130    7.1270 ha        1 NH5      0.162000
     62 H22       -15.6690    3.4790    7.1520 ha        1 NH5      0.177000
     63 H27       -14.4090    1.8310    1.4300 h1        1 NH5      0.106200
     64 H27A      -12.6400    2.0410    0.9460 h1        1 NH5      0.106200
     65 HN30      -14.3990    5.3320    2.9310 hn        1 NH5      0.371500
     66 HO31      -16.0510    5.3950    5.9060 ho        1 NH5      0.463000
     67 H32        -7.7710    2.3750    6.1300 hx        1 NH5      0.106700
     68 H33        -6.0290    0.5670    6.4230 hc        1 NH5      0.059950
     69 H33A       -4.7830    1.6400    5.6470 hc        1 NH5      0.059950
     70 H34        -4.6580    1.7950    8.1010 hc        1 NH5      0.085700
     71 H34A       -6.4100    2.2250    8.2170 hc        1 NH5      0.085700
     72 H35        -4.1470    3.8780    6.8910 hc        1 NH5      0.083200
     73 H35A       -5.0550    4.2690    8.4030 hc        1 NH5      0.083200
     74 H36        -7.1590    4.5660    7.1620 hc        1 NH5      0.085700
     75 H36A       -5.8670    5.5720    6.3970 hc        1 NH5      0.085700
     76 H37        -7.2470    4.3880    4.6880 hc        1 NH5      0.059950
     77 H37A       -5.5000    3.8860    4.6330 hc        1 NH5      0.059950
     78 H92        -3.1160    1.0580    0.9140 hn        1 NH5      0.457800
     79 H141       -6.9390    0.6720    4.2860 hn        1 NH5      0.454800
     80 H172      -11.3130    1.8270    4.7220 hn        1 NH5      0.479300
@<TRIPOS>BOND
     1    1    2 ar  
     2    1    6 ar  
     3    1   40 1   
     4    2    3 ar  
     5    2   41 1   
     6    3    4 ar  
     7    3   39 1   
     8    4    5 ar  
     9    4   38 1   
    10    5    6 ar  
    11    5   42 1   
    12    6    7 1   
    13    7    8 1   
    14    7   43 1   
    15    7   44 1   
    16    8    9 1   
    17    8   45 1   
    18    8   46 1   
    19    9   10 1   
    20    9   47 1   
    21    9   78 1   
    22   10   11 1   
    23   10   48 1   
    24   10   49 1   
    25   11   12 1   
    26   11   50 1   
    27   11   51 1   
    28   12   13 2   
    29   12   14 1   
    30   14   15 1   
    31   14   32 1   
    32   14   79 1   
    33   15   16 1   
    34   15   52 1   
    35   15   53 1   
    36   16   17 1   
    37   16   54 1   
    38   16   55 1   
    39   17   18 1   
    40   17   56 1   
    41   17   80 1   
    42   18   19 1   
    43   18   57 1   
    44   18   58 1   
    45   19   20 1   
    46   19   59 1   
    47   19   60 1   
    48   20   21 ar  
    49   20   25 ar  
    50   21   22 ar  
    51   21   61 1   
    52   22   23 ar  
    53   22   62 1   
    54   23   24 ar  
    55   23   31 1   
    56   24   25 ar  
    57   24   30 1   
    58   25   26 1   
    59   26   27 1   
    60   27   28 1   
    61   27   63 1   
    62   27   64 1   
    63   28   29 2   
    64   28   30 1   
    65   30   65 1   
    66   31   66 1   
    67   32   33 1   
    68   32   37 1   
    69   32   67 1   
    70   33   34 1   
    71   33   68 1   
    72   33   69 1   
    73   34   35 1   
    74   34   70 1   
    75   34   71 1   
    76   35   36 1   
    77   35   72 1   
    78   35   73 1   
    79   36   37 1   
    80   36   74 1   
    81   36   75 1   
    82   37   76 1   
    83   37   77 1   
@<TRIPOS>SUBSTRUCTURE
     1 NH5         1 TEMP              0 ****  ****    0 ROOT
