@<TRIPOS>MOLECULE
NH5
   80    83     1     0     0
SMALL
bcc


@<TRIPOS>ATOM
      1 C1         -0.7860    2.7950   -2.9520 ca        1 NH5     -0.099000
      2 C2         -0.3800    3.5710   -4.0340 ca        1 NH5     -0.104000
      3 C3         -0.0290    4.9160   -3.8510 ca        1 NH5      0.048400
      4 C4         -0.0820    5.4770   -2.5600 ca        1 NH5      0.017400
      5 C5         -0.4840    4.6900   -1.4770 ca        1 NH5     -0.115000
      6 C6         -0.8430    3.3530   -1.6700 ca        1 NH5     -0.148300
      7 C7         -1.2350    2.5180   -0.5020 c3        1 NH5     -0.041100
      8 C8         -2.6750    2.8760   -0.1280 c3        1 NH5      0.104800
      9 N9         -3.1450    2.1260    1.0960 n4        1 NH5     -0.766000
     10 C10        -4.5340    2.5060    1.4650 c3        1 NH5      0.098800
     11 C11        -5.0650    1.7890    2.7140 c3        1 NH5     -0.181400
     12 C12        -6.4660    2.2780    2.9910 c         1 NH5      0.551100
     13 O13        -7.0830    3.0880    2.3180 o         1 NH5     -0.384100
     14 N14        -7.1780    1.6950    4.2030 n4        1 NH5     -0.597200
     15 C15        -8.6590    1.7160    3.9780 c3        1 NH5      0.079800
     16 C16        -9.4450    0.7650    4.9090 c3        1 NH5      0.087800
     17 N17       -10.9050    0.8310    4.6590 n4        1 NH5     -0.766000
     18 C18       -11.6940   -0.0740    5.5710 c3        1 NH5      0.118800
     19 C19       -13.1820   -0.0300    5.2200 c3        1 NH5     -0.042100
     20 C20       -13.7420    1.3430    5.2550 ca        1 NH5     -0.185300
     21 C21       -14.4520    1.7980    6.3700 ca        1 NH5     -0.065000
     22 C22       -15.0410    3.0590    6.3800 ca        1 NH5     -0.184000
     23 C23       -14.9340    3.9040    5.2700 ca        1 NH5      0.157100
     24 C24       -14.2110    3.4850    4.1130 ca        1 NH5      0.010600
     25 C25       -13.6390    2.1930    4.1380 ca        1 NH5      0.038100
     26 O26       -12.9200    1.7370    3.0310 os        1 NH5     -0.416900
     27 C27       -13.4300    2.2190    1.7790 c3        1 NH5      0.058400
     28 C28       -13.6570    3.7250    1.7820 c         1 NH5      0.660500
     29 O29       -13.4910    4.4090    0.7650 o         1 NH5     -0.545500
     30 N30       -14.0310    4.3040    2.9940 n         1 NH5     -0.449100
     31 O31       -15.4760    5.1580    5.2260 oh        1 NH5     -0.478100
     32 C32        -6.7930    2.4540    5.4830 c3        1 NH5      0.126500
     33 C33        -5.6640    1.7440    6.2370 c3        1 NH5     -0.099900
     34 C34        -5.4250    2.4630    7.5560 c3        1 NH5     -0.081900
     35 C35        -5.1090    3.9270    7.3450 c3        1 NH5     -0.097400
     36 C36        -6.1840    4.6190    6.5370 c3        1 NH5     -0.081900
     37 C37        -6.4270    3.9150    5.2120 c3        1 NH5     -0.099900
     38 CL38        0.3400    7.0890   -2.2890 cl        1 NH5     -0.015400
     39 CL39        0.4570    5.8310   -5.1780 cl        1 NH5      0.008600
     40 H1         -1.0420    1.7370   -3.1140 ha        1 NH5      0.143000
     41 H2         -0.3250    3.1240   -5.0420 ha        1 NH5      0.179000
     42 H5         -0.4950    5.1270   -0.4660 ha        1 NH5      0.138000
     43 H7         -0.5420    2.7240    0.3580 hc        1 NH5      0.077200
     44 H7A        -1.1560    1.4280   -0.7610 hc        1 NH5      0.077200
     45 H8         -3.3710    2.6210   -0.9780 hx        1 NH5      0.118700
     46 H8A        -2.7490    3.9810    0.0920 hx        1 NH5      0.118700
     47 HN9        -2.5020    2.3330    1.8710 hn        1 NH5      0.457800
     48 H10        -4.5580    3.6250    1.6330 hx        1 NH5      0.135700
     49 H10A       -5.2050    2.2800    0.5820 hx        1 NH5      0.135700
     50 H11        -5.0820    0.6740    2.5570 hc        1 NH5      0.122200
     51 H11A       -4.4130    2.0070    3.6070 hc        1 NH5      0.122200
     52 H15        -9.0050    2.7850    4.1140 hx        1 NH5      0.131700
     53 H15A       -8.8510    1.4280    2.9010 hx        1 NH5      0.131700
     54 H16        -9.2700    1.0290    5.9940 hx        1 NH5      0.121200
     55 H16A       -9.1130   -0.3030    4.7480 hx        1 NH5      0.121200
     56 HN17      -11.2610    1.7950    4.7900 hn        1 NH5      0.479300
     57 H18       -11.3000   -1.1230    5.4530 hx        1 NH5      0.108200
     58 H18A      -11.5290    0.2770    6.6280 hx        1 NH5      0.108200
     59 H19       -13.7040   -0.6880    5.9730 hc        1 NH5      0.110200
     60 H19A      -13.3530   -0.4850    4.2050 hc        1 NH5      0.110200
     61 H21       -14.5710    1.1420    7.2490 ha        1 NH5      0.162000
     62 H22       -15.6170    3.3890    7.2620 ha        1 NH5      0.177000
     63 H27       -14.3990    1.7010    1.5430 h1        1 NH5      0.106200
     64 H27A      -12.6410    1.9410    1.0320 h1        1 NH5      0.106200
     65 HN30      -14.4390    5.2190    3.0050 hn        1 NH5      0.371500
     66 HO31      -16.0520    5.2830    6.0000 ho        1 NH5      0.463000
     67 H32        -7.7160    2.4390    6.1400 hx        1 NH5      0.106700
     68 H33        -4.7190    1.7590    5.6350 hc        1 NH5      0.059950
     69 H33A       -5.9320    0.6740    6.4450 hc        1 NH5      0.059950
     70 H34        -6.3280    2.3560    8.2130 hc        1 NH5      0.085700
     71 H34A       -4.5690    1.9620    8.0840 hc        1 NH5      0.085700
     72 H35        -4.1170    4.0330    6.8310 hc        1 NH5      0.083200
     73 H35A       -5.0150    4.4320    8.3460 hc        1 NH5      0.083200
     74 H36        -5.8780    5.6800    6.3270 hc        1 NH5      0.085700
     75 H36A       -7.1400    4.6610    7.1250 hc        1 NH5      0.085700
     76 H37        -5.4950    3.9700    4.5900 hc        1 NH5      0.059950
     77 H37A       -7.2520    4.4360    4.6560 hc        1 NH5      0.059950
     78 H92        -3.0910    1.1180    0.9010 hn        1 NH5      0.457800
     79 H141       -6.8700    0.7210    4.3180 hn        1 NH5      0.454800
     80 H172      -11.1270    0.5740    3.6820 hn        1 NH5      0.479300
@<TRIPOS>BOND
     1    1    2 ar  
     2    1    6 ar  
     3    1   40 1   
     4    2    3 ar  
     5    2   41 1   
     6    3    4 ar  
     7    3   39 1   
     8    4    5 ar  
     9    4   38 1   
    10    5    6 ar  
    11    5   42 1   
    12    6    7 1   
    13    7    8 1   
    14    7   43 1   
    15    7   44 1   
    16    8    9 1   
    17    8   45 1   
    18    8   46 1   
    19    9   10 1   
    20    9   47 1   
    21    9   78 1   
    22   10   11 1   
    23   10   48 1   
    24   10   49 1   
    25   11   12 1   
    26   11   50 1   
    27   11   51 1   
    28   12   13 2   
    29   12   14 1   
    30   14   15 1   
    31   14   32 1   
    32   14   79 1   
    33   15   16 1   
    34   15   52 1   
    35   15   53 1   
    36   16   17 1   
    37   16   54 1   
    38   16   55 1   
    39   17   18 1   
    40   17   56 1   
    41   17   80 1   
    42   18   19 1   
    43   18   57 1   
    44   18   58 1   
    45   19   20 1   
    46   19   59 1   
    47   19   60 1   
    48   20   21 ar  
    49   20   25 ar  
    50   21   22 ar  
    51   21   61 1   
    52   22   23 ar  
    53   22   62 1   
    54   23   24 ar  
    55   23   31 1   
    56   24   25 ar  
    57   24   30 1   
    58   25   26 1   
    59   26   27 1   
    60   27   28 1   
    61   27   63 1   
    62   27   64 1   
    63   28   29 2   
    64   28   30 1   
    65   30   65 1   
    66   31   66 1   
    67   32   33 1   
    68   32   37 1   
    69   32   67 1   
    70   33   34 1   
    71   33   68 1   
    72   33   69 1   
    73   34   35 1   
    74   34   70 1   
    75   34   71 1   
    76   35   36 1   
    77   35   72 1   
    78   35   73 1   
    79   36   37 1   
    80   36   74 1   
    81   36   75 1   
    82   37   76 1   
    83   37   77 1   
@<TRIPOS>SUBSTRUCTURE
     1 NH5         1 TEMP              0 ****  ****    0 ROOT
