@<TRIPOS>MOLECULE
NH5
   77    80     1     0     0
SMALL
bcc


@<TRIPOS>ATOM
      1 C1         -7.8950    0.6930   -1.5780 ca        1 NH5     -0.120000
      2 C2         -9.1350    0.9710   -1.0100 ca        1 NH5     -0.115000
      3 C3         -9.2150    1.6780    0.1950 ca        1 NH5      0.014400
      4 C4         -8.0380    2.1050    0.8270 ca        1 NH5      0.020400
      5 C5         -6.7950    1.8240    0.2520 ca        1 NH5     -0.116000
      6 C6         -6.7170    1.1170   -0.9520 ca        1 NH5     -0.068300
      7 C7         -5.3900    0.8330   -1.5620 c3        1 NH5     -0.044100
      8 C8         -4.6730   -0.2800   -0.7910 c3        1 NH5      0.165800
      9 N9         -3.3300   -0.5220   -1.2800 n3        1 NH5     -0.826200
     10 C10        -2.7070   -1.6740   -0.6530 c3        1 NH5      0.166800
     11 C11        -1.3020   -1.9380   -1.1930 c3        1 NH5     -0.154400
     12 C12        -0.6910   -3.1280   -0.4730 c         1 NH5      0.661100
     13 O13        -1.3750   -3.8140    0.3130 o         1 NH5     -0.609100
     14 N14         0.6340   -3.4650   -0.7420 n         1 NH5     -0.471800
     15 C15         1.4760   -2.6180   -1.5480 c3        1 NH5      0.091000
     16 C16         2.2080   -1.5120   -0.7490 c3        1 NH5      0.131800
     17 N17         3.0010   -0.6630   -1.6140 n3        1 NH5     -0.823200
     18 C18         3.7390    0.3490   -0.8810 c3        1 NH5      0.163800
     19 C19         4.6950    1.1450   -1.7750 c3        1 NH5     -0.028100
     20 C20         5.3940    2.1880   -0.9790 ca        1 NH5     -0.094300
     21 C21         4.9280    3.5060   -0.9600 ca        1 NH5     -0.092000
     22 C22         5.5800    4.4890   -0.2230 ca        1 NH5     -0.200000
     23 C23         6.7240    4.1720    0.5180 ca        1 NH5      0.108100
     24 C24         7.2270    2.8470    0.5370 ca        1 NH5     -0.005400
     25 C25         6.5370    1.8720   -0.2270 ca        1 NH5      0.096100
     26 O26         6.9330    0.5420   -0.1980 os        1 NH5     -0.314900
     27 C27         8.3250    0.3300    0.0340 c3        1 NH5      0.058400
     28 C28         8.9500    1.2460    1.0750 c         1 NH5      0.674500
     29 O29         9.9650    0.9160    1.7100 o         1 NH5     -0.612500
     30 N30         8.3610    2.4820    1.2740 n         1 NH5     -0.452100
     31 O31         7.4060    5.1110    1.2610 oh        1 NH5     -0.503100
     32 C32         1.2950   -4.5330    0.0040 c3        1 NH5      0.117700
     33 C33         1.3390   -4.2900    1.5230 c3        1 NH5     -0.096400
     34 C34         2.1490   -5.3740    2.2040 c3        1 NH5     -0.073900
     35 C35         1.5880   -6.7500    1.9110 c3        1 NH5     -0.079400
     36 C36         1.4910   -6.9930    0.4200 c3        1 NH5     -0.073900
     37 C37         0.6770   -5.9160   -0.2660 c3        1 NH5     -0.096400
     38 CL38       -8.0910    2.9650    2.2890 cl        1 NH5     -0.070400
     39 CL39      -10.7390    2.0030    0.8630 cl        1 NH5     -0.070400
     40 H1         -7.8440    0.1370   -2.5260 ha        1 NH5      0.140000
     41 H2        -10.0570    0.6340   -1.5100 ha        1 NH5      0.151000
     42 H5         -5.8700    2.1600    0.7490 ha        1 NH5      0.154000
     43 H7         -5.5170    0.5320   -2.6350 hc        1 NH5      0.057700
     44 H7A        -4.7660    1.7680   -1.5470 hc        1 NH5      0.057700
     45 H8         -4.5880    0.0240    0.2920 h1        1 NH5      0.037700
     46 H8A        -5.3160   -1.2090   -0.8270 h1        1 NH5      0.037700
     47 HN9        -3.3320   -0.6250   -2.2780 hn        1 NH5      0.351800
     48 H10        -2.6380   -1.4710    0.4530 h1        1 NH5      0.050200
     49 H10A       -3.3180   -2.6170   -0.7750 h1        1 NH5      0.050200
     50 H11        -1.3440   -2.1620   -2.2920 hc        1 NH5      0.072200
     51 H11A       -0.6580   -1.0300   -1.0450 hc        1 NH5      0.072200
     52 H15         2.2450   -3.2680   -2.0570 h1        1 NH5      0.056700
     53 H15A        0.8600   -2.1390   -2.3610 h1        1 NH5      0.056700
     54 H16         1.4480   -0.8580   -0.2350 h1        1 NH5      0.038200
     55 H16A        2.8270   -2.0020    0.0610 h1        1 NH5      0.038200
     56 HN17        3.6260   -1.2160   -2.1720 hn        1 NH5      0.354800
     57 H18         2.9850    1.0550   -0.4310 h1        1 NH5      0.040700
     58 H18A        4.3420   -0.0900   -0.0310 h1        1 NH5      0.040700
     59 H19         5.4560    0.4520   -2.2260 hc        1 NH5      0.058700
     60 H19A        4.1250    1.6230   -2.6150 hc        1 NH5      0.058700
     61 H21         4.0300    3.7680   -1.5410 ha        1 NH5      0.145000
     62 H22         5.2000    5.5210   -0.2210 ha        1 NH5      0.141000
     63 H27         8.3820   -0.7370    0.3820 h1        1 NH5      0.090700
     64 H27A        8.8850    0.4590   -0.9310 h1        1 NH5      0.090700
     65 HN30        8.7730    3.1540    1.8820 hn        1 NH5      0.351500
     66 HO31        6.9280    5.9500    1.1890 ho        1 NH5      0.430000
     67 H32         2.3690   -4.5690   -0.3590 h1        1 NH5      0.045700
     68 H33         1.8000   -3.2910    1.7360 hc        1 NH5      0.057950
     69 H33A        0.2930   -4.2830    1.9280 hc        1 NH5      0.057950
     70 H34         3.2150   -5.3220    1.8590 hc        1 NH5      0.038200
     71 H34A        2.1450   -5.1950    3.3110 hc        1 NH5      0.038200
     72 H35         2.2430   -7.5300    2.3790 hc        1 NH5      0.043200
     73 H35A        0.5690   -6.8430    2.3710 hc        1 NH5      0.043200
     74 H36         2.5220   -7.0280   -0.0220 hc        1 NH5      0.038200
     75 H36A        1.0120   -7.9900    0.2330 hc        1 NH5      0.038200
     76 H37        -0.3780   -5.9330    0.1150 hc        1 NH5      0.057950
     77 H37A        0.6490   -6.1140   -1.3680 hc        1 NH5      0.057950
@<TRIPOS>BOND
     1    1    2 ar  
     2    1    6 ar  
     3    1   40 1   
     4    2    3 ar  
     5    2   41 1   
     6    3    4 ar  
     7    3   39 1   
     8    4    5 ar  
     9    4   38 1   
    10    5    6 ar  
    11    5   42 1   
    12    6    7 1   
    13    7    8 1   
    14    7   43 1   
    15    7   44 1   
    16    8    9 1   
    17    8   45 1   
    18    8   46 1   
    19    9   10 1   
    20    9   47 1   
    21   10   11 1   
    22   10   48 1   
    23   10   49 1   
    24   11   12 1   
    25   11   50 1   
    26   11   51 1   
    27   12   13 2   
    28   12   14 1   
    29   14   15 1   
    30   14   32 1   
    31   15   16 1   
    32   15   52 1   
    33   15   53 1   
    34   16   17 1   
    35   16   54 1   
    36   16   55 1   
    37   17   18 1   
    38   17   56 1   
    39   18   19 1   
    40   18   57 1   
    41   18   58 1   
    42   19   20 1   
    43   19   59 1   
    44   19   60 1   
    45   20   21 ar  
    46   20   25 ar  
    47   21   22 ar  
    48   21   61 1   
    49   22   23 ar  
    50   22   62 1   
    51   23   24 ar  
    52   23   31 1   
    53   24   25 ar  
    54   24   30 1   
    55   25   26 1   
    56   26   27 1   
    57   27   28 1   
    58   27   63 1   
    59   27   64 1   
    60   28   29 2   
    61   28   30 1   
    62   30   65 1   
    63   31   66 1   
    64   32   33 1   
    65   32   37 1   
    66   32   67 1   
    67   33   34 1   
    68   33   68 1   
    69   33   69 1   
    70   34   35 1   
    71   34   70 1   
    72   34   71 1   
    73   35   36 1   
    74   35   72 1   
    75   35   73 1   
    76   36   37 1   
    77   36   74 1   
    78   36   75 1   
    79   37   76 1   
    80   37   77 1   
@<TRIPOS>SUBSTRUCTURE
     1 NH5         1 TEMP              0 ****  ****    0 ROOT
