@<TRIPOS>MOLECULE
NH5
   77    75     1     0     0
SMALL
bcc


@<TRIPOS>ATOM
      1 C1          6.7420   -1.4780   -5.9630 c1        1 NH5     -0.120000
      2 C2          7.8650   -1.3190   -6.7720 c1        1 NH5     -0.114500
      3 C3          9.0940   -1.8140   -6.3590 c1        1 NH5     -0.061000
      4 C4          9.2090   -2.4760   -5.1290 c1        1 NH5     -0.061000
      5 C5          8.0880   -2.6370   -4.3160 c1        1 NH5     -0.114500
      6 C6          6.8550   -2.1420   -4.7260 c1        1 NH5     -0.061000
      7 C7          5.6060   -2.4250   -3.8950 c3        1 NH5     -0.129000
      8 C8          5.4340   -1.2700   -2.7630 c3        1 NH5     -0.070000
      9 N9          4.0910   -1.3680   -2.1600 n3        1 NH5     -0.305000
     10 C10         3.8180   -0.1850   -1.4070 c3        1 NH5     -0.070000
     11 C11         2.3660   -0.2540   -0.8360 c3        1 NH5     -0.183000
     12 C12         1.7740    1.1460   -0.7700 c2        1 NH5      0.304000
     13 O13         2.4490    2.1020   -1.0710 o         1 NH5     -0.370000
     14 N14         0.3300    1.3250   -0.4620 n         1 NH5     -0.331000
     15 C15        -0.5260    0.1370   -0.1950 c3        1 NH5     -0.025000
     16 C16        -1.2470    0.3170    1.1180 c3        1 NH5     -0.105000
     17 N17        -2.2010   -0.7640    1.2960 n3        1 NH5     -0.302000
     18 C18        -3.0940   -0.4520    2.4300 c3        1 NH5     -0.073000
     19 C19        -3.9850   -1.6800    2.7390 c3        1 NH5     -0.114000
     20 C20        -4.7390   -1.4420    4.0430 c2        1 NH5     -0.087000
     21 C21        -4.0660   -0.8620    5.1650 c2        1 NH5     -0.092000
     22 C22        -4.7710   -0.6470    6.3970 c1        1 NH5     -0.200000
     23 C23        -6.1290   -1.0050    6.5060 c1        1 NH5      0.063000
     24 C24        -6.7950   -1.5760    5.4030 c1        1 NH5      0.002000
     25 C25        -6.0700   -1.7960    4.1430 c1        1 NH5      0.051000
     26 O26        -6.7680   -2.4970    3.0640 os        1 NH5     -0.198000
     27 C27        -7.9210   -3.0760    3.3500 c3        1 NH5     -0.042000
     28 C28        -8.7700   -2.2530    4.2710 c2        1 NH5      0.282000
     29 O29       -10.0100   -2.2280    4.1190 o         1 NH5     -0.337000
     30 N30        -8.2260   -1.8220    5.4120 n         1 NH5     -0.306000
     31 O31        -6.8640   -0.6180    7.6440 oh        1 NH5     -0.257000
     32 C32        -0.1840    2.4700   -0.5140 c3        1 NH5      0.043000
     33 C33         0.8450    3.6270    0.0300 c3        1 NH5     -0.171000
     34 C34         0.2640    5.0150   -0.0410 c3        1 NH5     -0.152500
     35 C35        -0.7990    5.0770   -0.9090 c3        1 NH5     -0.157000
     36 C36        -0.8790    4.4320   -2.1000 c3        1 NH5     -0.152500
     37 C37        -0.2870    3.0150   -2.0150 c3        1 NH5     -0.171000
     38 CL38       10.7120   -3.2250   -4.6950 cl        1 NH5      0.008000
     39 CL39       10.5110   -1.6900   -7.4340 cl        1 NH5      0.008000
     40 H1          5.8810   -1.1300   -6.2530 ha        1 NH5      0.141000
     41 H2          7.7870   -0.8460   -7.6540 ha        1 NH5      0.152000
     42 H5          8.1720   -3.1170   -3.4240 ha        1 NH5      0.152000
     43 H7          4.8310   -2.4270   -4.4720 hc        1 NH5      0.097500
     44 H7A         5.6950   -3.3100   -3.4550 hc        1 NH5      0.097500
     45 H8          5.5460   -0.3630   -3.1880 h1        1 NH5      0.076500
     46 H8A         6.1210   -1.3910   -2.0600 h1        1 NH5      0.076500
     47 HN9         3.4750   -1.4550   -2.8140 hn        1 NH5      0.147000
     48 H10         4.4440   -0.1150   -0.6810 h1        1 NH5      0.089500
     49 H10A        3.9040    0.6170   -2.0020 h1        1 NH5      0.089500
     50 H11         1.8120   -0.8160   -1.4190 hc        1 NH5      0.111500
     51 H11A        2.3890   -0.6470    0.0780 hc        1 NH5      0.111500
     52 H15         0.0440   -0.6800   -0.1500 h1        1 NH5      0.096000
     53 H15A       -1.1780    0.0390   -0.9120 h1        1 NH5      0.096000
     54 H16        -1.7220    1.1710    1.1150 h1        1 NH5      0.077500
     55 H16A       -0.5840    0.3070    1.8670 h1        1 NH5      0.077500
     56 HN17       -2.7160   -0.8600    0.5090 hn        1 NH5      0.150000
     57 H18        -3.6680    0.3210    2.1940 h1        1 NH5      0.080000
     58 H18A       -2.5450   -0.2240    3.2370 h1        1 NH5      0.080000
     59 H19        -3.4330   -2.4670    2.8240 hc        1 NH5      0.098000
     60 H19A       -4.6270   -1.8100    2.0080 hc        1 NH5      0.098000
     61 H21        -3.1630   -0.6230    5.0960 ha        1 NH5      0.145000
     62 H22        -4.3000   -0.2440    7.1720 ha        1 NH5      0.141000
     63 H27        -7.7110   -3.9830    3.6050 h1        1 NH5      0.130000
     64 H27A       -8.4660   -3.2350    2.5640 h1        1 NH5      0.130000
     65 HN30       -8.7360   -1.3360    5.9760 hn        1 NH5      0.265000
     66 HO31       -6.5910   -1.0900    8.3470 ho        1 NH5      0.229000
     67 H32        -1.0660    2.5070   -0.0430 h1        1 NH5      0.086000
     68 H33         1.0810    3.4290    0.9650 hc        1 NH5      0.094500
     69 H33A        1.6660    3.6010   -0.5160 hc        1 NH5      0.094500
     70 H34        -0.0420    5.2860    0.8660 hc        1 NH5      0.080250
     71 H34A        0.9740    5.6510   -0.3480 hc        1 NH5      0.080250
     72 H35        -0.9220    6.0380   -1.1110 hc        1 NH5      0.077000
     73 H35A       -1.5620    4.8010   -0.4120 hc        1 NH5      0.077000
     74 H36        -0.3790    4.9520   -2.7830 hc        1 NH5      0.080250
     75 H36A       -1.8560    4.3680   -2.3770 hc        1 NH5      0.080250
     76 H37        -0.8650    2.3950   -2.5480 hc        1 NH5      0.094500
     77 H37A        0.5870    3.0240   -2.3970 hc        1 NH5      0.094500
@<TRIPOS>BOND
     1    1    6 1   
     2    1   40 1   
     3    2    3 1   
     4    2   41 1   
     5    3   39 1   
     6    4    5 1   
     7    4   38 1   
     8    5   42 1   
     9    6    7 1   
    10    7    8 1   
    11    7   43 1   
    12    7   44 1   
    13    8    9 1   
    14    8   45 1   
    15    8   46 1   
    16    9   10 1   
    17    9   47 1   
    18   10   11 1   
    19   10   48 1   
    20   10   49 1   
    21   11   12 1   
    22   11   50 1   
    23   11   51 1   
    24   12   13 1   
    25   12   14 1   
    26   14   15 1   
    27   14   32 1   
    28   15   16 1   
    29   15   52 1   
    30   15   53 1   
    31   16   17 1   
    32   16   54 1   
    33   16   55 1   
    34   17   18 1   
    35   17   56 1   
    36   18   19 1   
    37   18   57 1   
    38   18   58 1   
    39   19   20 1   
    40   19   59 1   
    41   19   60 1   
    42   20   21 1   
    43   20   25 1   
    44   21   22 1   
    45   21   61 1   
    46   22   62 1   
    47   23   24 1   
    48   23   31 1   
    49   24   30 1   
    50   25   26 1   
    51   26   27 1   
    52   27   28 1   
    53   27   63 1   
    54   27   64 1   
    55   28   29 1   
    56   28   30 1   
    57   30   65 1   
    58   31   66 1   
    59   32   33 1   
    60   32   37 1   
    61   32   67 1   
    62   33   34 1   
    63   33   68 1   
    64   33   69 1   
    65   34   35 1   
    66   34   70 1   
    67   34   71 1   
    68   35   36 1   
    69   35   72 1   
    70   35   73 1   
    71   36   37 1   
    72   36   74 1   
    73   36   75 1   
    74   37   76 1   
    75   37   77 1   
@<TRIPOS>SUBSTRUCTURE
     1 NH5         1 TEMP              0 ****  ****    0 ROOT
