@<TRIPOS>MOLECULE
NH7
   67    72     1     0     0
SMALL
bcc


@<TRIPOS>ATOM
      1 C2          0.1190    0.1780   -0.3010 cc        1 NH7      0.412400
      2 C7          3.2080    0.0170    1.7130 c3        1 NH7      0.372600
      3 C10         3.2280   -0.5270    3.1180 cc        1 NH7      0.050900
      4 C11         4.0010   -1.5080    3.6970 cd        1 NH7     -0.165200
      5 C12         3.6270   -1.5630    5.0980 ca        1 NH7     -0.093800
      6 C13         4.0360   -2.3210    6.1820 ca        1 NH7     -0.065000
      7 C14         3.4160   -2.0790    7.4170 ca        1 NH7     -0.205600
      8 C15         2.3940   -1.1170    7.5640 ca        1 NH7     -0.055000
      9 C16         1.9580   -0.3330    6.4890 cp        1 NH7      0.022000
     10 C21         3.7970    1.4130    1.7140 ca        1 NH7     -0.112300
     11 C22         5.0360    1.6740    1.1200 ca        1 NH7     -0.096000
     12 C24         4.8400    4.0000    1.7370 ca        1 NH7      0.030400
     13 C31         0.8980    0.6530    6.6560 cp        1 NH7     -0.079000
     14 C32        -0.1670    0.4040    7.5350 ca        1 NH7     -0.101500
     15 C33        -1.1760    1.3500    7.7000 ca        1 NH7     -0.125500
     16 C34        -1.1330    2.5520    6.9930 ca        1 NH7     -0.096000
     17 C35        -0.0800    2.8030    6.1130 ca        1 NH7     -0.125500
     18 N1          1.5080    0.2970   -0.1860 na        1 NH7     -0.174900
     19 N3         -0.4540   -0.1680    0.8760 nd        1 NH7     -0.661000
     20 C4          0.5870   -0.2790    1.7850 cd        1 NH7      0.334200
     21 C5          1.8210    0.0040    1.1530 cc        1 NH7     -0.300900
     22 C6          2.4050    0.6560   -1.2360 c3        1 NH7      0.007600
     23 O8          4.0690   -0.8140    0.9280 oh        1 NH7     -0.590800
     24 O9          2.3580    0.0690    4.0600 os        1 NH7     -0.164200
     25 C17         2.6030   -0.5700    5.2680 ca        1 NH7      0.115100
     26 C23         5.5590    2.9660    1.1310 ca        1 NH7     -0.130000
     27 C25         3.5990    3.7460    2.3330 ca        1 NH7     -0.130000
     28 C26         3.0830    2.4530    2.3210 ca        1 NH7     -0.096000
     29 Cl27        5.4730    5.5740    1.7510 cl        1 NH7     -0.071400
     30 C36         0.9290    1.8590    5.9400 ca        1 NH7     -0.101500
     31 C41         3.7700   -2.8390    8.6100 c         1 NH7      0.619700
     32 O42         3.0760   -3.3440    9.4730 o         1 NH7     -0.415100
     33 N43         5.3040   -3.0260    8.8230 ny        1 NH7     -0.472600
     34 N44         5.7880   -2.1800    9.8610 n3        1 NH7     -0.485400
     35 C45         7.2210   -1.8310    9.6990 c3        1 NH7      0.077300
     36 C46         7.6810   -0.8940   10.8310 c3        1 NH7      0.130900
     37 O47         7.4400   -1.4830   12.0980 os        1 NH7     -0.385600
     38 C48         6.0630   -1.7620   12.2960 c3        1 NH7      0.130900
     39 C49         5.5450   -2.7290   11.2170 c3        1 NH7      0.077300
     40 H2         -0.4120    0.3500   -1.2450 h5        1 NH7      0.073100
     41 H11         4.7550   -2.1200    3.2060 ha        1 NH7      0.187000
     42 H13         4.7910   -3.1090    6.0450 ha        1 NH7      0.136000
     43 H15         1.9270   -0.9760    8.5540 ha        1 NH7      0.168000
     44 H22         5.6010    0.8590    0.6390 ha        1 NH7      0.154500
     45 H32        -0.2200   -0.5480    8.0850 ha        1 NH7      0.137000
     46 H33        -2.0120    1.1440    8.3870 ha        1 NH7      0.147000
     47 H34        -1.9320    3.2980    7.1250 ha        1 NH7      0.149000
     48 H35        -0.0480    3.7480    5.5490 ha        1 NH7      0.147000
     49 H4          0.4120   -0.5430    2.8280 h4        1 NH7      0.047100
     50 H6          2.3430   -0.1000   -2.0640 h1        1 NH7      0.067033
     51 H6A         2.1300    1.6670   -1.6430 h1        1 NH7      0.067033
     52 H6B         3.4580    0.6890   -0.8420 h1        1 NH7      0.067033
     53 HO8         3.5830   -1.6250    0.7310 ho        1 NH7      0.426000
     54 H23         6.5340    3.1670    0.6590 ha        1 NH7      0.156000
     55 H25         3.0300    4.5620    2.8030 ha        1 NH7      0.156000
     56 H26         2.1070    2.2420    2.7880 ha        1 NH7      0.154500
     57 H36         1.7510    2.0560    5.2330 ha        1 NH7      0.137000
     58 HN43        5.7800   -2.7600    7.9470 hn        1 NH7      0.440800
     59 H45         7.8790   -2.7480    9.7050 h1        1 NH7      0.078200
     60 H45A        7.3550   -1.2860    8.7230 h1        1 NH7      0.078200
     61 H46         7.1690    0.1010   10.7550 h1        1 NH7      0.087200
     62 H46A        8.7960   -0.7680   10.7780 h1        1 NH7      0.087200
     63 H48         5.4670   -0.8120   12.3000 h1        1 NH7      0.087200
     64 H48A        6.0110   -2.2630   13.3000 h1        1 NH7      0.087200
     65 H49         6.0520   -3.7270   11.3590 h1        1 NH7      0.078200
     66 H49A        4.4340   -2.8600   11.3600 h1        1 NH7      0.078200
     67 H432        5.4870   -4.0240    9.0150 hn        1 NH7      0.440800
@<TRIPOS>BOND
     1    1   18 1   
     2    1   19 2   
     3    1   40 1   
     4    2    3 1   
     5    2   10 1   
     6    2   21 1   
     7    2   23 1   
     8    3    4 2   
     9    3   24 1   
    10    4    5 1   
    11    4   41 1   
    12    5    6 ar  
    13    5   25 ar  
    14    6    7 ar  
    15    6   42 1   
    16    7    8 ar  
    17    7   31 1   
    18    8    9 ar  
    19    8   43 1   
    20    9   13 1   
    21    9   25 ar  
    22   10   11 ar  
    23   10   28 ar  
    24   11   26 ar  
    25   11   44 1   
    26   12   26 ar  
    27   12   27 ar  
    28   12   29 1   
    29   13   14 ar  
    30   13   30 ar  
    31   14   15 ar  
    32   14   45 1   
    33   15   16 ar  
    34   15   46 1   
    35   16   17 ar  
    36   16   47 1   
    37   17   30 ar  
    38   17   48 1   
    39   18   21 1   
    40   18   22 1   
    41   19   20 1   
    42   20   21 2   
    43   20   49 1   
    44   22   50 1   
    45   22   51 1   
    46   22   52 1   
    47   23   53 1   
    48   24   25 1   
    49   26   54 1   
    50   27   28 ar  
    51   27   55 1   
    52   28   56 1   
    53   30   57 1   
    54   31   32 2   
    55   31   33 1   
    56   33   34 1   
    57   33   58 1   
    58   33   67 1   
    59   34   35 1   
    60   34   39 1   
    61   35   36 1   
    62   35   59 1   
    63   35   60 1   
    64   36   37 1   
    65   36   61 1   
    66   36   62 1   
    67   37   38 1   
    68   38   39 1   
    69   38   63 1   
    70   38   64 1   
    71   39   65 1   
    72   39   66 1   
@<TRIPOS>SUBSTRUCTURE
     1 NH7         1 TEMP              0 ****  ****    0 ROOT
