@<TRIPOS>MOLECULE
NH7
   67    72     1     0     0
SMALL
bcc


@<TRIPOS>ATOM
      1 C2          0.1050    0.2160   -0.2870 cc        1 NH7      0.412400
      2 C7          3.2000    0.0310    1.7160 c3        1 NH7      0.372600
      3 C10         3.2220   -0.5160    3.1200 cc        1 NH7      0.050900
      4 C11         3.9910   -1.5020    3.6940 cd        1 NH7     -0.165200
      5 C12         3.6200   -1.5580    5.0960 ca        1 NH7     -0.093800
      6 C13         4.0290   -2.3200    6.1780 ca        1 NH7     -0.065000
      7 C14         3.4140   -2.0760    7.4150 ca        1 NH7     -0.205600
      8 C15         2.3990   -1.1090    7.5670 ca        1 NH7     -0.055000
      9 C16         1.9640   -0.3200    6.4950 cp        1 NH7      0.022000
     10 C21         3.7990    1.4230    1.7170 ca        1 NH7     -0.112300
     11 C22         5.0370    1.6770    1.1190 ca        1 NH7     -0.096000
     12 C24         4.8570    4.0030    1.7410 ca        1 NH7      0.030400
     13 C31         0.9100    0.6720    6.6670 cp        1 NH7     -0.079000
     14 C32        -0.1530    0.4280    7.5490 ca        1 NH7     -0.101500
     15 C33        -1.1560    1.3800    7.7190 ca        1 NH7     -0.125500
     16 C34        -1.1080    2.5830    7.0140 ca        1 NH7     -0.096000
     17 C35        -0.0560    2.8300    6.1310 ca        1 NH7     -0.125500
     18 N1          1.4950    0.3250   -0.1770 na        1 NH7     -0.174900
     19 N3         -0.4660   -0.1290    0.8910 nd        1 NH7     -0.661000
     20 C4          0.5780   -0.2490    1.7950 cd        1 NH7      0.334200
     21 C5          1.8110    0.0280    1.1610 cc        1 NH7     -0.300900
     22 C6          2.3910    0.6800   -1.2290 c3        1 NH7      0.007600
     23 O8          4.0530   -0.8040    0.9260 oh        1 NH7     -0.590800
     24 O9          2.3590    0.0840    4.0650 os        1 NH7     -0.164200
     25 C17         2.6030   -0.5580    5.2710 ca        1 NH7      0.115100
     26 C23         5.5680    2.9660    1.1300 ca        1 NH7     -0.130000
     27 C25         3.6170    3.7560    2.3400 ca        1 NH7     -0.130000
     28 C26         3.0930    2.4660    2.3280 ca        1 NH7     -0.096000
     29 CL27        5.5010    5.5730    1.7560 cl        1 NH7     -0.071400
     30 C36         0.9470    1.8790    5.9530 ca        1 NH7     -0.101500
     31 C41         3.7680   -2.8400    8.6060 c         1 NH7      0.619700
     32 O42         3.0730   -3.3420    9.4700 o         1 NH7     -0.415100
     33 N43         5.3010   -3.0370    8.8130 n4        1 NH7     -0.472600
     34 N44         5.7940   -2.1960    9.8510 n3        1 NH7     -0.485400
     35 C45         7.2280   -1.8550    9.6850 c3        1 NH7      0.077300
     36 C46         7.6980   -0.9230   10.8170 c3        1 NH7      0.130900
     37 O47         7.4570   -1.5140   12.0840 os        1 NH7     -0.385600
     38 C48         6.0790   -1.7850   12.2860 c3        1 NH7      0.130900
     39 C49         5.5520   -2.7460   11.2070 c3        1 NH7      0.077300
     40 H2         -0.4270    0.3930   -1.2290 h5        1 NH7      0.073100
     41 H11         4.7390   -2.1190    3.2000 ha        1 NH7      0.187000
     42 H13         4.7780   -3.1120    6.0370 ha        1 NH7      0.136000
     43 H15         1.9360   -0.9660    8.5590 ha        1 NH7      0.168000
     44 H22         5.5950    0.8590    0.6350 ha        1 NH7      0.154500
     45 H32        -0.2100   -0.5240    8.0970 ha        1 NH7      0.137000
     46 H33        -1.9910    1.1780    8.4080 ha        1 NH7      0.147000
     47 H34        -1.9020    3.3340    7.1500 ha        1 NH7      0.149000
     48 H35        -0.0200    3.7750    5.5690 ha        1 NH7      0.147000
     49 H4          0.4050   -0.5130    2.8390 h4        1 NH7      0.047100
     50 H6          3.4460    0.7050   -0.8390 h1        1 NH7      0.067033
     51 H6A         2.1220    1.6940   -1.6340 h1        1 NH7      0.067033
     52 H6B         2.3210   -0.0740   -2.0600 h1        1 NH7      0.067033
     53 HO8         3.5610   -1.6120    0.7290 ho        1 NH7      0.426000
     54 H23         6.5430    3.1620    0.6560 ha        1 NH7      0.156000
     55 H25         3.0550    4.5750    2.8140 ha        1 NH7      0.156000
     56 H26         2.1170    2.2610    2.7980 ha        1 NH7      0.154500
     57 H36         1.7680    2.0730    5.2440 ha        1 NH7      0.137000
     58 HN43        5.4790   -4.0360    9.0020 hn        1 NH7      0.440800
     59 H45         7.8800   -2.7750    9.6870 h1        1 NH7      0.078200
     60 H45A        7.3620   -1.3090    8.7090 h1        1 NH7      0.078200
     61 H46         7.1910    0.0750   10.7460 h1        1 NH7      0.087200
     62 H46A        8.8130   -0.8030   10.7610 h1        1 NH7      0.087200
     63 H48         5.4890   -0.8320   12.2950 h1        1 NH7      0.087200
     64 H48A        6.0280   -2.2880   13.2890 h1        1 NH7      0.087200
     65 H49         6.0540   -3.7480   11.3450 h1        1 NH7      0.078200
     66 H49A        4.4410   -2.8720   11.3530 h1        1 NH7      0.078200
     67 H432        5.7760   -2.7720    7.9370 hn        1 NH7      0.440800
@<TRIPOS>BOND
     1    1   18 1   
     2    1   19 2   
     3    1   40 1   
     4    2    3 1   
     5    2   10 1   
     6    2   21 1   
     7    2   23 1   
     8    3    4 2   
     9    3   24 1   
    10    4    5 1   
    11    4   41 1   
    12    5    6 ar  
    13    5   25 ar  
    14    6    7 ar  
    15    6   42 1   
    16    7    8 ar  
    17    7   31 1   
    18    8    9 ar  
    19    8   43 1   
    20    9   13 1   
    21    9   25 ar  
    22   10   11 ar  
    23   10   28 ar  
    24   11   26 ar  
    25   11   44 1   
    26   12   26 ar  
    27   12   27 ar  
    28   12   29 1   
    29   13   14 ar  
    30   13   30 ar  
    31   14   15 ar  
    32   14   45 1   
    33   15   16 ar  
    34   15   46 1   
    35   16   17 ar  
    36   16   47 1   
    37   17   30 ar  
    38   17   48 1   
    39   18   21 1   
    40   18   22 1   
    41   19   20 1   
    42   20   21 2   
    43   20   49 1   
    44   22   50 1   
    45   22   51 1   
    46   22   52 1   
    47   23   53 1   
    48   24   25 1   
    49   26   54 1   
    50   27   28 ar  
    51   27   55 1   
    52   28   56 1   
    53   30   57 1   
    54   31   32 2   
    55   31   33 1   
    56   33   34 1   
    57   33   58 1   
    58   33   67 1   
    59   34   35 1   
    60   34   39 1   
    61   35   36 1   
    62   35   59 1   
    63   35   60 1   
    64   36   37 1   
    65   36   61 1   
    66   36   62 1   
    67   37   38 1   
    68   38   39 1   
    69   38   63 1   
    70   38   64 1   
    71   39   65 1   
    72   39   66 1   
@<TRIPOS>SUBSTRUCTURE
     1 NH7         1 TEMP              0 ****  ****    0 ROOT
