@<TRIPOS>MOLECULE
NH7
   66    71     1     0     0
SMALL
bcc


@<TRIPOS>ATOM
      1 C2         -4.8520    1.4570    3.5070 cc        1 NH7      0.392400
      2 C7         -2.7910   -0.7840    1.4080 c3        1 NH7      0.372600
      3 C10        -1.3630   -0.4310    1.0990 cc        1 NH7      0.003900
      4 C11        -0.1850   -0.9680    1.5660 cd        1 NH7     -0.152200
      5 C12         0.8930   -0.2400    0.9240 ca        1 NH7     -0.110800
      6 C13         2.2810   -0.3070    0.9760 ca        1 NH7     -0.062000
      7 C14         3.0080    0.5910    0.1930 ca        1 NH7     -0.156600
      8 C15         2.3710    1.5500   -0.6150 ca        1 NH7     -0.059000
      9 C16         0.9760    1.6500   -0.6930 cp        1 NH7     -0.019000
     10 C21        -3.5770   -1.0670    0.1410 ca        1 NH7     -0.122300
     11 C22        -4.2110   -2.3000   -0.0470 ca        1 NH7     -0.101000
     12 C24        -5.0560   -1.5540   -2.1810 ca        1 NH7      0.026400
     13 C31         0.3370    2.6560   -1.5330 cp        1 NH7     -0.044000
     14 C32         0.9200    3.9230   -1.6840 ca        1 NH7     -0.110500
     15 C33         0.3190    4.8800   -2.4980 ca        1 NH7     -0.131500
     16 C34        -0.8670    4.5860   -3.1700 ca        1 NH7     -0.119000
     17 C35        -1.4560    3.3300   -3.0200 ca        1 NH7     -0.131500
     18 N1         -4.5460    0.1770    3.0320 na        1 NH7     -0.171900
     19 N3         -4.0220    2.3930    2.9910 nd        1 NH7     -0.666000
     20 C4         -3.1420    1.7070    2.1660 cd        1 NH7      0.323200
     21 C5         -3.4440    0.3250    2.1760 cc        1 NH7     -0.230900
     22 C6         -5.1710   -1.0460    3.4140 c3        1 NH7      0.026600
     23 O8         -2.7810   -1.9370    2.2580 oh        1 NH7     -0.589800
     24 O9         -1.1270    0.6180    0.1850 os        1 NH7     -0.187200
     25 C17         0.2620    0.7310    0.0840 ca        1 NH7      0.089100
     26 C23        -4.9460   -2.5490   -1.2050 ca        1 NH7     -0.127500
     27 C25        -4.4400   -0.3120   -1.9970 ca        1 NH7     -0.127500
     28 C26        -3.7060   -0.0740   -0.8370 ca        1 NH7     -0.101000
     29 CL27       -5.9490   -1.8540   -3.5950 cl        1 NH7     -0.087400
     30 C36        -0.8610    2.3710   -2.2040 ca        1 NH7     -0.110500
     31 C41         4.5040    0.5990    0.2100 c         1 NH7      0.675700
     32 O42         5.1430    1.6580    0.2900 o         1 NH7     -0.545100
     33 N43         5.0990   -0.6660    0.0160 n         1 NH7     -0.423300
     34 N44         6.4460   -0.8490    0.2290 n3        1 NH7     -0.461600
     35 C45         7.0930   -1.5790   -0.8880 c3        1 NH7      0.107300
     36 C46         8.5980   -1.7290   -0.6490 c3        1 NH7      0.128900
     37 O47         8.8690   -2.3730    0.5910 os        1 NH7     -0.415600
     38 C48         8.2870   -1.6760    1.6860 c3        1 NH7      0.128900
     39 C49         6.7730   -1.5190    1.5100 c3        1 NH7      0.107300
     40 H2         -5.6750    1.6450    4.2040 h5        1 NH7      0.062100
     41 H11        -0.0660   -1.7680    2.2930 ha        1 NH7      0.171000
     42 H13         2.7760   -1.0360    1.6330 ha        1 NH7      0.140000
     43 H15         2.9990    2.2440   -1.1990 ha        1 NH7      0.164000
     44 H22        -4.1480   -3.0830    0.7250 ha        1 NH7      0.150500
     45 H32         1.8510    4.1670   -1.1490 ha        1 NH7      0.141000
     46 H33         0.7820    5.8720   -2.6080 ha        1 NH7      0.134500
     47 H34        -1.3390    5.3430   -3.8140 ha        1 NH7      0.134000
     48 H35        -2.3930    3.0960   -3.5460 ha        1 NH7      0.134500
     49 H4         -2.3510    2.2110    1.6090 h4        1 NH7      0.053100
     50 H6         -5.2440   -1.7240    2.5200 h1        1 NH7      0.058033
     51 H6A        -4.5560   -1.5650    4.2000 h1        1 NH7      0.058033
     52 H6B        -6.1960   -0.8350    3.8170 h1        1 NH7      0.058033
     53 HO8        -2.2730   -2.6210    1.8010 ho        1 NH7      0.414000
     54 H23        -5.4370   -3.5240   -1.3450 ha        1 NH7      0.150500
     55 H25        -4.5340    0.4750   -2.7590 ha        1 NH7      0.150500
     56 H26        -3.2250    0.9080   -0.6850 ha        1 NH7      0.150500
     57 H36        -1.3340    1.3840   -2.0780 ha        1 NH7      0.141000
     58 HN43        4.5080   -1.4550    0.2170 hn        1 NH7      0.278500
     59 H45         6.6470   -2.6040   -1.0370 h1        1 NH7      0.049950
     60 H45A        6.9390   -0.9860   -1.8310 h1        1 NH7      0.049950
     61 H46         9.0400   -2.4120   -1.4220 h1        1 NH7      0.060450
     62 H46A        9.1080   -0.7310   -0.6760 h1        1 NH7      0.060450
     63 H48         8.5030   -2.3210    2.5780 h1        1 NH7      0.060450
     64 H48A        8.7780   -0.6750    1.8030 h1        1 NH7      0.060450
     65 H49         6.3860   -0.8790    2.3500 h1        1 NH7      0.049950
     66 H49A        6.2950   -2.5380    1.5900 h1        1 NH7      0.049950
@<TRIPOS>BOND
     1    1   18 1   
     2    1   19 2   
     3    1   40 1   
     4    2    3 1   
     5    2   10 1   
     6    2   21 1   
     7    2   23 1   
     8    3    4 2   
     9    3   24 1   
    10    4    5 1   
    11    4   41 1   
    12    5    6 ar  
    13    5   25 ar  
    14    6    7 ar  
    15    6   42 1   
    16    7    8 ar  
    17    7   31 1   
    18    8    9 ar  
    19    8   43 1   
    20    9   13 1   
    21    9   25 ar  
    22   10   11 ar  
    23   10   28 ar  
    24   11   26 ar  
    25   11   44 1   
    26   12   26 ar  
    27   12   27 ar  
    28   12   29 1   
    29   13   14 ar  
    30   13   30 ar  
    31   14   15 ar  
    32   14   45 1   
    33   15   16 ar  
    34   15   46 1   
    35   16   17 ar  
    36   16   47 1   
    37   17   30 ar  
    38   17   48 1   
    39   18   21 1   
    40   18   22 1   
    41   19   20 1   
    42   20   21 2   
    43   20   49 1   
    44   22   50 1   
    45   22   51 1   
    46   22   52 1   
    47   23   53 1   
    48   24   25 1   
    49   26   54 1   
    50   27   28 ar  
    51   27   55 1   
    52   28   56 1   
    53   30   57 1   
    54   31   32 2   
    55   31   33 1   
    56   33   34 1   
    57   33   58 1   
    58   34   35 1   
    59   34   39 1   
    60   35   36 1   
    61   35   59 1   
    62   35   60 1   
    63   36   37 1   
    64   36   61 1   
    65   36   62 1   
    66   37   38 1   
    67   38   39 1   
    68   38   63 1   
    69   38   64 1   
    70   39   65 1   
    71   39   66 1   
@<TRIPOS>SUBSTRUCTURE
     1 NH7         1 TEMP              0 ****  ****    0 ROOT
