@<TRIPOS>MOLECULE
NH7
   66    58     1     0     0
SMALL
bcc


@<TRIPOS>ATOM
      1 C2         -3.9090    1.9520   -4.7560 c1        1 NH7     -0.101000
      2 C7         -0.7040    2.4280   -3.1040 c3        1 NH7      0.285000
      3 C10        -0.4740    1.5930   -1.8460 c2        1 NH7     -0.047000
      4 C11         0.0560    0.3320   -2.0860 c1        1 NH7     -0.156000
      5 C12         0.2270   -0.3060   -0.8530 c1        1 NH7     -0.107000
      6 C13         0.7190   -1.5830   -0.5110 c1        1 NH7     -0.032000
      7 C14         0.7780   -1.9720    0.8270 c1        1 NH7     -0.146000
      8 C15         0.3510   -1.1000    1.8260 c1        1 NH7     -0.071000
      9 C16        -0.1350    0.1630    1.4880 c1        1 NH7     -0.027000
     10 C21        -0.3950    3.8980   -2.8060 c2        1 NH7     -0.112000
     11 C22         0.9150    4.3430   -2.8180 c2        1 NH7     -0.115000
     12 C24         0.1490    6.6050   -2.4950 c1        1 NH7     -0.052000
     13 C31        -0.5360    0.7000    2.7250 c1        1 NH7     -0.042000
     14 C32        -1.8530    0.5690    3.1440 c1        1 NH7     -0.124750
     15 C33        -2.2540    1.1180    4.3580 c1        1 NH7     -0.124750
     16 C34        -1.3380    1.7970    5.1490 c1        1 NH7     -0.124750
     17 C35        -0.0210    1.9280    4.7300 c1        1 NH7     -0.124750
     18 N1         -2.5520    1.9130   -4.7500 n2        1 NH7     -0.127000
     19 N3         -4.3210    2.3640   -3.5310 n2        1 NH7     -0.141000
     20 C4         -3.2340    2.5760   -2.7780 c1        1 NH7     -0.142000
     21 C5         -2.1310    2.2950   -3.5390 c2        1 NH7     -0.140000
     22 C6         -1.7220    1.5630   -5.8510 c2        1 NH7     -0.071000
     23 O8          0.1520    1.9650   -4.1440 oh        1 NH7     -0.318000
     24 O9         -0.6310    1.7380   -0.4800 os        1 NH7     -0.092000
     25 C17        -0.1950    0.5570    0.1350 c1        1 NH7      0.047000
     26 C23         1.1910    5.6970   -2.6620 c1        1 NH7     -0.125000
     27 C25        -1.1640    6.1610   -2.4830 c1        1 NH7     -0.127000
     28 C26        -1.4400    4.8100   -2.6380 c1        1 NH7     -0.085000
     29 CL27        0.4160    8.1890   -1.8000 cl        1 NH7     -0.009000
     30 C36         0.3810    1.3800    3.5190 c1        1 NH7     -0.106000
     31 C41         1.4430   -3.3690    0.8340 c2        1 NH7      0.341000
     32 O42         1.7890   -3.8860   -0.2180 o         1 NH7     -0.318000
     33 N43         1.6640   -4.0490    2.0690 n         1 NH7     -0.296000
     34 N44         1.0540   -5.2780    2.3060 n3        1 NH7     -0.077000
     35 C45         1.2150   -5.6530    3.7910 c3        1 NH7     -0.150000
     36 C46         2.6480   -5.5600    4.2650 c3        1 NH7     -0.059000
     37 O47         3.4530   -5.5900    3.2960 os        1 NH7     -0.276000
     38 C48         3.3740   -6.3100    2.2580 c3        1 NH7     -0.059000
     39 C49         1.9490   -6.4080    1.7660 c3        1 NH7     -0.150000
     40 H2         -4.4920    1.7220   -5.5160 DU        1 NH7      0.189000
     41 H11         0.3110   -0.0240   -2.9510 DU        1 NH7      0.189000
     42 H13         1.0180   -2.1950   -1.2120 ha        1 NH7      0.161000
     43 H15         0.3920   -1.3700    2.7510 ha        1 NH7      0.154000
     44 H22         1.6420    3.7110   -2.9350 ha        1 NH7      0.135000
     45 H32        -2.4970    0.0910    2.5870 ha        1 NH7      0.134500
     46 H33        -3.1820    1.0260    4.6530 ha        1 NH7      0.134500
     47 H34        -1.6220    2.1850    6.0080 ha        1 NH7      0.134500
     48 H35         0.6200    2.4030    5.2850 ha        1 NH7      0.134500
     49 H4         -3.2290    2.8810   -1.8410 DU        1 NH7      0.189000
     50 H6         -1.3150    2.3740   -6.2260 ha        1 NH7      0.098667
     51 H6A        -1.0130    0.9510   -5.5460 ha        1 NH7      0.098667
     52 H6B        -2.2590    1.1220   -6.5360 ha        1 NH7      0.098667
     53 HO8         0.9840    1.8800   -3.8300 ho        1 NH7      0.214000
     54 H23         2.1070    6.0080   -2.6700 ha        1 NH7      0.150000
     55 H25        -1.8980    6.8010   -2.3650 ha        1 NH7      0.152000
     56 H26        -2.3570    4.4990   -2.6300 ha        1 NH7      0.159000
     57 H36         1.3070    1.4730    3.2240 ha        1 NH7      0.144000
     58 HN43        2.2330   -3.6930    2.6910 hn        1 NH7      0.201000
     59 H45         0.8970   -6.5710    3.9220 h1        1 NH7      0.114750
     60 H45A        0.6670   -5.0500    4.3280 h1        1 NH7      0.114750
     61 H46         2.7690   -4.7240    4.7570 h1        1 NH7      0.093750
     62 H46A        2.8350   -6.3080    4.8580 h1        1 NH7      0.093750
     63 H48         3.7050   -7.2090    2.4640 h1        1 NH7      0.093750
     64 H48A        3.9290   -5.9180    1.5540 h1        1 NH7      0.093750
     65 H49         1.9490   -6.3700    0.7890 h1        1 NH7      0.114750
     66 H49A        1.5780   -7.2650    2.0480 h1        1 NH7      0.114750
@<TRIPOS>BOND
     1    1   18 1   
     2    1   19 1   
     3    2    3 1   
     4    2   10 1   
     5    2   21 1   
     6    2   23 1   
     7    3    4 1   
     8    3   24 1   
     9    4    5 1   
    10    5    6 1   
    11    6   42 1   
    12    7    8 1   
    13    7   31 1   
    14    8   43 1   
    15    9   25 1   
    16   10   11 1   
    17   10   28 1   
    18   11   26 1   
    19   11   44 1   
    20   12   27 1   
    21   12   29 1   
    22   13   30 1   
    23   14   15 1   
    24   14   45 1   
    25   15   46 1   
    26   16   17 1   
    27   16   47 1   
    28   17   48 1   
    29   18   21 1   
    30   19   20 1   
    31   20   21 1   
    32   22   50 1   
    33   22   51 1   
    34   22   52 1   
    35   23   53 1   
    36   24   25 1   
    37   26   54 1   
    38   27   55 1   
    39   28   56 1   
    40   30   57 1   
    41   31   32 1   
    42   31   33 1   
    43   33   34 1   
    44   33   58 1   
    45   34   35 1   
    46   34   39 1   
    47   35   36 1   
    48   35   59 1   
    49   35   60 1   
    50   36   37 1   
    51   36   61 1   
    52   36   62 1   
    53   37   38 1   
    54   38   39 1   
    55   38   63 1   
    56   38   64 1   
    57   39   65 1   
    58   39   66 1   
@<TRIPOS>SUBSTRUCTURE
     1 NH7         1 TEMP              0 ****  ****    0 ROOT
