@<TRIPOS>MOLECULE
NH8
   53    44     1     0     0
SMALL
bcc


@<TRIPOS>ATOM
      1 C2          1.9390    4.1160    2.8860 c1        1 NH8     -0.091000
      2 C7         -0.1470    2.0920    0.6850 c3        1 NH8      0.282000
      3 C10         0.5280    0.6930    0.4060 c2        1 NH8     -0.045000
      4 C11         1.8300    0.4370   -0.0230 c1        1 NH8     -0.141000
      5 C12         1.9320   -0.9320   -0.3000 c1        1 NH8     -0.111000
      6 C13         3.0040   -1.7280   -0.7770 c1        1 NH8     -0.011000
      7 C14         2.8180   -3.1040   -0.9890 c1        1 NH8     -0.150000
      8 C15         1.5780   -3.6900   -0.7300 c1        1 NH8     -0.049000
      9 C16         0.5140   -2.9050   -0.2570 c1        1 NH8     -0.030000
     10 C21        -0.5820    2.6890   -0.5810 c2        1 NH8     -0.095000
     11 C22        -1.5100    3.7330   -0.5760 c2        1 NH8     -0.111000
     12 C24        -1.5530    3.7080   -2.9680 c1        1 NH8      0.001000
     13 C27        -2.1050    4.2310   -4.2800 c1        1 NH8     -0.103000
     14 C31        -0.7180   -3.6070   -0.0710 c1        1 NH8     -0.047000
     15 C32        -1.6150   -3.7180   -1.1190 c1        1 NH8     -0.111000
     16 C33        -2.7880   -4.4520   -0.9580 c1        1 NH8     -0.111000
     17 C34        -3.0590   -5.0760    0.2600 c1        1 NH8     -0.081000
     18 C35        -2.1650   -4.9670    1.3060 c1        1 NH8     -0.009000
     19 N1          0.8150    3.4060    2.6380 n2        1 NH8     -0.124000
     20 N3          2.6740    4.1570    1.7390 n2        1 NH8     -0.139000
     21 C4          2.0100    3.4790    0.7970 c1        1 NH8     -0.144000
     22 C5          0.8480    3.0080    1.3550 c2        1 NH8     -0.146000
     23 C6         -0.2290    3.1140    3.5950 c2        1 NH8     -0.074000
     24 O8         -1.2770    1.9130    1.5360 oh        1 NH8     -0.314000
     25 O9         -0.1710   -0.5090    0.3960 os        1 NH8     -0.113000
     26 C17         0.7000   -1.5140   -0.0420 c1        1 NH8      0.065000
     27 C23        -1.9910    4.2370   -1.7740 c2        1 NH8     -0.092000
     28 C25        -0.6240    2.6640   -2.9710 c1        1 NH8     -0.092000
     29 C26        -0.1440    2.1610   -1.7770 c1        1 NH8     -0.119000
     30 N28        -2.5130    4.6160   -5.2530 n1        1 NH8     -0.023000
     31 C36        -0.9880   -4.2300    1.1450 c1        1 NH8     -0.077000
     32 C37        -2.6100   -5.5590    2.6190 c1        1 NH8     -0.102000
     33 N38        -2.9560   -6.0200    3.6440 n1        1 NH8     -0.024000
     34 N41         3.9710   -3.6410   -1.5740 no        1 NH8      0.571000
     35 O42         4.3110   -4.9340   -1.3390 o         1 NH8     -0.354500
     36 O43         4.6400   -2.9650   -2.3230 o         1 NH8     -0.354500
     37 H2          2.1790    4.5260    3.7340 DU        1 NH8      0.191333
     38 H11         2.5690    1.0910   -0.0570 DU        1 NH8      0.191333
     39 H13         3.8920   -1.3100   -0.9640 ha        1 NH8      0.183000
     40 H15         1.4470   -4.6730   -0.8810 ha        1 NH8      0.181000
     41 H22        -1.8300    4.1200    0.3020 ha        1 NH8      0.157000
     42 H32        -1.4250   -3.2790   -1.9770 ha        1 NH8      0.146000
     43 H33        -3.4210   -4.5300   -1.6990 ha        1 NH8      0.146000
     44 H34        -3.8810   -5.5910    0.3720 ha        1 NH8      0.150000
     45 H4          2.3000    3.3430   -0.1230 DU        1 NH8      0.191333
     46 H6         -0.1620    2.1770    3.8770 ha        1 NH8      0.100667
     47 H6A        -1.1070    3.2690    3.1810 ha        1 NH8      0.100667
     48 H6B        -0.1280    3.7010    4.3790 ha        1 NH8      0.100667
     49 HO8        -1.9940    1.7130    1.0400 ho        1 NH8      0.224000
     50 H23        -2.6520    4.9800   -1.7710 ha        1 NH8      0.152000
     51 H25        -0.3080    2.2830   -3.8340 ha        1 NH8      0.152000
     52 H26         0.5090    1.4260   -1.7810 ha        1 NH8      0.148000
     53 H36        -0.3590   -4.1530    1.8810 ha        1 NH8      0.152000
@<TRIPOS>BOND
     1    1   19 1   
     2    1   20 1   
     3    2    3 1   
     4    2   10 1   
     5    2   22 1   
     6    2   24 1   
     7    3    4 1   
     8    3   25 1   
     9    4    5 1   
    10    5    6 1   
    11    6   39 1   
    12    7    8 1   
    13    7   34 1   
    14    8   40 1   
    15    9   26 1   
    16   10   11 1   
    17   10   29 1   
    18   11   27 1   
    19   11   41 1   
    20   12   27 1   
    21   12   28 1   
    22   13   30 1   
    23   14   31 1   
    24   15   16 1   
    25   15   42 1   
    26   16   43 1   
    27   17   18 1   
    28   17   44 1   
    29   18   32 1   
    30   19   22 1   
    31   20   21 1   
    32   21   22 1   
    33   23   46 1   
    34   23   47 1   
    35   23   48 1   
    36   24   49 1   
    37   25   26 1   
    38   27   50 1   
    39   28   51 1   
    40   29   52 1   
    41   31   53 1   
    42   32   33 1   
    43   34   35 1   
    44   34   36 1   
@<TRIPOS>SUBSTRUCTURE
     1 NH8         1 TEMP              0 ****  ****    0 ROOT
