@<TRIPOS>MOLECULE
NH8
   53    57     1     0     0
SMALL
bcc


@<TRIPOS>ATOM
      1 C2          0.0000    0.0000    0.0000 cc        1 NH8      0.227400
      2 C7          3.1760    0.0000    1.8080 c3        1 NH8      0.434600
      3 C10         3.8470   -1.2920    1.4160 cc        1 NH8     -0.049100
      4 C11         5.1560   -1.4320    1.1680 cd        1 NH8     -0.148200
      5 C12         5.3580   -2.8460    0.8270 ca        1 NH8     -0.100800
      6 C13         6.4680   -3.6140    0.4760 ca        1 NH8      0.046000
      7 C14         6.3170   -4.9580    0.2090 ca        1 NH8     -0.529200
      8 C15         5.0680   -5.5520    0.2870 ca        1 NH8     -0.007000
      9 C16         3.9500   -4.8020    0.6350 cp        1 NH8     -0.009000
     10 C21         3.1800    0.1320    3.3090 ca        1 NH8     -0.146300
     11 C22         2.7430   -0.9190    4.0940 ca        1 NH8     -0.070500
     12 C24         3.1880    0.3760    6.0680 ca        1 NH8      0.012000
     13 C27         3.1910    0.5020    7.4950 cg        1 NH8      0.221800
     14 C31         2.6170   -5.4470    0.7150 cp        1 NH8     -0.055000
     15 C32         1.8200   -5.2650    1.8460 ca        1 NH8     -0.078000
     16 C33         0.5770   -5.8640    1.9230 ca        1 NH8     -0.106000
     17 C34         0.1160   -6.6470    0.8840 ca        1 NH8     -0.041000
     18 C35         0.9040   -6.8360   -0.2540 ca        1 NH8      0.032000
     19 N1          1.3500    0.0000    0.0000 na        1 NH8      0.300100
     20 N3         -0.4190    0.0010    1.2360 nd        1 NH8     -0.629000
     21 C4          0.6390    0.0010    2.0610 cd        1 NH8      0.346200
     22 C5          1.7550    0.0000    1.3070 cc        1 NH8     -0.444900
     23 C6          2.2200   -0.0020   -1.1790 c3        1 NH8     -0.031400
     24 O8          3.8850    1.0990    1.2310 oh        1 NH8     -0.576800
     25 O9          3.2190   -2.4720    1.2690 os        1 NH8     -0.109200
     26 C17         4.0880   -3.4370    0.9090 ca        1 NH8      0.123100
     27 C23         2.7430   -0.8050    5.4690 ca        1 NH8     -0.065500
     28 C25         3.6340    1.4310    5.2700 ca        1 NH8     -0.065500
     29 C26         3.6280    1.3030    3.8970 ca        1 NH8     -0.070500
     30 N28         3.2040    0.6180    8.6240 n1        1 NH8     -0.363800
     31 C36         2.1560   -6.2290   -0.3390 ca        1 NH8     -0.053000
     32 C37         0.4250   -7.6480   -1.3320 cg        1 NH8      0.270800
     33 N38        -0.1720   -8.2040   -2.4430 n1        1 NH8     -0.423800
     34 N41         7.4950   -5.7720   -0.1640 no        1 NH8      1.051200
     35 O42         8.5950   -5.2530   -0.2340 o         1 NH8     -0.441500
     36 O43         7.3660   -6.9590   -0.4010 o         1 NH8     -0.441500
     37 H2         -0.6510   -0.3000   -0.8120 h5        1 NH8      0.028100
     38 H11         5.6370   -0.5350    1.5400 ha        1 NH8      0.141000
     39 H13         7.5270   -3.4650    0.3010 ha        1 NH8      0.149000
     40 H15         5.3100   -6.5470   -0.0660 ha        1 NH8      0.159000
     41 H22         2.6170   -1.8770    3.6030 ha        1 NH8      0.126500
     42 H32         2.1310   -4.6370    2.6710 ha        1 NH8      0.112000
     43 H33         0.0510   -5.4020    2.7490 ha        1 NH8      0.122000
     44 H34        -0.7670   -7.2480    1.0670 ha        1 NH8      0.119000
     45 H4          0.5460    0.3310    3.0890 h4        1 NH8      0.013100
     46 H6          2.5080   -1.0080   -0.8980 h1        1 NH8      0.042700
     47 H6A         3.1350    0.4750   -0.8490 h1        1 NH8      0.042700
     48 H6B         1.6570    0.2420   -2.0720 h1        1 NH8      0.042700
     49 HO8         4.8060    0.9900    1.4020 ho        1 NH8      0.408000
     50 H23         2.3340   -1.3980    6.2780 ha        1 NH8      0.121000
     51 H25         4.2160    2.1630    5.8170 ha        1 NH8      0.121000
     52 H26         3.8950    2.0080    3.1190 ha        1 NH8      0.126500
     53 H36         2.7880   -6.2700   -1.2170 ha        1 NH8      0.121000
@<TRIPOS>BOND
     1    1   19 1   
     2    1   20 2   
     3    1   37 1   
     4    2    3 1   
     5    2   10 1   
     6    2   22 1   
     7    2   24 1   
     8    3    4 2   
     9    3   25 1   
    10    4    5 1   
    11    4   38 1   
    12    5    6 ar  
    13    5   26 ar  
    14    6    7 ar  
    15    6   39 1   
    16    7    8 ar  
    17    7   34 1   
    18    8    9 ar  
    19    8   40 1   
    20    9   14 1   
    21    9   26 ar  
    22   10   11 ar  
    23   10   29 ar  
    24   11   27 ar  
    25   11   41 1   
    26   12   13 1   
    27   12   27 ar  
    28   12   28 ar  
    29   13   30 3   
    30   14   15 ar  
    31   14   31 ar  
    32   15   16 ar  
    33   15   42 1   
    34   16   17 ar  
    35   16   43 1   
    36   17   18 ar  
    37   17   44 1   
    38   18   31 ar  
    39   18   32 1   
    40   19   22 1   
    41   19   23 1   
    42   20   21 1   
    43   21   22 2   
    44   21   45 1   
    45   23   46 1   
    46   23   47 1   
    47   23   48 1   
    48   24   49 1   
    49   25   26 1   
    50   27   50 1   
    51   28   29 ar  
    52   28   51 1   
    53   29   52 1   
    54   31   53 1   
    55   32   33 3   
    56   34   35 1   
    57   34   36 1   
@<TRIPOS>SUBSTRUCTURE
     1 NH8         1 TEMP              0 ****  ****    0 ROOT
