@<TRIPOS>MOLECULE
NH8
   53    57     1     0     0
SMALL
bcc


@<TRIPOS>ATOM
      1 C2          0.1360    0.0380   -0.1810 cc        1 NH8      0.401400
      2 C7          3.2290   -0.0770    1.8340 c3        1 NH8      0.369600
      3 C10         3.9980   -1.2980    1.4000 cc        1 NH8     -0.000100
      4 C11         5.3130   -1.4740    1.0400 cd        1 NH8     -0.150200
      5 C12         5.4720   -2.8770    0.7060 ca        1 NH8     -0.118800
      6 C13         6.5410   -3.6560    0.2850 ca        1 NH8     -0.014000
      7 C14         6.2900   -5.0190    0.0600 ca        1 NH8     -0.193200
      8 C15         5.0140   -5.5950    0.2390 ca        1 NH8     -0.053000
      9 C16         3.9210   -4.8260    0.6540 cp        1 NH8     -0.023000
     10 C21         3.1750    0.0030    3.3480 ca        1 NH8     -0.104300
     11 C22         3.0520   -1.1520    4.1260 ca        1 NH8     -0.114500
     12 C24         3.0760    0.1910    6.1380 ca        1 NH8     -0.001000
     13 C27         3.0330    0.2860    7.5550 cg        1 NH8      0.225800
     14 C31         2.5990   -5.4200    0.8180 cp        1 NH8     -0.050000
     15 C32         1.7330   -4.9680    1.8250 ca        1 NH8     -0.081000
     16 C33         0.4730   -5.5410    1.9820 ca        1 NH8     -0.130000
     17 C34         0.0560   -6.5700    1.1400 ca        1 NH8     -0.078000
     18 C35         0.9130   -7.0240    0.1280 ca        1 NH8     -0.015000
     19 N1          1.5250    0.1640   -0.0780 na        1 NH8     -0.171900
     20 N3         -0.4270   -0.2870    1.0060 nd        1 NH8     -0.668000
     21 C4          0.6200   -0.3620    1.9140 cd        1 NH8      0.331200
     22 C5          1.8450   -0.0830    1.2660 cc        1 NH8     -0.235900
     23 C6          2.4210    0.5830   -1.1050 c3        1 NH8      0.024600
     24 O8          3.9010    1.0660    1.2930 oh        1 NH8     -0.583800
     25 O9          3.2730   -2.5080    1.3210 os        1 NH8     -0.172200
     26 C17         4.1830   -3.4710    0.8910 ca        1 NH8      0.101100
     27 C23         3.0050   -1.0630    5.5160 ca        1 NH8     -0.093000
     28 C25         3.1860    1.3530    5.3600 ca        1 NH8     -0.093000
     29 C26         3.2330    1.2550    3.9710 ca        1 NH8     -0.114500
     30 N28         2.9980    0.3630    8.7160 n1        1 NH8     -0.346800
     31 C36         2.1810   -6.4520   -0.0350 ca        1 NH8     -0.077000
     32 C37         0.4940   -8.0680   -0.7420 cg        1 NH8      0.228800
     33 N38         0.1490   -8.9210   -1.4530 n1        1 NH8     -0.351800
     34 N41         7.4110   -5.8900   -0.3860 no        1 NH8      0.316200
     35 O42         8.5000   -5.4030   -0.5290 o         1 NH8     -0.205000
     36 O43         7.1970   -7.0540   -0.5920 o         1 NH8     -0.205000
     37 H2         -0.4000    0.1810   -1.1260 h5        1 NH8      0.065100
     38 H11         6.0990   -0.7240    0.9990 ha        1 NH8      0.175000
     39 H13         7.5460   -3.2260    0.1360 ha        1 NH8      0.181000
     40 H15         4.8780   -6.6760    0.0520 ha        1 NH8      0.181000
     41 H22         2.9860   -2.1390    3.6400 ha        1 NH8      0.154000
     42 H32         2.0490   -4.1460    2.4880 ha        1 NH8      0.146000
     43 H33        -0.2000   -5.1760    2.7730 ha        1 NH8      0.148000
     44 H34        -0.9400   -7.0210    1.2640 ha        1 NH8      0.151000
     45 H4          0.4590   -0.6070    2.9630 h4        1 NH8      0.045100
     46 H6          1.9800    0.3460   -2.1080 h1        1 NH8      0.059700
     47 H6A         3.4030    0.0500   -0.9840 h1        1 NH8      0.059700
     48 H6B         2.6090    1.6880   -1.0270 h1        1 NH8      0.059700
     49 HO8         4.7440    1.1480    1.7600 ho        1 NH8      0.414000
     50 H23         2.9110   -1.9760    6.1230 ha        1 NH8      0.152500
     51 H25         3.2310    2.3400    5.8450 ha        1 NH8      0.152500
     52 H26         3.3010    2.1700    3.3600 ha        1 NH8      0.154000
     53 H36         2.8420   -6.8080   -0.8400 ha        1 NH8      0.150000
@<TRIPOS>BOND
     1    1   19 1   
     2    1   20 2   
     3    1   37 1   
     4    2    3 1   
     5    2   10 1   
     6    2   22 1   
     7    2   24 1   
     8    3    4 2   
     9    3   25 1   
    10    4    5 1   
    11    4   38 1   
    12    5    6 ar  
    13    5   26 ar  
    14    6    7 ar  
    15    6   39 1   
    16    7    8 ar  
    17    7   34 1   
    18    8    9 ar  
    19    8   40 1   
    20    9   14 1   
    21    9   26 ar  
    22   10   11 ar  
    23   10   29 ar  
    24   11   27 ar  
    25   11   41 1   
    26   12   13 1   
    27   12   27 ar  
    28   12   28 ar  
    29   13   30 3   
    30   14   15 ar  
    31   14   31 ar  
    32   15   16 ar  
    33   15   42 1   
    34   16   17 ar  
    35   16   43 1   
    36   17   18 ar  
    37   17   44 1   
    38   18   31 ar  
    39   18   32 1   
    40   19   22 1   
    41   19   23 1   
    42   20   21 1   
    43   21   22 2   
    44   21   45 1   
    45   23   46 1   
    46   23   47 1   
    47   23   48 1   
    48   24   49 1   
    49   25   26 1   
    50   27   50 1   
    51   28   29 ar  
    52   28   51 1   
    53   29   52 1   
    54   31   53 1   
    55   32   33 3   
    56   34   35 1   
    57   34   36 1   
@<TRIPOS>SUBSTRUCTURE
     1 NH8         1 TEMP              0 ****  ****    0 ROOT
