@<TRIPOS>MOLECULE
NH8
   53    57     1     0     0
SMALL
bcc


@<TRIPOS>ATOM
      1 C2         -1.5760    3.2980    2.6240 cc        1 NH8      0.401400
      2 C7         -2.2880   -0.0850    1.3220 c3        1 NH8      0.369600
      3 C10        -0.9620   -0.7530    1.0710 cc        1 NH8     -0.000100
      4 C11        -0.4750   -1.9880    1.4290 cd        1 NH8     -0.150200
      5 C12         0.8800   -2.0700    0.9140 ca        1 NH8     -0.118800
      6 C13         1.8690   -3.0430    0.9440 ca        1 NH8     -0.014000
      7 C14         3.0850   -2.7380    0.3140 ca        1 NH8     -0.193200
      8 C15         3.3210   -1.5020   -0.3240 ca        1 NH8     -0.053000
      9 C16         2.3410   -0.5030   -0.3580 cp        1 NH8     -0.023000
     10 C21        -3.2130   -0.2830    0.1370 ca        1 NH8     -0.104300
     11 C22        -2.7190   -0.2740   -1.1720 ca        1 NH8     -0.114500
     12 C24        -4.9500   -0.6500   -2.0260 ca        1 NH8     -0.001000
     13 C27        -5.8320   -0.8440   -3.1240 cg        1 NH8      0.225800
     14 C31         2.5940    0.7820   -1.0000 cp        1 NH8     -0.050000
     15 C32         1.5640    1.4640   -1.6640 ca        1 NH8     -0.081000
     16 C33         1.8110    2.6880   -2.2810 ca        1 NH8     -0.130000
     17 C34         3.0840    3.2540   -2.2420 ca        1 NH8     -0.078000
     18 C35         4.1180    2.5820   -1.5740 ca        1 NH8     -0.015000
     19 N1         -1.5890    1.9090    2.7890 na        1 NH8     -0.171900
     20 N3         -2.0400    3.6610    1.4050 nd        1 NH8     -0.668000
     21 C4         -2.3780    2.4800    0.7610 cd        1 NH8      0.331200
     22 C5         -2.1110    1.3740    1.6010 cc        1 NH8     -0.235900
     23 C6         -1.2580    1.1900    3.9750 c3        1 NH8      0.024600
     24 O8         -2.8480   -0.6740    2.5010 oh        1 NH8     -0.583800
     25 O9         -0.0030   -0.0080    0.3490 os        1 NH8     -0.172200
     26 C17         1.1240   -0.8200    0.2600 ca        1 NH8      0.101100
     27 C23        -3.5800   -0.4590   -2.2510 ca        1 NH8     -0.093000
     28 C25        -5.4520   -0.6470   -0.7170 ca        1 NH8     -0.093000
     29 C26        -4.5840   -0.4620    0.3570 ca        1 NH8     -0.114500
     30 N28        -6.5530   -1.0030   -4.0240 n1        1 NH8     -0.346800
     31 C36         3.8750    1.3500   -0.9540 ca        1 NH8     -0.077000
     32 C37         5.4180    3.1540   -1.5220 cg        1 NH8      0.228800
     33 N38         6.4820    3.6240   -1.4800 n1        1 NH8     -0.351800
     34 N41         4.1690   -3.7570    0.3180 no        1 NH8      0.316200
     35 O42         3.9670   -4.8150    0.8510 o         1 NH8     -0.205000
     36 O43         5.2160   -3.4960   -0.2100 o         1 NH8     -0.205000
     37 H2         -1.2180    3.9810    3.4020 h5        1 NH8      0.065100
     38 H11        -0.9830   -2.7680    1.9920 ha        1 NH8      0.175000
     39 H13         1.7080   -4.0150    1.4400 ha        1 NH8      0.181000
     40 H15         4.2970   -1.3210   -0.8100 ha        1 NH8      0.181000
     41 H22        -1.6430   -0.1150   -1.3530 ha        1 NH8      0.154000
     42 H32         0.5510    1.0310   -1.6900 ha        1 NH8      0.146000
     43 H33         0.9940    3.2160   -2.7970 ha        1 NH8      0.148000
     44 H34         3.2780    4.2220   -2.7280 ha        1 NH8      0.151000
     45 H4         -2.7870    2.4680   -0.2490 h4        1 NH8      0.045100
     46 H6         -2.1870    0.9760    4.5710 h1        1 NH8      0.059700
     47 H6A        -0.7850    0.2090    3.6970 h1        1 NH8      0.059700
     48 H6B        -0.5440    1.7940    4.5950 h1        1 NH8      0.059700
     49 HO8        -3.0880   -1.5830    2.2780 ho        1 NH8      0.414000
     50 H23        -3.1850   -0.4540   -3.2780 ha        1 NH8      0.152500
     51 H25        -6.5290   -0.7860   -0.5370 ha        1 NH8      0.152500
     52 H26        -4.9810   -0.4410    1.3860 ha        1 NH8      0.154000
     53 H36         4.6920    0.8360   -0.4220 ha        1 NH8      0.150000
@<TRIPOS>BOND
     1    1   19 1   
     2    1   20 2   
     3    1   37 1   
     4    2    3 1   
     5    2   10 1   
     6    2   22 1   
     7    2   24 1   
     8    3    4 2   
     9    3   25 1   
    10    4    5 1   
    11    4   38 1   
    12    5    6 ar  
    13    5   26 ar  
    14    6    7 ar  
    15    6   39 1   
    16    7    8 ar  
    17    7   34 1   
    18    8    9 ar  
    19    8   40 1   
    20    9   14 1   
    21    9   26 ar  
    22   10   11 ar  
    23   10   29 ar  
    24   11   27 ar  
    25   11   41 1   
    26   12   13 1   
    27   12   27 ar  
    28   12   28 ar  
    29   13   30 3   
    30   14   15 ar  
    31   14   31 ar  
    32   15   16 ar  
    33   15   42 1   
    34   16   17 ar  
    35   16   43 1   
    36   17   18 ar  
    37   17   44 1   
    38   18   31 ar  
    39   18   32 1   
    40   19   22 1   
    41   19   23 1   
    42   20   21 1   
    43   21   22 2   
    44   21   45 1   
    45   23   46 1   
    46   23   47 1   
    47   23   48 1   
    48   24   49 1   
    49   25   26 1   
    50   27   50 1   
    51   28   29 ar  
    52   28   51 1   
    53   29   52 1   
    54   31   53 1   
    55   32   33 3   
    56   34   35 1   
    57   34   36 1   
@<TRIPOS>SUBSTRUCTURE
     1 NH8         1 TEMP              0 ****  ****    0 ROOT
