@<TRIPOS>MOLECULE
NHB
   41    33     1     0     0
SMALL
bcc


@<TRIPOS>ATOM
      1 C7          0.7410   -3.4350   -4.4120 c1        1 NHB     -0.178000
      2 C8          0.2070   -3.7380   -5.6370 c1        1 NHB     -0.128500
      3 C9          0.3210   -2.8620   -6.6650 c1        1 NHB     -0.128500
      4 C10         0.9810   -1.6520   -6.4820 c1        1 NHB     -0.063000
      5 N11         1.5220   -1.3420   -5.2480 n1        1 NHB     -0.123000
      6 C6          1.4040   -2.2280   -4.2160 c1        1 NHB      0.042000
      7 C4          1.8380   -1.8720   -2.9220 c1        1 NHB     -0.778000
      8 S5          0.9420   -1.3280   -1.7730 ss        1 NHB      0.817000
      9 C3          3.1910   -1.9990   -2.4110 c1        1 NHB     -0.089000
     10 C2          3.1980   -1.5330   -0.8990 c1        1 NHB     -0.089000
     11 C1          1.8430   -1.1350   -0.5330 c1        1 NHB     -0.778000
     12 S12         1.2970   -0.6960    1.0910 ss        1 NHB      2.887000
     13 O13         2.3300   -0.9250    2.0660 o         1 NHB     -0.927500
     14 O14         0.2790   -1.5750    1.5540 o         1 NHB     -0.927500
     15 N15         0.7750    0.9030    1.1170 n2        1 NHB     -0.764000
     16 C16         1.4260    1.8820    0.2690 c3        1 NHB     -0.086000
     17 C17        -0.1380    1.3440    2.1510 c2        1 NHB      0.098000
     18 C18        -1.2460    0.5970    2.4500 c2        1 NHB     -0.181000
     19 C19        -2.1410    1.0460    3.3740 c1        1 NHB     -0.073000
     20 C22         0.0760    2.5630    2.7910 c1        1 NHB     -0.170000
     21 C21        -0.8280    3.0150    3.7250 c1        1 NHB     -0.059000
     22 C20        -1.9300    2.2720    4.0220 c1        1 NHB     -0.155000
     23 C23        -3.0450    2.8590    4.9670 c2        1 NHB      0.279000
     24 O25        -2.8660    3.9280    5.5350 o         1 NHB     -0.323000
     25 N24        -4.3060    2.1440    5.1380 n         1 NHB     -0.189000
     26 O26        -5.3320    2.7250    5.8060 oh        1 NHB     -0.242000
     27 H7          0.6520   -4.1010   -3.6390 ha        1 NHB      0.143000
     28 H8         -0.2500   -4.5730   -5.7680 ha        1 NHB      0.147000
     29 H9         -0.0520   -3.0780   -7.5110 ha        1 NHB      0.147000
     30 H10         1.0650   -1.0040   -7.2480 ha        1 NHB      0.165000
     31 H3          3.9800   -2.3240   -2.9230 DU        1 NHB      0.179500
     32 H2          3.9650   -1.5160   -0.3210 DU        1 NHB      0.179500
     33 H161        1.6920    2.6080    0.7850 h1        1 NHB      0.094333
     34 H162        2.1860    1.4900   -0.1400 h1        1 NHB      0.094333
     35 H163        0.7990    2.1860   -0.4270 h1        1 NHB      0.094333
     36 H18        -1.3920   -0.2360    2.0120 ha        1 NHB      0.181000
     37 H19        -2.9220    0.5180    3.5840 ha        1 NHB      0.148000
     38 H22         0.8270    3.0680    2.5870 ha        1 NHB      0.145000
     39 H21        -0.6850    3.8320    4.1540 ha        1 NHB      0.158000
     40 H24        -4.4230    1.2930    4.7430 hn        1 NHB      0.213000
     41 H26        -5.9850    2.8780    5.2550 ho        1 NHB      0.235000
@<TRIPOS>BOND
     1    1    6 1   
     2    1   27 1   
     3    2    3 1   
     4    2   28 1   
     5    3   29 1   
     6    4    5 1   
     7    4   30 1   
     8    7    8 1   
     9    7    9 1   
    10    8   11 1   
    11    9   10 1   
    12   10   11 1   
    13   12   13 1   
    14   12   14 1   
    15   15   16 1   
    16   15   17 1   
    17   16   33 1   
    18   16   34 1   
    19   16   35 1   
    20   17   18 1   
    21   17   20 1   
    22   18   19 1   
    23   18   36 1   
    24   19   37 1   
    25   20   38 1   
    26   21   22 1   
    27   21   39 1   
    28   22   23 1   
    29   23   24 1   
    30   23   25 1   
    31   25   26 1   
    32   25   40 1   
    33   26   41 1   
@<TRIPOS>SUBSTRUCTURE
     1 NHB         1 TEMP              0 ****  ****    0 ROOT
