@<TRIPOS>MOLECULE
NHB
   41    43     1     0     0
SMALL
bcc


@<TRIPOS>ATOM
      1 C7         -0.3570   -1.1010   -5.0930 ca        1 NHB     -0.244300
      2 C8         -1.0020   -1.6730   -6.1890 ca        1 NHB     -0.085000
      3 C9         -2.3750   -1.4860   -6.3400 ca        1 NHB     -0.238300
      4 C10        -3.0510   -0.7210   -5.3700 ca        1 NHB      0.403200
      5 N11        -2.4560   -0.1600   -4.3060 nb        1 NHB     -0.647000
      6 C6         -1.1150   -0.3480   -4.1640 ca        1 NHB      0.477800
      7 C4         -0.4350    0.2430   -3.0200 cc        1 NHB     -0.165600
      8 S5          1.0760   -0.2120   -2.5220 ss        1 NHB      0.257200
      9 C3         -0.9490    1.2560   -2.2040 cd        1 NHB     -0.140000
     10 C2         -0.0320    1.6010   -1.1910 cd        1 NHB     -0.028000
     11 C1          1.1510    0.8450   -1.2550 cc        1 NHB     -0.502600
     12 S12         2.3810    1.1260   -0.1800 sy        1 NHB      1.549200
     13 O13         2.1930    2.3860    0.4170 o         1 NHB     -0.648800
     14 O14         3.6190    0.9300   -0.8280 o         1 NHB     -0.648800
     15 N15         2.1930   -0.0770    0.9450 nh        1 NHB     -0.670900
     16 C16         3.1120   -1.1850    0.9540 c3        1 NHB      0.191100
     17 C17         1.1100   -0.1630    1.8430 ca        1 NHB      0.188600
     18 C18         0.5240   -1.4110    2.1530 ca        1 NHB     -0.178000
     19 C19        -0.5400   -1.4910    3.0430 ca        1 NHB     -0.062500
     20 C22         0.5900    0.9960    2.4670 ca        1 NHB     -0.178000
     21 C21        -0.4750    0.9010    3.3550 ca        1 NHB     -0.062500
     22 C20        -1.0440   -0.3390    3.6580 ca        1 NHB     -0.175600
     23 C23        -2.1790   -0.4930    4.5990 c         1 NHB      0.605700
     24 O25        -2.9980   -1.4250    4.5130 o         1 NHB     -0.562100
     25 N24        -2.3860    0.5420    5.5690 n         1 NHB     -0.347400
     26 O26        -3.1510    0.1810    6.6030 oh        1 NHB     -0.438100
     27 H7          0.7270   -1.2250   -4.9540 ha        1 NHB      0.143000
     28 H8         -0.4320   -2.2610   -6.9240 ha        1 NHB      0.144000
     29 H9         -2.9220   -1.9190   -7.1870 ha        1 NHB      0.149000
     30 H10        -4.1400   -0.5440   -5.4480 h4        1 NHB      0.029100
     31 H3         -1.9310    1.7200   -2.3310 ha        1 NHB      0.182000
     32 H2         -0.2100    2.3840   -0.4430 ha        1 NHB      0.179000
     33 H161        2.7210   -2.0390    0.3370 h1        1 NHB      0.054367
     34 H162        4.1030   -0.8570    0.5340 h1        1 NHB      0.054367
     35 H163        3.2740   -1.5520    2.0030 h1        1 NHB      0.054367
     36 H18         0.9010   -2.3360    1.6890 ha        1 NHB      0.160500
     37 H19        -1.0030   -2.4670    3.2650 ha        1 NHB      0.152500
     38 H22         1.0230    1.9920    2.2600 ha        1 NHB      0.160500
     39 H21        -0.8660    1.8280    3.8060 ha        1 NHB      0.152500
     40 H24        -1.5120    0.8950    5.9470 hn        1 NHB      0.298500
     41 H26        -4.0570    0.0910    6.2460 ho        1 NHB      0.436000
@<TRIPOS>BOND
     1    1    2 ar  
     2    1    6 ar  
     3    1   27 1   
     4    2    3 ar  
     5    2   28 1   
     6    3    4 ar  
     7    3   29 1   
     8    4    5 ar  
     9    4   30 1   
    10    5    6 ar  
    11    6    7 1   
    12    7    8 1   
    13    7    9 2   
    14    8   11 1   
    15    9   10 1   
    16    9   31 1   
    17   10   11 2   
    18   10   32 1   
    19   11   12 1   
    20   12   13 2   
    21   12   14 2   
    22   12   15 1   
    23   15   16 1   
    24   15   17 1   
    25   16   33 1   
    26   16   34 1   
    27   16   35 1   
    28   17   18 ar  
    29   17   20 ar  
    30   18   19 ar  
    31   18   36 1   
    32   19   22 ar  
    33   19   37 1   
    34   20   21 ar  
    35   20   38 1   
    36   21   22 ar  
    37   21   39 1   
    38   22   23 1   
    39   23   24 2   
    40   23   25 1   
    41   25   26 1   
    42   25   40 1   
    43   26   41 1   
@<TRIPOS>SUBSTRUCTURE
     1 NHB         1 TEMP              0 ****  ****    0 ROOT
