@<TRIPOS>MOLECULE
NHB
   43    44     1     0     0
SMALL
bcc


@<TRIPOS>ATOM
      1 C7       1427.8060 -435.9120 -424.9910 ca        1 NHB     -0.199300
      2 C8       1428.3940 -437.1800 -425.0070 ca        1 NHB     -0.088000
      3 C9       1427.6720 -438.2660 -424.5190 ca        1 NHB     -0.174300
      4 C10      1426.3660 -438.0360 -424.0240 ca        1 NHB      0.409200
      5 N11      1425.7810 -436.8340 -423.9980 nb        1 NHB     -0.621000
      6 C6       1426.4960 -435.7730 -424.4790 ca        1 NHB      0.395800
      7 C4       1425.8770 -434.4600 -424.4580 cc        1 NHB     -0.054600
      8 S5       1426.5880 -433.0980 -424.9830 ss        1 NHB      0.402200
      9 C3       1424.5580 -434.2050 -423.9690 cd        1 NHB     -0.131000
     10 C2       1424.2360 -432.8720 -424.0710 cd        1 NHB     -0.002000
     11 C1       1425.3040 -432.0650 -424.6450 cc        1 NHB     -0.800600
     12 S12      1425.1180 -430.5870 -424.8270 s4        1 NHB      1.712300
     13 O13      1423.9510 -430.0170 -424.4550 o         1 NHB     -0.409400
     14 O14      1426.1280 -429.8630 -425.3620 o         1 NHB     -0.409400
     15 N15     -1251.2410  383.6100  371.4210 nh        1 NHB     -0.716600
     16 C16     -1252.5570  383.5900  370.8530 c3        1 NHB      0.179100
     17 C17     -1250.6230  382.5100  371.9190 ca        1 NHB      0.288600
     18 C18     -1251.2430  381.2200  371.9190 ca        1 NHB     -0.227000
     19 C19     -1250.5890  380.1260  372.4310 ca        1 NHB      0.008000
     20 C22     -1249.3000  382.6100  372.4730 ca        1 NHB     -0.227000
     21 C21     -1248.6610  381.5070  372.9810 ca        1 NHB      0.008000
     22 C20     -1249.2820  380.2360  372.9760 ca        1 NHB     -0.308600
     23 C23     -1248.7010  379.0310  373.4800 c         1 NHB      0.579700
     24 O25     -1249.1280  377.8830  373.5340 o         1 NHB     -0.467100
     25 N24     -1247.2680  379.1610  374.0740 n4        1 NHB     -0.465300
     26 O26     -1246.7310  378.0160  374.5450 oh        1 NHB     -0.370300
     27 H7       1428.3590 -435.0400 -425.3720 ha        1 NHB      0.143000
     28 H8       1429.4150 -437.3130 -425.4020 ha        1 NHB      0.170000
     29 H9       1428.0950 -439.2820 -424.5120 ha        1 NHB      0.176000
     30 H10      1425.7560 -438.8730 -423.6260 h4        1 NHB      0.055100
     31 H3       1423.8990 -434.9870 -423.5650 ha        1 NHB      0.224000
     32 H2       1423.2770 -432.4310 -423.7610 ha        1 NHB      0.203000
     33 H161    -1252.8260  384.6270  370.5200 h1        1 NHB      0.068033
     34 H162    -1252.5930  382.9000  369.9660 h1        1 NHB      0.068033
     35 H163    -1253.3090  383.2430  371.6140 h1        1 NHB      0.068033
     36 H18     -1252.2570  381.0990  371.5040 ha        1 NHB      0.166000
     37 H19     -1251.0820  379.1360  372.4240 ha        1 NHB      0.145500
     38 H22     -1248.7920  383.5880  372.4900 ha        1 NHB      0.166000
     39 H21     -1247.6480  381.6480  373.3910 ha        1 NHB      0.145500
     40 H24     -1246.6280  379.5180  373.3410 hn        1 NHB      0.471800
     41 H26     -1247.3740  377.2710  374.4220 ho        1 NHB      0.490000
     42 H151    -1250.7580  384.4820  371.4490 hn        1 NHB      0.457800
     43 H242    -1247.2870  379.8350  374.8610 hn        1 NHB      0.471800
@<TRIPOS>BOND
     1    1    2 ar  
     2    1    6 ar  
     3    1   27 1   
     4    2    3 ar  
     5    2   28 1   
     6    3    4 ar  
     7    3   29 1   
     8    4    5 ar  
     9    4   30 1   
    10    5    6 ar  
    11    6    7 1   
    12    7    8 1   
    13    7    9 2   
    14    8   11 1   
    15    9   10 1   
    16    9   31 1   
    17   10   11 2   
    18   10   32 1   
    19   11   12 1   
    20   12   13 1   
    21   12   14 1   
    22   15   16 1   
    23   15   17 1   
    24   15   42 1   
    25   16   33 1   
    26   16   34 1   
    27   16   35 1   
    28   17   18 ar  
    29   17   20 ar  
    30   18   19 ar  
    31   18   36 1   
    32   19   22 ar  
    33   19   37 1   
    34   20   21 ar  
    35   20   38 1   
    36   21   22 ar  
    37   21   39 1   
    38   22   23 1   
    39   23   24 2   
    40   23   25 1   
    41   25   26 1   
    42   25   40 1   
    43   25   43 1   
    44   26   41 1   
@<TRIPOS>SUBSTRUCTURE
     1 NHB         1 TEMP              0 ****  ****    0 ROOT
