@<TRIPOS>MOLECULE
NHB
   42    44     1     0     0
SMALL
bcc


@<TRIPOS>ATOM
      1 C7         -0.2590   -0.0900   -0.1420 ca        1 NHB     -0.231300
      2 C8          1.1240    0.0780   -0.2460 ca        1 NHB     -0.084000
      3 C9          1.8360    0.5300    0.8620 ca        1 NHB     -0.220300
      4 C10         1.1220    0.7990    2.0490 ca        1 NHB      0.403200
      5 N11        -0.2040    0.6470    2.1770 nb        1 NHB     -0.645000
      6 C6         -0.8920    0.2050    1.0860 ca        1 NHB      0.448800
      7 C4         -2.3340    0.0270    1.2000 cc        1 NHB     -0.140600
      8 S5         -3.3770    0.1590   -0.0650 ss        1 NHB      0.311200
      9 C3         -3.0130   -0.2810    2.3890 cd        1 NHB     -0.147000
     10 C2         -4.3930   -0.3910    2.1620 cd        1 NHB     -0.028000
     11 C1         -4.7440   -0.1590    0.8110 cc        1 NHB     -0.572600
     12 S12        -6.2950   -0.3040    0.3320 sy        1 NHB      1.559200
     13 O13        -7.0580   -0.9490    1.3160 o         1 NHB     -0.629800
     14 O14        -6.3700   -0.8180   -0.9690 o         1 NHB     -0.629800
     15 N15        -6.8090    1.3280    0.2510 nh        1 NHB     -0.611900
     16 C16        -6.7860    1.9500   -1.0530 c3        1 NHB      0.154100
     17 C17        -7.2260    2.1170    1.3070 ca        1 NHB      0.298600
     18 C18        -7.4920    3.5090    1.1420 ca        1 NHB     -0.204000
     19 C19        -7.9430    4.2880    2.1890 ca        1 NHB     -0.019500
     20 C22        -7.4190    1.5790    2.6190 ca        1 NHB     -0.204000
     21 C21        -7.8800    2.3610    3.6560 ca        1 NHB     -0.019500
     22 C20        -8.1670    3.7250    3.4620 ca        1 NHB     -0.284600
     23 C23        -8.6480    4.6070    4.4990 c         1 NHB      0.615700
     24 O25        -8.5270    5.7970    4.6950 o         1 NHB     -0.376100
     25 N24        -9.5400    3.8560    5.5740 ny        1 NHB     -0.484300
     26 O26       -10.4780    4.7290    5.9980 oh        1 NHB     -0.342300
     27 H7         -0.8430   -0.4590   -0.9970 ha        1 NHB      0.145000
     28 H8          1.6390   -0.1490   -1.1920 ha        1 NHB      0.154000
     29 H9          2.9240    0.6740    0.8240 ha        1 NHB      0.159000
     30 H10         1.6470    1.1580    2.9540 h4        1 NHB      0.036100
     31 H3         -2.5270   -0.4200    3.3590 ha        1 NHB      0.188000
     32 H2         -5.1230   -0.6570    2.9350 ha        1 NHB      0.171000
     33 H161       -7.7870    2.4000   -1.2960 h1        1 NHB      0.071367
     34 H162       -6.0050    2.7570   -1.0980 h1        1 NHB      0.071367
     35 H163       -6.5570    1.1830   -1.8450 h1        1 NHB      0.071367
     36 H18        -7.3370    3.9990    0.1660 ha        1 NHB      0.181000
     37 H19        -8.1330    5.3640    2.0290 ha        1 NHB      0.144500
     38 H22        -7.2210    0.5100    2.8290 ha        1 NHB      0.181000
     39 H21        -7.9870    1.8910    4.6470 ha        1 NHB      0.144500
     40 H24        -9.9790    3.0340    5.1260 hn        1 NHB      0.452800
     41 H26       -10.9860    4.3240    6.7360 ho        1 NHB      0.460000
     42 H242       -8.9350    3.5490    6.3500 hn        1 NHB      0.452800
@<TRIPOS>BOND
     1    1    2 ar  
     2    1    6 ar  
     3    1   27 1   
     4    2    3 ar  
     5    2   28 1   
     6    3    4 ar  
     7    3   29 1   
     8    4    5 ar  
     9    4   30 1   
    10    5    6 ar  
    11    6    7 1   
    12    7    8 1   
    13    7    9 2   
    14    8   11 1   
    15    9   10 1   
    16    9   31 1   
    17   10   11 2   
    18   10   32 1   
    19   11   12 1   
    20   12   13 2   
    21   12   14 2   
    22   12   15 1   
    23   15   16 1   
    24   15   17 1   
    25   16   33 1   
    26   16   34 1   
    27   16   35 1   
    28   17   18 ar  
    29   17   20 ar  
    30   18   19 ar  
    31   18   36 1   
    32   19   22 ar  
    33   19   37 1   
    34   20   21 ar  
    35   20   38 1   
    36   21   22 ar  
    37   21   39 1   
    38   22   23 1   
    39   23   24 2   
    40   23   25 1   
    41   25   26 1   
    42   25   40 1   
    43   25   42 1   
    44   26   41 1   
@<TRIPOS>SUBSTRUCTURE
     1 NHB         1 TEMP              0 ****  ****    0 ROOT
