@<TRIPOS>MOLECULE
NHB
   42    44     1     0     0
SMALL
bcc


@<TRIPOS>ATOM
      1 C7         -0.2490   -0.0680   -0.1290 ca        1 NHB     -0.231300
      2 C8          1.1350    0.1000   -0.2190 ca        1 NHB     -0.084000
      3 C9          1.8380    0.5310    0.9040 ca        1 NHB     -0.220300
      4 C10         1.1150    0.7800    2.0890 ca        1 NHB      0.403200
      5 N11        -0.2130    0.6280    2.2030 nb        1 NHB     -0.645000
      6 C6         -0.8920    0.2080    1.0990 ca        1 NHB      0.448800
      7 C4         -2.3350    0.0300    1.1970 cc        1 NHB     -0.140600
      8 S5         -3.3670    0.1860   -0.0750 ss        1 NHB      0.311200
      9 C3         -3.0250   -0.2960    2.3740 cd        1 NHB     -0.147000
     10 C2         -4.4030   -0.4000    2.1340 cd        1 NHB     -0.028000
     11 C1         -4.7420   -0.1430    0.7840 cc        1 NHB     -0.572600
     12 S12        -6.2890   -0.2770    0.2890 sy        1 NHB      1.559200
     13 O13        -7.0620   -0.9360    1.2560 o         1 NHB     -0.629800
     14 O14        -6.3540   -0.7690   -1.0210 o         1 NHB     -0.629800
     15 N15        -6.7980    1.3570    0.2310 nh        1 NHB     -0.611900
     16 C16        -6.7660    2.0000   -1.0630 c3        1 NHB      0.154100
     17 C17        -7.2210    2.1300    1.2970 ca        1 NHB      0.298600
     18 C18        -7.4790    3.5260    1.1520 ca        1 NHB     -0.204000
     19 C19        -7.9340    4.2900    2.2090 ca        1 NHB     -0.019500
     20 C22        -7.4260    1.5710    2.5980 ca        1 NHB     -0.204000
     21 C21        -7.8910    2.3390    3.6440 ca        1 NHB     -0.019500
     22 C20        -8.1700    3.7070    3.4700 ca        1 NHB     -0.284600
     23 C23        -8.6550    4.5740    4.5180 c         1 NHB      0.615700
     24 O25        -8.5300    5.7600    4.7350 o         1 NHB     -0.376100
     25 N24        -9.5580    3.8100    5.5740 n4        1 NHB     -0.484300
     26 O26       -10.4950    4.6790    6.0070 oh        1 NHB     -0.342300
     27 H7         -0.8270   -0.4200   -0.9950 ha        1 NHB      0.145000
     28 H8          1.6580   -0.1120   -1.1640 ha        1 NHB      0.154000
     29 H9          2.9270    0.6730    0.8780 ha        1 NHB      0.159000
     30 H10         1.6330    1.1220    3.0050 h4        1 NHB      0.036100
     31 H3         -2.5480   -0.4530    3.3460 ha        1 NHB      0.188000
     32 H2         -5.1410   -0.6770    2.8960 ha        1 NHB      0.172000
     33 H161       -7.7630    2.4580   -1.3050 h1        1 NHB      0.071367
     34 H162       -6.5350    1.2450   -1.8660 h1        1 NHB      0.071367
     35 H163       -5.9810    2.8040   -1.0910 h1        1 NHB      0.071367
     36 H18        -7.3140    4.0320    0.1860 ha        1 NHB      0.181000
     37 H19        -8.1180    5.3700    2.0660 ha        1 NHB      0.144500
     38 H22        -7.2340    0.4990    2.7920 ha        1 NHB      0.181000
     39 H21        -8.0080    1.8530    4.6260 ha        1 NHB      0.144500
     40 H24        -9.9970    2.9980    5.1100 hn        1 NHB      0.453300
     41 H26       -11.0090    4.2650    6.7350 ho        1 NHB      0.460000
     42 H242       -8.9590    3.4860    6.3490 hn        1 NHB      0.453300
@<TRIPOS>BOND
     1    1    2 ar  
     2    1    6 ar  
     3    1   27 1   
     4    2    3 ar  
     5    2   28 1   
     6    3    4 ar  
     7    3   29 1   
     8    4    5 ar  
     9    4   30 1   
    10    5    6 ar  
    11    6    7 1   
    12    7    8 1   
    13    7    9 2   
    14    8   11 1   
    15    9   10 1   
    16    9   31 1   
    17   10   11 2   
    18   10   32 1   
    19   11   12 1   
    20   12   13 2   
    21   12   14 2   
    22   12   15 1   
    23   15   16 1   
    24   15   17 1   
    25   16   33 1   
    26   16   34 1   
    27   16   35 1   
    28   17   18 ar  
    29   17   20 ar  
    30   18   19 ar  
    31   18   36 1   
    32   19   22 ar  
    33   19   37 1   
    34   20   21 ar  
    35   20   38 1   
    36   21   22 ar  
    37   21   39 1   
    38   22   23 1   
    39   23   24 2   
    40   23   25 1   
    41   25   26 1   
    42   25   40 1   
    43   25   42 1   
    44   26   41 1   
@<TRIPOS>SUBSTRUCTURE
     1 NHB         1 TEMP              0 ****  ****    0 ROOT
