@<TRIPOS>MOLECULE
NHC
   27    27     1     0     0
SMALL
bcc


@<TRIPOS>ATOM
      1 O2         -2.2360   -0.5310   -1.9400 o         1 NHC     -0.600000
      2 C8         -0.9740   -0.5310   -1.9400 c1        1 NHC      0.362000
      3 O4         -0.3430   -0.5810   -3.0330 os        1 NHC     -0.579000
      4 C3         -0.2090   -0.5310   -0.6150 c3        1 NHC     -0.094000
      5 C7          1.2240   -1.3070   -0.8010 c3        1 NHC     -0.178000
      6 C4          0.0260    0.8220   -0.1880 c3        1 NHC     -0.094000
      7 C10         1.5400    1.0770   -0.0680 c3        1 NHC     -0.178000
      8 C9         -0.6230    1.8570   -1.2690 c2        1 NHC      0.362000
      9 O3         -1.7900    2.3040   -1.0910 o         1 NHC     -0.589500
     10 O5          0.0630    2.2560   -2.2500 o         1 NHC     -0.589500
     11 C2         -0.9550   -1.1650    0.3530 c3        1 NHC      0.020000
     12 C1         -0.4190   -1.2030    1.5810 c3        1 NHC     -0.191000
     13 C5         -0.1820    0.1530    2.0230 c3        1 NHC     -0.191000
     14 C6         -0.5790    0.9990    1.0440 c3        1 NHC      0.020000
     15 O1         -1.8920    0.1420    0.6660 os        1 NHC     -0.254000
     16 H7          1.7290   -1.2640    0.0340 hc        1 NHC      0.050000
     17 H7A         1.7360   -0.8790   -1.5130 hc        1 NHC      0.050000
     18 H7B         1.0610   -2.2410   -1.0350 hc        1 NHC      0.050000
     19 H10         1.6920    1.9830    0.2600 hc        1 NHC      0.050000
     20 H10A        1.9580    0.9720   -0.9440 hc        1 NHC      0.050000
     21 H10B        1.9290    0.4350    0.5570 hc        1 NHC      0.050000
     22 H2         -1.4560   -1.9540    0.0710 h1        1 NHC      0.135000
     23 H1         -1.0360   -1.6450    2.1950 hc        1 NHC      0.051500
     24 H1A         0.4260   -1.6920    1.5560 hc        1 NHC      0.051500
     25 H5         -0.6940    0.3280    2.8350 hc        1 NHC      0.051500
     26 H5A         0.7690    0.2790    2.2000 hc        1 NHC      0.051500
     27 H6         -0.7680    1.9180    1.3110 h1        1 NHC      0.135000
@<TRIPOS>BOND
     1    1    2 1   
     2    2    4 1   
     3    4    5 1   
     4    4    6 1   
     5    4   11 1   
     6    5   16 1   
     7    5   17 1   
     8    5   18 1   
     9    6    7 1   
    10    6    8 1   
    11    6   14 1   
    12    7   19 1   
    13    7   20 1   
    14    7   21 1   
    15    8    9 1   
    16    8   10 1   
    17   11   12 1   
    18   11   15 1   
    19   11   22 1   
    20   12   13 1   
    21   12   23 1   
    22   12   24 1   
    23   13   14 1   
    24   13   25 1   
    25   13   26 1   
    26   14   15 1   
    27   14   27 1   
@<TRIPOS>SUBSTRUCTURE
     1 NHC         1 TEMP              0 ****  ****    0 ROOT
