@<TRIPOS>MOLECULE
NHC
   27    28     1     0     0
SMALL
bcc


@<TRIPOS>ATOM
      1 O2         -0.1310   -0.2870    0.1010 o         1 NHC     -0.854800
      2 C8          1.1300   -0.2580   -0.0180 c         1 NHC      0.942600
      3 O4          1.7130   -0.5820   -1.0910 o         1 NHC     -0.854800
      4 C3          2.0000   -0.0280    1.2680 c3        1 NHC     -0.144000
      5 C7          2.9820   -1.1860    1.2430 c3        1 NHC     -0.060100
      6 C4          2.6940    1.3620    1.4960 c3        1 NHC     -0.144000
      7 C10         4.2020    1.2560    1.6430 c3        1 NHC     -0.060100
      8 C9          2.5090    2.5030    0.4350 c         1 NHC      0.942600
      9 O3          3.2550    2.5070   -0.5850 o         1 NHC     -0.854800
     10 O5          1.7480    3.4760    0.7170 o         1 NHC     -0.854800
     11 C2          1.0400   -0.0950    2.5000 c3        1 NHC      0.131100
     12 C1          1.8290   -0.3430    3.8170 c3        1 NHC     -0.112400
     13 C5          2.5100    1.0200    4.0400 c3        1 NHC     -0.112400
     14 C6          2.0030    1.8350    2.8160 c3        1 NHC      0.131100
     15 O1          0.6600    1.2960    2.6880 os        1 NHC     -0.397600
     16 H7          3.6690   -1.2210    2.1220 hc        1 NHC      0.010700
     17 H7A         3.5950   -1.1080    0.3110 hc        1 NHC      0.010700
     18 H7B         2.4170   -2.1500    1.2130 hc        1 NHC      0.010700
     19 H10         4.5350    0.5130    2.4060 hc        1 NHC      0.010700
     20 H10A        4.6340    0.9710    0.6520 hc        1 NHC      0.010700
     21 H10B        4.6160    2.2530    1.9350 hc        1 NHC      0.010700
     22 H2          0.1240   -0.6970    2.3440 h1        1 NHC      0.095700
     23 H1          2.5570   -1.1790    3.7390 hc        1 NHC      0.012200
     24 H1A         1.1220   -0.5750    4.6490 hc        1 NHC      0.012200
     25 H5          3.6170    0.9440    4.0870 hc        1 NHC      0.012200
     26 H5A         2.1540    1.4910    4.9880 hc        1 NHC      0.012200
     27 H6          1.9380    2.9330    2.9390 h1        1 NHC      0.095700
@<TRIPOS>BOND
     1    1    2 1   
     2    2    3 1   
     3    2    4 1   
     4    4    5 1   
     5    4    6 1   
     6    4   11 1   
     7    5   16 1   
     8    5   17 1   
     9    5   18 1   
    10    6    7 1   
    11    6    8 1   
    12    6   14 1   
    13    7   19 1   
    14    7   20 1   
    15    7   21 1   
    16    8    9 1   
    17    8   10 1   
    18   11   12 1   
    19   11   15 1   
    20   11   22 1   
    21   12   13 1   
    22   12   23 1   
    23   12   24 1   
    24   13   14 1   
    25   13   25 1   
    26   13   26 1   
    27   14   15 1   
    28   14   27 1   
@<TRIPOS>SUBSTRUCTURE
     1 NHC         1 TEMP              0 ****  ****    0 ROOT
