@<TRIPOS>MOLECULE
NHC
   27    28     1     0     0
SMALL
bcc


@<TRIPOS>ATOM
      1 O2         -1.0840    2.3290   -0.8220 o         1 NHC     -0.854800
      2 C8         -1.1170    1.5800    0.1990 c         1 NHC      0.942600
      3 O4         -2.0510    1.6430    1.0490 o         1 NHC     -0.854800
      4 C3          0.1440    0.7080    0.5320 c3        1 NHC     -0.144000
      5 C7          0.4420    1.0550    1.9800 c3        1 NHC     -0.060100
      6 C4          0.1090   -0.8400    0.2660 c3        1 NHC     -0.144000
      7 C10         0.3800   -1.6630    1.5120 c3        1 NHC     -0.060100
      8 C9         -1.1870   -1.4940   -0.3300 c         1 NHC      0.942600
      9 O3         -2.1290   -1.7960    0.4570 o         1 NHC     -0.854800
     10 O5         -1.1790   -1.8590   -1.5430 o         1 NHC     -0.854800
     11 C2          1.2900    1.1570   -0.4310 c3        1 NHC      0.131100
     12 C1          2.6810    0.7090    0.1020 c3        1 NHC     -0.112400
     13 C5          2.6470   -0.8080   -0.1590 c3        1 NHC     -0.112400
     14 C6          1.2410   -0.9910   -0.8000 c3        1 NHC      0.131100
     15 O1          1.1410    0.2470   -1.5550 os        1 NHC     -0.397600
     16 H7         -0.4400    0.7590    2.6020 hc        1 NHC      0.010700
     17 H7A         1.3530    0.5580    2.3910 hc        1 NHC      0.010700
     18 H7B         0.5850    2.1600    2.0740 hc        1 NHC      0.010700
     19 H10        -0.4920   -1.5540    2.2040 hc        1 NHC      0.010700
     20 H10A        0.4740   -2.7410    1.2310 hc        1 NHC      0.010700
     21 H10B        1.3090   -1.3730    2.0580 hc        1 NHC      0.010700
     22 H2          1.2070    2.1970   -0.7990 h1        1 NHC      0.095700
     23 H1          3.4930    1.1950   -0.4910 hc        1 NHC      0.012200
     24 H1A         2.8400    0.9570    1.1730 hc        1 NHC      0.012200
     25 H5          3.4410   -1.1040   -0.8860 hc        1 NHC      0.012200
     26 H5A         2.7860   -1.4070    0.7660 hc        1 NHC      0.012200
     27 H6          1.1150   -1.8440   -1.4950 h1        1 NHC      0.095700
@<TRIPOS>BOND
     1    1    2 1   
     2    2    3 1   
     3    2    4 1   
     4    4    5 1   
     5    4    6 1   
     6    4   11 1   
     7    5   16 1   
     8    5   17 1   
     9    5   18 1   
    10    6    7 1   
    11    6    8 1   
    12    6   14 1   
    13    7   19 1   
    14    7   20 1   
    15    7   21 1   
    16    8    9 1   
    17    8   10 1   
    18   11   12 1   
    19   11   15 1   
    20   11   22 1   
    21   12   13 1   
    22   12   23 1   
    23   12   24 1   
    24   13   14 1   
    25   13   25 1   
    26   13   26 1   
    27   14   15 1   
    28   14   27 1   
@<TRIPOS>SUBSTRUCTURE
     1 NHC         1 TEMP              0 ****  ****    0 ROOT
