@<TRIPOS>MOLECULE
NHC
   27    28     1     0     0
SMALL
bcc


@<TRIPOS>ATOM
      1 O2         -0.0990   -0.3200    0.0720 o         1 NHC     -0.854800
      2 C8          1.1630   -0.2730   -0.0330 c         1 NHC      0.942600
      3 O4          1.7620   -0.5850   -1.1010 o         1 NHC     -0.854800
      4 C3          2.0160   -0.0330    1.2630 c3        1 NHC     -0.144000
      5 C7          3.0150   -1.1760    1.2460 c3        1 NHC     -0.060100
      6 C4          2.6870    1.3670    1.5010 c3        1 NHC     -0.144000
      7 C10         4.1940    1.2820    1.6640 c3        1 NHC     -0.060100
      8 C9          2.4970    2.5070    0.4400 c         1 NHC      0.942600
      9 O3          3.2550    2.5250   -0.5720 o         1 NHC     -0.854800
     10 O5          1.7180    3.4680    0.7160 o         1 NHC     -0.854800
     11 C2          1.0430   -0.1160    2.4840 c3        1 NHC      0.131100
     12 C1          1.8220   -0.3560    3.8090 c3        1 NHC     -0.112400
     13 C5          2.4800    1.0170    4.0420 c3        1 NHC     -0.112400
     14 C6          1.9750    1.8270    2.8140 c3        1 NHC      0.131100
     15 O1          0.6410    1.2680    2.6700 os        1 NHC     -0.397600
     16 H7          3.6370   -1.0870    0.3210 hc        1 NHC      0.010700
     17 H7A         3.6920   -1.2040    2.1320 hc        1 NHC      0.010700
     18 H7B         2.4640   -2.1480    1.2080 hc        1 NHC      0.010700
     19 H10         4.5300    0.5430    2.4290 hc        1 NHC      0.010700
     20 H10A        4.5910    2.2850    1.9620 hc        1 NHC      0.010700
     21 H10B        4.6410    1.0060    0.6770 hc        1 NHC      0.010700
     22 H2          0.1390   -0.7310    2.3170 h1        1 NHC      0.095700
     23 H1          2.5620   -1.1810    3.7370 hc        1 NHC      0.012200
     24 H1A         1.1090   -0.6000    4.6330 hc        1 NHC      0.012200
     25 H5          2.1070    1.4810    4.9870 hc        1 NHC      0.012200
     26 H5A         3.5880    0.9580    4.1010 hc        1 NHC      0.012200
     27 H6          1.8920    2.9240    2.9380 h1        1 NHC      0.095700
@<TRIPOS>BOND
     1    1    2 1   
     2    2    3 1   
     3    2    4 1   
     4    4    5 1   
     5    4    6 1   
     6    4   11 1   
     7    5   16 1   
     8    5   17 1   
     9    5   18 1   
    10    6    7 1   
    11    6    8 1   
    12    6   14 1   
    13    7   19 1   
    14    7   20 1   
    15    7   21 1   
    16    8    9 1   
    17    8   10 1   
    18   11   12 1   
    19   11   15 1   
    20   11   22 1   
    21   12   13 1   
    22   12   23 1   
    23   12   24 1   
    24   13   14 1   
    25   13   25 1   
    26   13   26 1   
    27   14   15 1   
    28   14   27 1   
@<TRIPOS>SUBSTRUCTURE
     1 NHC         1 TEMP              0 ****  ****    0 ROOT
