@<TRIPOS>MOLECULE
NHE
   29    29     1     0     0
SMALL
bcc


@<TRIPOS>ATOM
      1 C3'         1.1980    0.4110   -4.0340 c3        1 NHE     -0.075900
      2 C2'         1.1700   -0.6900   -2.9960 c3        1 NHE     -0.077400
      3 C1'         0.1280   -0.3860   -1.9060 c3        1 NHE      0.172500
      4 C6'        -1.2500   -0.2250   -2.5720 c3        1 NHE     -0.077400
      5 N           0.0920   -1.4150   -0.8660 n3        1 NHE     -0.816200
      6 C1         -0.3160   -0.9260    0.4390 c3        1 NHE      0.185800
      7 C2          0.6960   -0.1230    1.2260 c3        1 NHE     -0.325600
      8 S           0.0530    0.4120    2.8020 s6        1 NHE      1.430800
      9 O1         -0.2110   -0.7800    3.5160 o         1 NHE     -0.751867
     10 O2         -1.1050    1.1640    2.4890 o         1 NHE     -0.751867
     11 O3          1.1070    1.1850    3.3470 o         1 NHE     -0.751867
     12 C5'        -1.2160    0.8770   -3.6100 c3        1 NHE     -0.075900
     13 C4'        -0.1630    0.6130   -4.6660 c3        1 NHE     -0.074400
     14 H3'1        1.5310    1.3690   -3.5540 hc        1 NHE      0.033700
     15 H3'2        1.9470    0.1550   -4.8290 hc        1 NHE      0.033700
     16 H2'1        2.1870   -0.7860   -2.5340 hc        1 NHE      0.042200
     17 H2'2        0.9260   -1.6670   -3.4890 hc        1 NHE      0.042200
     18 HC'1        0.3990    0.6230   -1.4600 h1        1 NHE      0.035700
     19 H6'1       -1.5520   -1.1900   -3.0540 hc        1 NHE      0.042200
     20 H6'2       -2.0170    0.0220   -1.7920 hc        1 NHE      0.042200
     21 HN          1.0010   -1.8370   -0.7930 hn        1 NHE      0.343800
     22 HC11       -0.5900   -1.8400    1.0430 h1        1 NHE      0.061200
     23 HC12       -1.2490   -0.3030    0.3140 h1        1 NHE      0.061200
     24 HC21        1.0100    0.7820    0.6540 h1        1 NHE      0.062200
     25 HC22        1.6140   -0.7300    1.4110 h1        1 NHE      0.062200
     26 H5'1       -1.0030    1.8580   -3.1080 hc        1 NHE      0.033700
     27 H5'2       -2.2220    0.9610   -4.0980 hc        1 NHE      0.033700
     28 H4'1       -0.1220    1.4720   -5.3850 hc        1 NHE      0.028200
     29 H4'2       -0.4420   -0.3030   -5.2510 hc        1 NHE      0.028200
@<TRIPOS>BOND
     1    1    2 1   
     2    1   13 1   
     3    1   14 1   
     4    1   15 1   
     5    2    3 1   
     6    2   16 1   
     7    2   17 1   
     8    3    4 1   
     9    3    5 1   
    10    3   18 1   
    11    4   12 1   
    12    4   19 1   
    13    4   20 1   
    14    5    6 1   
    15    5   21 1   
    16    6    7 1   
    17    6   22 1   
    18    6   23 1   
    19    7    8 1   
    20    7   24 1   
    21    7   25 1   
    22    8    9 1   
    23    8   10 1   
    24    8   11 1   
    25   12   13 1   
    26   12   26 1   
    27   12   27 1   
    28   13   28 1   
    29   13   29 1   
@<TRIPOS>SUBSTRUCTURE
     1 NHE         1 TEMP              0 ****  ****    0 ROOT
