@<TRIPOS>MOLECULE
NHE
   30    30     1     0     0
SMALL
bcc


@<TRIPOS>ATOM
      1 C3'        -0.0140   -0.0920   -0.0410 c3        1 NHE     -0.077400
      2 C2'         1.5010   -0.0680   -0.0560 c3        1 NHE     -0.097900
      3 C1'         2.0330    0.0200    1.3800 c3        1 NHE      0.116500
      4 C6'         1.5320   -1.1780    2.1970 c3        1 NHE     -0.097900
      5 N           3.5290    0.1180    1.4000 n4        1 NHE     -0.769000
      6 C1          4.0650    0.7360    2.6670 c3        1 NHE      0.161800
      7 C2          5.5480    0.7650    2.6900 c3        1 NHE     -0.306600
      8 S           6.0480    1.5200    4.3440 s6        1 NHE      1.444800
      9 O1          7.4360    1.4730    4.2900 o         1 NHE     -0.723867
     10 O2          5.4110    0.6340    5.2240 o         1 NHE     -0.723867
     11 O3          5.4430    2.7780    4.2420 o         1 NHE     -0.723867
     12 C5'         0.0160   -1.1960    2.2000 c3        1 NHE     -0.077400
     13 C4'        -0.5430   -1.2390    0.7940 c3        1 NHE     -0.087400
     14 H3'1       -0.3860   -0.1880   -1.0950 hc        1 NHE      0.060200
     15 H3'2       -0.4010    0.8800    0.3650 hc        1 NHE      0.060200
     16 H2'1        1.8850   -0.9990   -0.5500 hc        1 NHE      0.061950
     17 H2'2        1.8500    0.8140   -0.6550 hc        1 NHE      0.061950
     18 HC'1        1.6420    0.9710    1.8550 hx        1 NHE      0.107700
     19 H6'1        1.9180   -2.1330    1.7520 hc        1 NHE      0.061950
     20 H6'2        1.9050   -1.1120    3.2540 hc        1 NHE      0.061950
     21 HN          3.8420    0.6850    0.6070 hn        1 NHE      0.433300
     22 HC11        3.6730    0.1290    3.5350 hx        1 NHE      0.112200
     23 HC12        3.6520    1.7860    2.7350 hx        1 NHE      0.112200
     24 HC21        5.9940    1.4100    1.9040 h1        1 NHE      0.082200
     25 HC22        6.0150   -0.2420    2.6570 h1        1 NHE      0.082200
     26 H5'1       -0.3700   -0.2880    2.7340 hc        1 NHE      0.060200
     27 H5'2       -0.3330   -2.0960    2.7730 hc        1 NHE      0.060200
     28 H4'1       -0.2710   -2.2140    0.3100 hc        1 NHE      0.055700
     29 H4'2       -1.6620   -1.1850    0.8350 hc        1 NHE      0.055700
     30 HN3         3.9360   -0.8160    1.2980 hn        1 NHE      0.433300
@<TRIPOS>BOND
     1    1    2 1   
     2    1   13 1   
     3    1   14 1   
     4    1   15 1   
     5    2    3 1   
     6    2   16 1   
     7    2   17 1   
     8    3    4 1   
     9    3    5 1   
    10    3   18 1   
    11    4   12 1   
    12    4   19 1   
    13    4   20 1   
    14    5    6 1   
    15    5   21 1   
    16    5   30 1   
    17    6    7 1   
    18    6   22 1   
    19    6   23 1   
    20    7    8 1   
    21    7   24 1   
    22    7   25 1   
    23    8    9 1   
    24    8   10 1   
    25    8   11 1   
    26   12   13 1   
    27   12   26 1   
    28   12   27 1   
    29   13   28 1   
    30   13   29 1   
@<TRIPOS>SUBSTRUCTURE
     1 NHE         1 TEMP              0 ****  ****    0 ROOT
