@<TRIPOS>MOLECULE
NHE
   30    30     1     0     0
SMALL
bcc


@<TRIPOS>ATOM
      1 C3'        -0.0150   -0.0900   -0.0400 c3        1 NHE     -0.077400
      2 C2'         1.5000   -0.0660   -0.0560 c3        1 NHE     -0.097900
      3 C1'         2.0320    0.0210    1.3800 c3        1 NHE      0.116500
      4 C6'         1.5320   -1.1790    2.1960 c3        1 NHE     -0.097900
      5 N           3.5280    0.1200    1.4000 n4        1 NHE     -0.769000
      6 C1          4.0650    0.7350    2.6670 c3        1 NHE      0.161800
      7 C2          5.5480    0.7660    2.6900 c3        1 NHE     -0.306600
      8 S           6.0490    1.5160    4.3460 s6        1 NHE      1.444800
      9 O1          7.4370    1.4750    4.2890 o         1 NHE     -0.723867
     10 O2          5.4170    0.6240    5.2230 o         1 NHE     -0.723867
     11 O3          5.4390    2.7720    4.2500 o         1 NHE     -0.723867
     12 C5'         0.0170   -1.1980    2.2000 c3        1 NHE     -0.077400
     13 C4'        -0.5430   -1.2390    0.7930 c3        1 NHE     -0.087400
     14 H3'1       -0.3870   -0.1860   -1.0940 hc        1 NHE      0.060200
     15 H3'2       -0.4020    0.8810    0.3670 hc        1 NHE      0.060200
     16 H2'1        1.8490    0.8170   -0.6540 hc        1 NHE      0.061950
     17 H2'2        1.8850   -0.9960   -0.5510 hc        1 NHE      0.061950
     18 HC'1        1.6410    0.9710    1.8560 hx        1 NHE      0.107700
     19 H6'1        1.9050   -1.1130    3.2520 hc        1 NHE      0.061950
     20 H6'2        1.9190   -2.1320    1.7500 hc        1 NHE      0.061950
     21 HN          3.8410    0.6890    0.6080 hn        1 NHE      0.433300
     22 HC11        3.6500    1.7840    2.7400 hx        1 NHE      0.112200
     23 HC12        3.6750    0.1230    3.5350 hx        1 NHE      0.112200
     24 HC21        6.0170   -0.2390    2.6520 h1        1 NHE      0.082200
     25 HC22        5.9910    1.4150    1.9050 h1        1 NHE      0.082200
     26 H5'1       -0.3690   -0.2900    2.7350 hc        1 NHE      0.060200
     27 H5'2       -0.3320   -2.0980    2.7720 hc        1 NHE      0.060200
     28 H4'1       -1.6620   -1.1850    0.8350 hc        1 NHE      0.055700
     29 H4'2       -0.2700   -2.2130    0.3080 hc        1 NHE      0.055700
     30 HN3         3.9360   -0.8130    1.2940 hn        1 NHE      0.433300
@<TRIPOS>BOND
     1    1    2 1   
     2    1   13 1   
     3    1   14 1   
     4    1   15 1   
     5    2    3 1   
     6    2   16 1   
     7    2   17 1   
     8    3    4 1   
     9    3    5 1   
    10    3   18 1   
    11    4   12 1   
    12    4   19 1   
    13    4   20 1   
    14    5    6 1   
    15    5   21 1   
    16    5   30 1   
    17    6    7 1   
    18    6   22 1   
    19    6   23 1   
    20    7    8 1   
    21    7   24 1   
    22    7   25 1   
    23    8    9 1   
    24    8   10 1   
    25    8   11 1   
    26   12   13 1   
    27   12   26 1   
    28   12   27 1   
    29   13   28 1   
    30   13   29 1   
@<TRIPOS>SUBSTRUCTURE
     1 NHE         1 TEMP              0 ****  ****    0 ROOT
