@<TRIPOS>MOLECULE
NHE
   30    30     1     0     0
SMALL
bcc


@<TRIPOS>ATOM
      1 C3'        -0.0140   -0.0900   -0.0420 c3        1 NHE     -0.077400
      2 C2'         1.5020   -0.0720   -0.0570 c3        1 NHE     -0.097900
      3 C1'         2.0330    0.0200    1.3800 c3        1 NHE      0.116500
      4 C6'         1.5270   -1.1720    2.2010 c3        1 NHE     -0.097900
      5 N           3.5290    0.1130    1.4000 ny        1 NHE     -0.769000
      6 C1          4.0680    0.7330    2.6640 c3        1 NHE      0.161800
      7 C2          5.5510    0.7570    2.6890 c3        1 NHE     -0.306600
      8 S           6.0530    1.5140    4.3400 s6        1 NHE      1.444800
      9 O1          7.4410    1.4630    4.2870 o         1 NHE     -0.723867
     10 O2          5.4130    0.6340    5.2220 o         1 NHE     -0.723867
     11 O3          5.4520    2.7740    4.2340 o         1 NHE     -0.723867
     12 C5'         0.0110   -1.1850    2.2040 c3        1 NHE     -0.077400
     13 C4'        -0.5470   -1.2310    0.7980 c3        1 NHE     -0.087400
     14 H3'1       -0.3850   -0.1890   -1.0960 hc        1 NHE      0.060200
     15 H3'2       -0.3970    0.8860    0.3590 hc        1 NHE      0.060200
     16 H2'1        1.8830   -1.0070   -0.5460 hc        1 NHE      0.061950
     17 H2'2        1.8550    0.8050   -0.6600 hc        1 NHE      0.061950
     18 HC'1        1.6460    0.9750    1.8500 hx        1 NHE      0.107700
     19 H6'1        1.9100   -2.1300    1.7610 hc        1 NHE      0.061950
     20 H6'2        1.8990   -1.1030    3.2580 hc        1 NHE      0.061950
     21 HN          3.8450    0.6750    0.6050 hn        1 NHE      0.433300
     22 HC11        3.6590    1.7850    2.7280 hx        1 NHE      0.112200
     23 HC12        3.6730    0.1300    3.5350 hx        1 NHE      0.112200
     24 HC21        6.0130   -0.2520    2.6590 h1        1 NHE      0.082200
     25 HC22        5.9990    1.3970    1.9010 h1        1 NHE      0.082200
     26 H5'1       -0.3710   -0.2720    2.7340 hc        1 NHE      0.060200
     27 H5'2       -0.3410   -2.0800    2.7810 hc        1 NHE      0.060200
     28 H4'1       -0.2790   -2.2090    0.3180 hc        1 NHE      0.055700
     29 H4'2       -1.6660   -1.1730    0.8380 hc        1 NHE      0.055700
     30 HN3         3.9330   -0.8230    1.3010 hn        1 NHE      0.433300
@<TRIPOS>BOND
     1    1    2 1   
     2    1   13 1   
     3    1   14 1   
     4    1   15 1   
     5    2    3 1   
     6    2   16 1   
     7    2   17 1   
     8    3    4 1   
     9    3    5 1   
    10    3   18 1   
    11    4   12 1   
    12    4   19 1   
    13    4   20 1   
    14    5    6 1   
    15    5   21 1   
    16    5   30 1   
    17    6    7 1   
    18    6   22 1   
    19    6   23 1   
    20    7    8 1   
    21    7   24 1   
    22    7   25 1   
    23    8    9 1   
    24    8   10 1   
    25    8   11 1   
    26   12   13 1   
    27   12   26 1   
    28   12   27 1   
    29   13   28 1   
    30   13   29 1   
@<TRIPOS>SUBSTRUCTURE
     1 NHE         1 TEMP              0 ****  ****    0 ROOT
