@<TRIPOS>MOLECULE
NHF
   21    21     1     0     0
SMALL
bcc


@<TRIPOS>ATOM
      1 O4         -0.3460    2.3280    0.3130 oh        1 NHF     -0.592800
      2 C6         -2.4730    0.4820   -0.4310 c3        1 NHF      0.142400
      3 C5         -1.1470    0.0920    0.2290 c3        1 NHF      0.090100
      4 C4         -0.0220    1.0470   -0.1920 c3        1 NHF      0.129100
      5 O3          2.3260    1.3720   -0.1780 oh        1 NHF     -0.598800
      6 C3          1.3160    0.5670    0.4040 c3        1 NHF      0.003100
      7 C2          1.5260   -0.9130    0.1630 c         1 NHF      0.516100
      8 C1          0.3120   -1.7900    0.3390 c3        1 NHF      0.036400
      9 O2          2.6410   -1.3630   -0.1110 o         1 NHF     -0.512100
     10 O6         -3.5350   -0.3080    0.0550 oh        1 NHF     -0.592800
     11 O5         -0.8550   -1.2280   -0.2370 os        1 NHF     -0.408600
     12 HO4         0.3940    2.9080    0.0810 ho        1 NHF      0.427000
     13 H6         -2.7260    1.5390   -0.1450 h1        1 NHF      0.066700
     14 H6A        -2.3880    0.3880   -1.5460 h1        1 NHF      0.066700
     15 H5         -1.2580    0.0860    1.3480 h1        1 NHF      0.070700
     16 H4          0.0630    1.0840   -1.3140 h1        1 NHF      0.067700
     17 HO3         3.1490    0.8610   -0.1780 ho        1 NHF      0.432000
     18 H3          1.3150    0.7450    1.5200 h1        1 NHF      0.078700
     19 H1          0.4410   -2.7700   -0.1970 h1        1 NHF      0.084700
     20 H1A         0.1550   -1.9700    1.4380 h1        1 NHF      0.084700
     21 HO6        -3.3350   -1.2240   -0.1760 ho        1 NHF      0.410000
@<TRIPOS>BOND
     1    1    4 1   
     2    1   12 1   
     3    2    3 1   
     4    2   10 1   
     5    2   13 1   
     6    2   14 1   
     7    3    4 1   
     8    3   11 1   
     9    3   15 1   
    10    4    6 1   
    11    4   16 1   
    12    5    6 1   
    13    5   17 1   
    14    6    7 1   
    15    6   18 1   
    16    7    8 1   
    17    7    9 2   
    18    8   11 1   
    19    8   19 1   
    20    8   20 1   
    21   10   21 1   
@<TRIPOS>SUBSTRUCTURE
     1 NHF         1 TEMP              0 ****  ****    0 ROOT
