@<TRIPOS>MOLECULE
NHF
   21    21     1     0     0
SMALL
bcc


@<TRIPOS>ATOM
      1 O4         -2.2780    0.8900   -0.2980 oh        1 NHF     -0.581800
      2 C6          1.1600   -0.1640   -1.2920 c3        1 NHF      0.104400
      3 C5         -0.3470   -0.2870   -1.0930 c3        1 NHF      0.095100
      4 C4         -0.8250    0.8900   -0.2980 c3        1 NHF      0.126100
      5 O3          1.0750    1.2260    1.2020 oh        1 NHF     -0.584800
      6 C3         -0.3490    0.8900    1.1190 c3        1 NHF      0.018100
      7 C2         -0.6700   -0.4530    1.7540 c         1 NHF      0.507100
      8 C1         -0.1550   -1.6730    0.9400 c3        1 NHF      0.025400
      9 O2         -0.8050   -0.5400    2.9630 o         1 NHF     -0.523100
     10 O6          1.5620   -0.9860   -2.3750 oh        1 NHF     -0.593800
     11 O5         -0.6320   -1.5670   -0.4570 os        1 NHF     -0.404600
     12 HO4        -2.5740    1.6100   -0.7260 ho        1 NHF      0.408000
     13 H6          1.3870    0.7650   -1.4870 h1        1 NHF      0.040700
     14 H6A         1.6200   -0.4480   -0.4800 h1        1 NHF      0.040700
     15 H5         -0.7810   -0.2700   -1.9670 h1        1 NHF      0.117700
     16 H4         -0.5120    1.7070   -0.7320 h1        1 NHF      0.122700
     17 HO3         1.1980    1.8420    1.8290 ho        1 NHF      0.422000
     18 H3         -0.7470    1.6200    1.6310 h1        1 NHF      0.080700
     19 H1          0.7950   -1.7750    1.1390 h1        1 NHF      0.086200
     20 H1A        -0.5000   -2.5260    1.2680 h1        1 NHF      0.086200
     21 HO6         2.3760   -0.7500   -2.6390 ho        1 NHF      0.410000
@<TRIPOS>BOND
     1    1    4 1   
     2    1   12 1   
     3    2    3 1   
     4    2   10 1   
     5    2   13 1   
     6    2   14 1   
     7    3    4 1   
     8    3   11 1   
     9    3   15 1   
    10    4    6 1   
    11    4   16 1   
    12    5    6 1   
    13    5   17 1   
    14    6    7 1   
    15    6   18 1   
    16    7    8 1   
    17    7    9 2   
    18    8   11 1   
    19    8   19 1   
    20    8   20 1   
    21   10   21 1   
@<TRIPOS>SUBSTRUCTURE
     1 NHF         1 TEMP              0 ****  ****    0 ROOT
