@<TRIPOS>MOLECULE
NHG
   28    30     1     0     0
SMALL
bcc


@<TRIPOS>ATOM
      1 CW2         0.0010   -0.0860    0.1130 ca        1 NHG     -0.107000
      2 CW3         1.3800   -0.0610    0.0870 ca        1 NHG     -0.101300
      3 CW7         2.3510   -0.0670    1.2280 c3        1 NHG     -0.033700
      4 CK2         2.1970   -1.2800    2.1110 c3        1 NHG     -0.081100
      5 CW9         2.3440    1.2390    2.0270 c3        1 NHG     -0.096400
      6 CK1         3.6680    1.9540    1.6960 c3        1 NHG      0.148800
      7 NW2         4.5810    1.0250    1.0430 n7        1 NHG     -0.782200
      8 CW8         3.7750   -0.0710    0.4800 c3        1 NHG      0.404700
      9 NW1         3.4890    0.0950   -0.9670 nu        1 NHG     -0.694600
     10 CW4         2.0940   -0.0160   -1.1510 ca        1 NHG      0.092600
     11 CW5         1.3990   -0.0130   -2.3620 ca        1 NHG     -0.129000
     12 CW6         0.0030   -0.0440   -2.3380 ca        1 NHG     -0.183000
     13 CW1        -0.6830   -0.0780   -1.1200 ca        1 NHG      0.087100
     14 OW1        -2.0610   -0.1110   -1.0430 oh        1 NHG     -0.502100
     15 HW2        -0.5640   -0.1150    1.0550 ha        1 NHG      0.151000
     16 HK21        2.2670   -2.2170    1.5080 hc        1 NHG      0.041033
     17 HK22        2.9960   -1.2970    2.8920 hc        1 NHG      0.041033
     18 HK23        1.2020   -1.2600    2.6180 hc        1 NHG      0.041033
     19 HW91        1.4740    1.8790    1.7430 hc        1 NHG      0.055200
     20 HW92        2.2740    1.0300    3.1240 hc        1 NHG      0.055200
     21 HW8         4.3050   -1.0540    0.6480 h2        1 NHG      0.043700
     22 HK11        4.1310    2.3880    2.6220 h1        1 NHG      0.055200
     23 HK12        3.4730    2.7940    0.9750 h1        1 NHG      0.055200
     24 HA          5.2250    0.6370    1.7070 hn        1 NHG      0.353800
     25 HW1         4.0470   -0.4790   -1.5590 hn        1 NHG      0.396800
     26 HW5         1.9330    0.0220   -3.3220 ha        1 NHG      0.140000
     27 HW6        -0.5560   -0.0380   -3.2850 ha        1 NHG      0.132000
     28 HB         -2.4070   -0.0760   -1.9450 ho        1 NHG      0.416000
@<TRIPOS>BOND
     1    1    2 ar  
     2    1   13 ar  
     3    1   15 1   
     4    2    3 1   
     5    2   10 ar  
     6    3    4 1   
     7    3    5 1   
     8    3    8 1   
     9    4   16 1   
    10    4   17 1   
    11    4   18 1   
    12    5    6 1   
    13    5   19 1   
    14    5   20 1   
    15    6    7 1   
    16    6   22 1   
    17    6   23 1   
    18    7    8 1   
    19    7   24 1   
    20    8    9 1   
    21    8   21 1   
    22    9   10 1   
    23    9   25 1   
    24   10   11 ar  
    25   11   12 ar  
    26   11   26 1   
    27   12   13 ar  
    28   12   27 1   
    29   13   14 1   
    30   14   28 1   
@<TRIPOS>SUBSTRUCTURE
     1 NHG         1 TEMP              0 ****  ****    0 ROOT
