@<TRIPOS>MOLECULE
NHG
   28    30     1     0     0
SMALL
bcc


@<TRIPOS>ATOM
      1 CW2         0.0100   -0.1030    0.0030 ca        1 NHG     -0.162000
      2 CW3         1.3910   -0.0570    0.0170 ca        1 NHG     -0.098300
      3 CW7         2.3320   -0.0890    1.1830 c3        1 NHG     -0.034700
      4 CK2         2.1740   -1.3330    2.0200 c3        1 NHG     -0.080100
      5 CW9         2.2880    1.1890    2.0240 c3        1 NHG     -0.096400
      6 CK1         3.6110    1.9300    1.7520 c3        1 NHG      0.148800
      7 NW2         4.5520    1.0350    1.0920 n3        1 NHG     -0.782200
      8 CW8         3.7740   -0.0500    0.4700 c3        1 NHG      0.405700
      9 NW1         3.5210    0.1640   -0.9760 nh        1 NHG     -0.694600
     10 CW4         2.1330    0.0400   -1.1980 ca        1 NHG      0.092600
     11 CW5         1.4670    0.0750   -2.4280 ca        1 NHG     -0.132000
     12 CW6         0.0740    0.0240   -2.4440 ca        1 NHG     -0.127000
     13 CW1        -0.6430   -0.0620   -1.2420 ca        1 NHG      0.086100
     14 OW1        -2.0180   -0.1100   -1.3520 oh        1 NHG     -0.501100
     15 HW2        -0.5640   -0.1720    0.9370 ha        1 NHG      0.134000
     16 HK21        2.9560   -1.3680    2.8170 hc        1 NHG      0.040367
     17 HK22        2.2680   -2.2480    1.3880 hc        1 NHG      0.040367
     18 HK23        1.1680   -1.3410    2.5060 hc        1 NHG      0.040367
     19 HW91        2.1920    0.9430    3.1110 hc        1 NHG      0.053700
     20 HW92        1.4180    1.8280    1.7370 hc        1 NHG      0.053700
     21 HW8         4.3120   -1.0320    0.6180 h2        1 NHG      0.043700
     22 HK11        4.0440    2.3380    2.7030 h1        1 NHG      0.055700
     23 HK12        3.4240    2.7920    1.0540 h1        1 NHG      0.055700
     24 HA          5.1830    0.6320    1.7590 hn        1 NHG      0.353800
     25 HW1         4.1010   -0.3810   -1.5750 hn        1 NHG      0.397800
     26 HW5         2.0260    0.1500   -3.3710 ha        1 NHG      0.142000
     27 HW6        -0.4750    0.0530   -3.3960 ha        1 NHG      0.150000
     28 HB         -2.3840   -0.1500   -0.4580 ho        1 NHG      0.415000
@<TRIPOS>BOND
     1    1    2 ar  
     2    1   13 ar  
     3    1   15 1   
     4    2    3 1   
     5    2   10 ar  
     6    3    4 1   
     7    3    5 1   
     8    3    8 1   
     9    4   16 1   
    10    4   17 1   
    11    4   18 1   
    12    5    6 1   
    13    5   19 1   
    14    5   20 1   
    15    6    7 1   
    16    6   22 1   
    17    6   23 1   
    18    7    8 1   
    19    7   24 1   
    20    8    9 1   
    21    8   21 1   
    22    9   10 1   
    23    9   25 1   
    24   10   11 ar  
    25   11   12 ar  
    26   11   26 1   
    27   12   13 ar  
    28   12   27 1   
    29   13   14 1   
    30   14   28 1   
@<TRIPOS>SUBSTRUCTURE
     1 NHG         1 TEMP              0 ****  ****    0 ROOT
