@<TRIPOS>MOLECULE
NHG
   28    30     1     0     0
SMALL
bcc


@<TRIPOS>ATOM
      1 CW2         1.4400   -0.9900   -0.0990 ca        1 NHG     -0.166000
      2 CW3         0.3100   -0.2420    0.1680 ca        1 NHG     -0.092300
      3 CW7        -1.0910   -0.7030    0.4440 c3        1 NHG     -0.018700
      4 CK2        -1.1830   -1.5280    1.7040 c3        1 NHG     -0.075100
      5 CW9        -1.7400   -1.3970   -0.7540 c3        1 NHG     -0.085400
      6 CK1        -2.8500   -0.4640   -1.2580 c3        1 NHG      0.154800
      7 NW2        -2.9690    0.6910   -0.3780 n3        1 NHG     -0.827200
      8 CW8        -1.8860    0.6770    0.6130 c3        1 NHG      0.398700
      9 NW1        -0.8700    1.7610    0.5940 nh        1 NHG     -0.705600
     10 CW4         0.3680    1.1820    0.2150 ca        1 NHG      0.067600
     11 CW5         1.5760    1.8450   -0.0200 ca        1 NHG     -0.124000
     12 CW6         2.7190    1.0930   -0.2910 ca        1 NHG     -0.132000
     13 CW1         2.6490   -0.3060   -0.3280 ca        1 NHG      0.093100
     14 OW1         3.8260   -0.9700   -0.6060 oh        1 NHG     -0.500100
     15 HW2         1.4000   -2.0870   -0.1310 ha        1 NHG      0.136000
     16 HK21       -0.7600   -0.9650    2.5710 hc        1 NHG      0.044033
     17 HK22       -2.2490   -1.7790    1.9260 hc        1 NHG      0.044033
     18 HK23       -0.6070   -2.4780    1.5810 hc        1 NHG      0.044033
     19 HW91       -0.9880   -1.5840   -1.5600 hc        1 NHG      0.055200
     20 HW92       -2.1720   -2.3830   -0.4530 hc        1 NHG      0.055200
     21 HW8        -2.3760    0.7360    1.6290 h2        1 NHG      0.097700
     22 HK11       -2.6450   -0.1650   -2.3240 h1        1 NHG      0.041200
     23 HK12       -3.8410   -0.9950   -1.2420 h1        1 NHG      0.041200
     24 HA         -3.0120    1.5450   -0.8990 hn        1 NHG      0.362800
     25 HW1        -1.1170    2.5680    0.0580 hn        1 NHG      0.382800
     26 HW5         1.6350    2.9420    0.0140 ha        1 NHG      0.141000
     27 HW6         3.6830    1.5890   -0.4760 ha        1 NHG      0.150000
     28 HB          3.6430   -1.9200   -0.5760 ho        1 NHG      0.416000
@<TRIPOS>BOND
     1    1    2 ar  
     2    1   13 ar  
     3    1   15 1   
     4    2    3 1   
     5    2   10 ar  
     6    3    4 1   
     7    3    5 1   
     8    3    8 1   
     9    4   16 1   
    10    4   17 1   
    11    4   18 1   
    12    5    6 1   
    13    5   19 1   
    14    5   20 1   
    15    6    7 1   
    16    6   22 1   
    17    6   23 1   
    18    7    8 1   
    19    7   24 1   
    20    8    9 1   
    21    8   21 1   
    22    9   10 1   
    23    9   25 1   
    24   10   11 ar  
    25   11   12 ar  
    26   11   26 1   
    27   12   13 ar  
    28   12   27 1   
    29   13   14 1   
    30   14   28 1   
@<TRIPOS>SUBSTRUCTURE
     1 NHG         1 TEMP              0 ****  ****    0 ROOT
