@<TRIPOS>MOLECULE
NHG
   28    27     1     0     0
SMALL
bcc


@<TRIPOS>ATOM
      1 CW2        -1.8620   -0.1480   -0.2690 c1        1 NHG     -0.167000
      2 CW3        -0.4750   -0.1480   -0.2690 c1        1 NHG     -0.085000
      3 CW7         0.5260   -0.1480    0.8280 c2        1 NHG     -0.028000
      4 CK2         0.4170   -1.4260    1.6560 c3        1 NHG     -0.197000
      5 CW9         0.3630    1.1030    1.7300 c3        1 NHG     -0.157000
      6 CK1         1.5540    1.6270    1.8000 c3        1 NHG     -0.083000
      7 NW2         2.2880    1.2110    0.4890 n3        1 NHG     -0.281000
      8 CW8         1.8770   -0.0350    0.2160 c3        1 NHG      0.044000
      9 NW1         1.7390   -0.2220   -1.1960 n3        1 NHG     -0.276000
     10 CW4         0.2450   -0.2410   -1.5170 c2        1 NHG     -0.009000
     11 CW5        -0.4520   -0.3310   -2.7130 c1        1 NHG     -0.120000
     12 CW6        -1.8560   -0.3310   -2.7100 c1        1 NHG     -0.134000
     13 CW1        -2.5650   -0.2390   -1.4820 c1        1 NHG      0.050000
     14 OW1        -3.9760   -0.1950   -1.4850 oh        1 NHG     -0.253000
     15 HW2        -2.3500   -0.0850    0.5740 ha        1 NHG      0.136000
     16 HK21        1.1260   -1.4400    2.3260 hc        1 NHG      0.081333
     17 HK22       -0.4510   -1.4530    2.1000 hc        1 NHG      0.081333
     18 HK23        0.5080   -2.2020    1.0700 hc        1 NHG      0.081333
     19 HW91        0.0550    0.8420    2.6190 hc        1 NHG      0.093500
     20 HW92       -0.2630    1.7330    1.3260 hc        1 NHG      0.093500
     21 HW8         2.4880   -0.6940    0.5980 h2        1 NHG      0.107000
     22 HK11        1.4900    2.6000    1.8540 h1        1 NHG      0.080000
     23 HK12        2.0300    1.2780    2.5770 h1        1 NHG      0.080000
     24 HA          2.0400    1.7680   -0.1890 hn        1 NHG      0.170000
     25 HW1         2.1120   -1.0190   -1.4350 hn        1 NHG      0.184000
     26 HW5         0.0340   -0.3940   -3.5570 ha        1 NHG      0.142000
     27 HW6        -2.3460   -0.3940   -3.5520 ha        1 NHG      0.151000
     28 HB         -4.2980   -1.0170   -1.3890 ho        1 NHG      0.215000
@<TRIPOS>BOND
     1    1    2 1   
     2    1   15 1   
     3    2   10 1   
     4    3    4 1   
     5    3    5 1   
     6    3    8 1   
     7    4   16 1   
     8    4   17 1   
     9    4   18 1   
    10    5    6 1   
    11    5   19 1   
    12    5   20 1   
    13    6    7 1   
    14    6   22 1   
    15    6   23 1   
    16    7    8 1   
    17    7   24 1   
    18    8    9 1   
    19    8   21 1   
    20    9   10 1   
    21    9   25 1   
    22   10   11 1   
    23   11   26 1   
    24   12   13 1   
    25   12   27 1   
    26   13   14 1   
    27   14   28 1   
@<TRIPOS>SUBSTRUCTURE
     1 NHG         1 TEMP              0 ****  ****    0 ROOT
