@<TRIPOS>MOLECULE
NHH
   36    36     1     0     0
SMALL
bcc


@<TRIPOS>ATOM
      1 N7         -0.0780   -0.0450    0.5690 n4        1 NHH     -0.799100
      2 C8          1.3980    0.0090    0.3980 c2        1 NHH      0.485100
      3 N8          2.1970    0.2310    1.6410 n4        1 NHH     -0.799100
      4 N6          1.8830   -0.1450   -0.8260 ne        1 NHH     -0.225700
      5 N5          3.1830   -0.1340   -1.0430 ne        1 NHH     -0.530700
      6 C4          3.7030   -0.2040   -2.2720 c2        1 NHH      0.654300
      7 C5          5.2020   -0.1270   -2.3620 c3        1 NHH     -0.185200
      8 C6          5.8060   -1.0510   -3.3950 c3        1 NHH     -0.185200
      9 C3          2.9890   -0.2100   -3.5840 c3        1 NHH     -0.185200
     10 C2          3.6400   -1.0080   -4.7000 c3        1 NHH     -0.185200
     11 C1          5.1330   -0.9930   -4.7390 c2        1 NHH      0.654300
     12 N1          5.9380   -1.0600   -5.8030 ne        1 NHH     -0.530700
     13 N2          5.4750   -1.0650   -7.0370 ne        1 NHH     -0.225700
     14 C7          6.2940   -1.2160   -8.0680 c2        1 NHH      0.485100
     15 N3          7.7720   -1.4180   -7.9970 n4        1 NHH     -0.799100
     16 N4          5.7030   -1.1790   -9.4320 n4        1 NHH     -0.799100
     17 HN71       -0.5380   -0.1990   -0.3510 hn        1 NHH      0.509800
     18 HN72       -0.3430   -0.8290    1.1920 hn        1 NHH      0.509800
     19 HN81        2.7350    1.1120    1.5430 hn        1 NHH      0.509800
     20 HN82        2.8700   -0.5500    1.7520 hn        1 NHH      0.509800
     21 H51         5.4500    0.9510   -2.6050 hc        1 NHH      0.131950
     22 H52         5.7040   -0.3480   -1.3740 hc        1 NHH      0.131950
     23 H61         6.9100   -0.8150   -3.4570 hc        1 NHH      0.131950
     24 H62         5.7350   -2.1270   -3.0500 hc        1 NHH      0.131950
     25 H31         1.9290   -0.5860   -3.4870 hc        1 NHH      0.131950
     26 H32         2.9080    0.8760   -3.9000 hc        1 NHH      0.131950
     27 H21         3.3410   -2.0980   -4.6030 hc        1 NHH      0.131950
     28 H22         3.1880   -0.6460   -5.6690 hc        1 NHH      0.131950
     29 HN31        8.2290   -1.4790   -8.9200 hn        1 NHH      0.509800
     30 HN32        7.9690   -2.2930   -7.4770 hn        1 NHH      0.509800
     31 HN41        5.8730   -2.0740   -9.9250 hn        1 NHH      0.509800
     32 HN42        4.6740   -1.0390   -9.3710 hn        1 NHH      0.509800
     33 H73        -0.4310    0.8480    0.9560 hn        1 NHH      0.509800
     34 H83         1.6260    0.2910    2.4970 hn        1 NHH      0.509800
     35 H33         8.1960   -0.6280   -7.4760 hn        1 NHH      0.509800
     36 H43         6.0990   -0.3950   -9.9790 hn        1 NHH      0.509800
@<TRIPOS>BOND
     1    1    2 1   
     2    1   17 1   
     3    1   18 1   
     4    1   33 1   
     5    2    3 1   
     6    2    4 2   
     7    3   19 1   
     8    3   20 1   
     9    3   34 1   
    10    4    5 1   
    11    5    6 2   
    12    6    7 1   
    13    6    9 1   
    14    7    8 1   
    15    7   21 1   
    16    7   22 1   
    17    8   11 1   
    18    8   23 1   
    19    8   24 1   
    20    9   10 1   
    21    9   25 1   
    22    9   26 1   
    23   10   11 1   
    24   10   27 1   
    25   10   28 1   
    26   11   12 2   
    27   12   13 1   
    28   13   14 2   
    29   14   15 1   
    30   14   16 1   
    31   15   29 1   
    32   15   30 1   
    33   15   35 1   
    34   16   31 1   
    35   16   32 1   
    36   16   36 1   
@<TRIPOS>SUBSTRUCTURE
     1 NHH         1 TEMP              0 ****  ****    0 ROOT
