@<TRIPOS>MOLECULE
NHH
   32    32     1     0     0
SMALL
bcc


@<TRIPOS>ATOM
      1 N7          0.0740   -0.4120    0.4580 nh        1 NHH     -0.900800
      2 C8          1.4440   -0.0460    0.2860 c2        1 NHH      0.778100
      3 N8          2.0670    0.5690    1.3990 nh        1 NHH     -0.900800
      4 N6          1.9920   -0.2780   -0.9210 ne        1 NHH     -0.557700
      5 N5          3.3150   -0.1790   -1.0670 ne        1 NHH     -0.431700
      6 C4          3.8570   -0.1150   -2.2530 c2        1 NHH      0.414300
      7 C5          5.3620   -0.0490   -2.3540 c3        1 NHH     -0.130200
      8 C6          5.8920   -1.1390   -3.2660 c3        1 NHH     -0.130200
      9 C3          3.1850   -0.0670   -3.5960 c3        1 NHH     -0.130200
     10 C2          3.7280   -1.1340   -4.5290 c3        1 NHH     -0.130200
     11 C1          5.2260   -1.0800   -4.6190 c2        1 NHH      0.414300
     12 N1          5.9830   -1.0150   -5.6820 ne        1 NHH     -0.431700
     13 N2          5.4470   -0.9220   -6.9010 ne        1 NHH     -0.557700
     14 C7          6.2190   -1.1530   -7.9790 c2        1 NHH      0.778100
     15 N3          7.4980   -1.7630   -7.9930 nh        1 NHH     -0.900800
     16 N4          5.6820   -0.7930   -9.2520 nh        1 NHH     -0.900800
     17 HN71       -0.4690    0.2940    0.9090 hn        1 NHH      0.404550
     18 HN72       -0.3590   -0.7330   -0.3850 hn        1 NHH      0.404550
     19 HN81        3.0630    0.5330    1.3930 hn        1 NHH      0.404550
     20 HN82        1.6730    0.3550    2.2880 hn        1 NHH      0.404550
     21 H51         5.8550   -0.1460   -1.3510 hc        1 NHH      0.060700
     22 H52         5.6300    0.9600   -2.7680 hc        1 NHH      0.060700
     23 H61         5.6720   -2.1470   -2.8230 hc        1 NHH      0.060700
     24 H62         7.0060   -1.0370   -3.3400 hc        1 NHH      0.060700
     25 H31         3.3720    0.9490   -4.0380 hc        1 NHH      0.060700
     26 H32         2.0740   -0.1960   -3.5160 hc        1 NHH      0.060700
     27 H21         3.4430   -2.1510   -4.1440 hc        1 NHH      0.060700
     28 H22         3.2410   -1.0100   -5.5320 hc        1 NHH      0.060700
     29 HN31        8.0700   -1.5480   -8.7790 hn        1 NHH      0.404550
     30 HN32        7.9900   -1.7220   -7.1270 hn        1 NHH      0.404550
     31 HN41        4.7350   -0.4770   -9.2060 hn        1 NHH      0.404550
     32 HN42        5.8050   -1.5010   -9.9450 hn        1 NHH      0.404550
@<TRIPOS>BOND
     1    1    2 1   
     2    1   17 1   
     3    1   18 1   
     4    2    3 1   
     5    2    4 2   
     6    3   19 1   
     7    3   20 1   
     8    4    5 1   
     9    5    6 2   
    10    6    7 1   
    11    6    9 1   
    12    7    8 1   
    13    7   21 1   
    14    7   22 1   
    15    8   11 1   
    16    8   23 1   
    17    8   24 1   
    18    9   10 1   
    19    9   25 1   
    20    9   26 1   
    21   10   11 1   
    22   10   27 1   
    23   10   28 1   
    24   11   12 2   
    25   12   13 1   
    26   13   14 2   
    27   14   15 1   
    28   14   16 1   
    29   15   29 1   
    30   15   30 1   
    31   16   31 1   
    32   16   32 1   
@<TRIPOS>SUBSTRUCTURE
     1 NHH         1 TEMP              0 ****  ****    0 ROOT
