@<TRIPOS>MOLECULE
NHH
   36    36     1     0     0
SMALL
bcc


@<TRIPOS>ATOM
      1 N7         -0.0760   -0.0210    0.5680 nz        1 NHH     -0.799100
      2 C8          1.4000    0.0310    0.3960 c2        1 NHH      0.485100
      3 N8          2.1990    0.2580    1.6370 nz        1 NHH     -0.799100
      4 N6          1.8840   -0.1290   -0.8280 ne        1 NHH     -0.225700
      5 N5          3.1840   -0.1210   -1.0450 ne        1 NHH     -0.530700
      6 C4          3.7040   -0.1970   -2.2740 c2        1 NHH      0.654300
      7 C5          5.2030   -0.1220   -2.3650 c3        1 NHH     -0.185200
      8 C6          5.8060   -1.0520   -3.3930 c3        1 NHH     -0.185200
      9 C3          2.9890   -0.2080   -3.5860 c3        1 NHH     -0.185200
     10 C2          3.6390   -1.0110   -4.6980 c3        1 NHH     -0.185200
     11 C1          5.1320   -1.0000   -4.7370 c2        1 NHH      0.654300
     12 N1          5.9370   -1.0730   -5.8010 ne        1 NHH     -0.530700
     13 N2          5.4730   -1.0830   -7.0350 ne        1 NHH     -0.225700
     14 C7          6.2920   -1.2390   -8.0660 c2        1 NHH      0.485100
     15 N3          7.7710   -1.4410   -7.9940 nz        1 NHH     -0.799100
     16 N4          5.7010   -1.2090   -9.4300 nz        1 NHH     -0.799100
     17 HN71       -0.4290    0.8740    0.9500 hn        1 NHH      0.509800
     18 HN72       -0.3420   -0.8010    1.1940 hn        1 NHH      0.509800
     19 HN81        2.7370    1.1380    1.5360 hn        1 NHH      0.509800
     20 HN82        2.8710   -0.5230    1.7520 hn        1 NHH      0.509800
     21 H51         5.7050   -0.3410   -1.3750 hc        1 NHH      0.131950
     22 H52         5.4520    0.9540   -2.6120 hc        1 NHH      0.131950
     23 H61         6.9100   -0.8180   -3.4560 hc        1 NHH      0.131950
     24 H62         5.7320   -2.1270   -3.0440 hc        1 NHH      0.131950
     25 H31         1.9290   -0.5810   -3.4870 hc        1 NHH      0.131950
     26 H32         2.9100    0.8770   -3.9060 hc        1 NHH      0.131950
     27 H21         3.1880   -0.6530   -5.6680 hc        1 NHH      0.131950
     28 H22         3.3390   -2.1000   -4.5960 hc        1 NHH      0.131950
     29 HN31        8.1950   -0.6470   -7.4780 hn        1 NHH      0.509800
     30 HN32        8.2270   -1.5080   -8.9160 hn        1 NHH      0.509800
     31 HN41        5.8700   -2.1060   -9.9190 hn        1 NHH      0.509800
     32 HN42        4.6720   -1.0670   -9.3690 hn        1 NHH      0.509800
     33 H73        -0.5370   -0.1790   -0.3520 hn        1 NHH      0.509800
     34 H83         1.6280    0.3220    2.4930 hn        1 NHH      0.509800
     35 H33         7.9670   -2.3130   -7.4680 hn        1 NHH      0.509800
     36 H43         6.0980   -0.4270   -9.9800 hn        1 NHH      0.509800
@<TRIPOS>BOND
     1    1    2 1   
     2    1   17 1   
     3    1   18 1   
     4    1   33 1   
     5    2    3 1   
     6    2    4 2   
     7    3   19 1   
     8    3   20 1   
     9    3   34 1   
    10    4    5 1   
    11    5    6 2   
    12    6    7 1   
    13    6    9 1   
    14    7    8 1   
    15    7   21 1   
    16    7   22 1   
    17    8   11 1   
    18    8   23 1   
    19    8   24 1   
    20    9   10 1   
    21    9   25 1   
    22    9   26 1   
    23   10   11 1   
    24   10   27 1   
    25   10   28 1   
    26   11   12 2   
    27   12   13 1   
    28   13   14 2   
    29   14   15 1   
    30   14   16 1   
    31   15   29 1   
    32   15   30 1   
    33   15   35 1   
    34   16   31 1   
    35   16   32 1   
    36   16   36 1   
@<TRIPOS>SUBSTRUCTURE
     1 NHH         1 TEMP              0 ****  ****    0 ROOT
