@<TRIPOS>MOLECULE
NHI
   38    40     1     0     0
SMALL
bcc


@<TRIPOS>ATOM
      1 C01         6.6250   -1.9600   -0.2220 c         1 NHI      0.908200
      2 O01         7.6670   -1.6270   -0.8580 o         1 NHI     -0.836800
      3 N02         0.5950    0.9270    0.0880 nb        1 NHI     -0.794000
      4 O02         6.4470   -3.1030    0.2860 o         1 NHI     -0.836800
      5 N03        -1.5070    2.2100   -0.0990 nb        1 NHI     -0.758000
      6 C05        -5.1230    0.1760   -0.9030 ca        1 NHI     -0.105500
      7 C06        -5.6090   -0.8060   -0.0370 ca        1 NHI     -0.126600
      8 C07        -4.6940   -1.5530    0.7130 ca        1 NHI     -0.105500
      9 C08        -3.3260   -1.3260    0.6050 ca        1 NHI     -0.156500
     10 C09        -2.8370   -0.3360   -0.2760 ca        1 NHI      0.089600
     11 C10        -3.7570    0.4140   -1.0330 ca        1 NHI     -0.156500
     12 C12        -0.7780    1.0240   -0.1190 ca        1 NHI      0.897900
     13 C13         1.2700    2.0920    0.3060 ca        1 NHI      0.710200
     14 C14         0.5850    3.3550    0.3170 ca        1 NHI     -0.503600
     15 C15        -0.7960    3.3250    0.1170 ca        1 NHI      0.473200
     16 C16         3.5430    1.0480    0.3250 ca        1 NHI      0.091600
     17 C17         4.7280    1.3450   -0.3890 ca        1 NHI     -0.167000
     18 C18         5.7030    0.3710   -0.5650 ca        1 NHI     -0.099500
     19 C19         5.5310   -0.9190   -0.0520 ca        1 NHI     -0.130600
     20 C20         4.3480   -1.2190    0.6260 ca        1 NHI     -0.099500
     21 C21         3.3590   -0.2550    0.8220 ca        1 NHI     -0.167000
     22 O25        -7.8870   -0.3680   -0.6190 o         1 NHI     -0.838300
     23 O26        -7.4880   -1.9550    0.8960 o         1 NHI     -0.838300
     24 HN01       -0.9080   -1.0030   -0.2390 hn        1 NHI      0.431800
     25 HN04        3.0440    3.0060    0.4810 hn        1 NHI      0.405800
     26 H05        -5.8510    0.7610   -1.4890 ha        1 NHI      0.149000
     27 H07        -5.0860   -2.3250    1.3940 ha        1 NHI      0.149000
     28 H08        -2.6290   -1.9280    1.2070 ha        1 NHI      0.120500
     29 H10        -3.4040    1.1930   -1.7240 ha        1 NHI      0.120500
     30 H14         1.1120    4.2960    0.4870 ha        1 NHI      0.133000
     31 H15        -1.3870    4.2600    0.1280 h4        1 NHI      0.006100
     32 H17         4.8910    2.3510   -0.8020 ha        1 NHI      0.118500
     33 H18         6.6340    0.5940   -1.1110 ha        1 NHI      0.150000
     34 H20         4.2150   -2.2420    1.0150 ha        1 NHI      0.150000
     35 H21         2.4420   -0.5220    1.3650 ha        1 NHI      0.118500
     36 N04         2.6370    2.1020    0.6120 nh        1 NHI     -0.712300
     37 N01        -1.4340   -0.1760   -0.4460 nh        1 NHI     -0.697300
     38 C11        -7.1010   -1.0600    0.0890 c         1 NHI      0.908200
@<TRIPOS>BOND
     1    1    2 1   
     2    1    4 1   
     3    1   19 1   
     4    3   12 ar  
     5    3   13 ar  
     6    5   12 ar  
     7    5   15 ar  
     8    6    7 ar  
     9    6   11 ar  
    10    6   26 1   
    11    7    8 ar  
    12    7   38 1   
    13    8    9 ar  
    14    8   27 1   
    15    9   10 ar  
    16    9   28 1   
    17   10   11 ar  
    18   10   37 1   
    19   11   29 1   
    20   12   37 1   
    21   13   14 ar  
    22   13   36 1   
    23   14   15 ar  
    24   14   30 1   
    25   15   31 1   
    26   16   17 ar  
    27   16   21 ar  
    28   16   36 1   
    29   17   18 ar  
    30   17   32 1   
    31   18   19 ar  
    32   18   33 1   
    33   19   20 ar  
    34   20   21 ar  
    35   20   34 1   
    36   21   35 1   
    37   22   38 1   
    38   23   38 1   
    39   24   37 1   
    40   25   36 1   
@<TRIPOS>SUBSTRUCTURE
     1 NHI         1 TEMP              0 ****  ****    0 ROOT
