@<TRIPOS>MOLECULE
NHI
   38    38     1     0     0
SMALL
bcc


@<TRIPOS>ATOM
      1 C01        -2.5670   -1.1930   -0.7860 c2        1 NHI      0.414000
      2 O01        -2.9820   -0.5020    0.1640 o         1 NHI     -0.522500
      3 N02        -4.2170   -1.2140   -4.1320 n7        1 NHI     -0.294000
      4 O02        -3.2290   -1.9860   -1.5040 o         1 NHI     -0.522500
      5 N03        -6.4720   -1.4740   -4.8880 n7        1 NHI     -0.194000
      6 C05        -8.2370   -5.3710   -3.8560 c2        1 NHI      0.036000
      7 C06        -8.9630   -5.8980   -2.7410 c2        1 NHI     -0.493000
      8 C07        -8.7160   -6.1710   -1.4970 c1        1 NHI      0.090000
      9 C08        -7.5190   -3.2890   -1.6980 c2        1 NHI     -0.232000
     10 C09        -6.8570   -3.4950   -2.8560 c2        1 NHI      0.034000
     11 C10        -7.3350   -4.3750   -3.9210 c2        1 NHI     -0.235000
     12 C12        -5.4460   -1.8470   -4.0190 cz        1 NHI      0.279000
     13 C13        -3.9750   -0.1720   -5.0950 c2        1 NHI      0.215000
     14 C14        -5.1170    0.1580   -5.9460 c2        1 NHI     -0.377000
     15 C15        -6.3170   -0.4900   -5.8340 c1        1 NHI     -0.180000
     16 C16        -1.6790    0.1820   -4.4580 c2        1 NHI      0.017000
     17 C17        -0.5240   -0.2500   -5.0090 c2        1 NHI     -0.276000
     18 C18        -0.2390   -1.7700   -0.4270 c1        1 NHI      0.210000
     19 C19        -1.0380   -1.0420   -1.1700 c2        1 NHI     -0.526000
     20 C20        -0.6890   -0.1930   -2.2370 c1        1 NHI     -0.028000
     21 C21        -1.7000    0.5620   -2.9900 c3        1 NHI     -0.190000
     22 O25       -10.3970   -7.3190   -4.0680 o         1 NHI     -0.501000
     23 O26       -11.4000   -5.8220   -2.7120 o         1 NHI     -0.501000
     24 HN01       -4.9350   -2.9010   -2.3160 hn        1 NHI      0.292000
     25 HN04       -3.5040   -1.4260   -3.4470 hn        1 NHI      0.289000
     26 H05        -8.4730   -5.9030   -4.8040 ha        1 NHI      0.135000
     27 H07        -8.4690   -3.8020   -1.4880 ha        1 NHI      0.141000
     28 H08        -7.1500   -2.6250   -0.9050 ha        1 NHI      0.141000
     29 H10        -6.8650   -4.2060   -4.9100 ha        1 NHI      0.118000
     30 H14        -4.9850    0.9530   -6.6860 ha        1 NHI      0.147000
     31 H15        -7.3460   -1.9500   -4.8250 hn        1 NHI      0.264000
     32 H17        -0.4390   -0.5320   -6.0640 ha        1 NHI      0.112500
     33 H18         0.3900   -0.3350   -4.4080 ha        1 NHI      0.112500
     34 H20        -1.4010    1.6480   -2.9120 hc        1 NHI      0.096000
     35 H21        -2.7420    0.4870   -2.5720 hc        1 NHI      0.096000
     36 N04        -2.8190    0.4330   -5.2370 n2        1 NHI     -0.300000
     37 N01        -5.5920   -2.8630   -3.0790 n7        1 NHI     -0.288000
     38 C11       -10.4220   -6.4060   -3.2170 c2        1 NHI      0.421000
@<TRIPOS>BOND
     1    1    2 1   
     2    1    4 1   
     3    1   19 1   
     4    3   12 1   
     5    3   13 1   
     6    3   25 1   
     7    5   12 1   
     8    5   15 1   
     9    5   31 1   
    10    6    7 1   
    11    6   11 1   
    12    6   26 1   
    13    7    8 1   
    14    7   38 1   
    15    9   10 1   
    16    9   27 1   
    17    9   28 1   
    18   10   11 1   
    19   10   37 1   
    20   11   29 1   
    21   12   37 1   
    22   13   14 1   
    23   13   36 1   
    24   14   15 1   
    25   14   30 1   
    26   16   17 1   
    27   16   21 1   
    28   16   36 1   
    29   17   32 1   
    30   17   33 1   
    31   18   19 1   
    32   19   20 1   
    33   20   21 1   
    34   21   34 1   
    35   21   35 1   
    36   22   38 1   
    37   23   38 1   
    38   24   37 1   
@<TRIPOS>SUBSTRUCTURE
     1 NHI         1 TEMP              0 ****  ****    0 ROOT
