@<TRIPOS>MOLECULE
NHI
   38    33     1     0     0
SMALL
bcc


@<TRIPOS>ATOM
      1 C01         6.5950    1.6820   -1.4480 c1        1 NHI      0.357000
      2 N01        -1.7870   -0.6750    1.7420 n3        1 NHI     -0.212000
      3 O01         6.9380    0.5540   -1.8900 o         1 NHI     -0.569000
      4 N02        -0.2060    0.9990    1.0350 n1        1 NHI     -0.307000
      5 O02         7.4390    2.6150   -1.3760 os        1 NHI     -0.567000
      6 N03        -2.0340    0.4700   -0.3620 n1        1 NHI     -0.225000
      7 N04         1.3210    2.7410    0.4500 n3        1 NHI     -0.237000
      8 C05        -2.9510   -3.8430    0.2330 c1        1 NHI     -0.107000
      9 C06        -4.3150   -3.7630    0.4670 c1        1 NHI     -0.107000
     10 C07        -4.8400   -2.6700    1.1370 c1        1 NHI     -0.102000
     11 C08        -4.0020   -1.6560    1.5740 c1        1 NHI     -0.193000
     12 C09        -2.6380   -1.7360    1.3410 c2        1 NHI      0.003000
     13 C10        -2.1130   -2.8290    0.6700 c2        1 NHI     -0.127000
     14 C11        -5.2370   -4.8380   -0.0650 c2        1 NHI      0.357000
     15 C12        -1.3290    0.2680    0.7860 c1        1 NHI      0.167000
     16 C13         0.2060    1.9190    0.1490 c2        1 NHI      0.180000
     17 C14        -0.5000    2.1220   -1.0010 c2        1 NHI     -0.324000
     18 C15        -1.6240    1.3890   -1.2490 c1        1 NHI     -0.001000
     19 C16         2.6030    2.4100   -0.0580 c2        1 NHI     -0.007000
     20 C17         3.0110    2.9060   -1.2870 c2        1 NHI     -0.150000
     21 C18         4.2950    2.6550   -1.7440 c1        1 NHI     -0.105000
     22 C19         5.1730    1.9100   -0.9720 c1        1 NHI     -0.104000
     23 C20         4.7660    1.4140    0.2570 c1        1 NHI     -0.100000
     24 C21         3.4810    1.6640    0.7140 c1        1 NHI     -0.183000
     25 O25        -5.6150   -4.8050   -1.2650 o         1 NHI     -0.573000
     26 O26        -5.6400   -5.7540    0.6980 o         1 NHI     -0.573000
     27 HN01       -1.5390   -0.5940    2.6180 hn        1 NHI      0.209000
     28 HN04        1.2160    3.4760    0.9780 hn        1 NHI      0.211000
     29 H05        -2.5820   -4.6120   -0.2380 ha        1 NHI      0.150000
     30 H07        -5.7970   -2.6250    1.3220 ha        1 NHI      0.148000
     31 H08        -4.3720   -0.8860    2.0470 ha        1 NHI      0.106000
     32 H10        -1.1530   -2.8860    0.5060 ha        1 NHI      0.134000
     33 H14        -0.2010    2.7920   -1.6470 ha        1 NHI      0.164000
     34 H15        -2.1290    1.5340   -2.0700 ha        1 NHI      0.150000
     35 H17         2.3970    3.4400   -1.8250 ha        1 NHI      0.124000
     36 H18         4.5820    3.0050   -2.6100 ha        1 NHI      0.153000
     37 H20         5.3840    0.8890    0.8000 ha        1 NHI      0.152000
     38 H21         3.1960    1.3190    1.5820 ha        1 NHI      0.111000
@<TRIPOS>BOND
     1    1    3 1   
     2    1   22 1   
     3    2   12 1   
     4    2   15 1   
     5    2   27 1   
     6    4   16 1   
     7    6   15 1   
     8    7   16 1   
     9    7   19 1   
    10    7   28 1   
    11    8   13 1   
    12    8   29 1   
    13    9   10 1   
    14    9   14 1   
    15   10   30 1   
    16   11   12 1   
    17   11   31 1   
    18   12   13 1   
    19   13   32 1   
    20   14   25 1   
    21   14   26 1   
    22   16   17 1   
    23   17   18 1   
    24   17   33 1   
    25   18   34 1   
    26   19   20 1   
    27   19   24 1   
    28   20   21 1   
    29   20   35 1   
    30   21   36 1   
    31   22   23 1   
    32   23   37 1   
    33   24   38 1   
@<TRIPOS>SUBSTRUCTURE
     1 NHI         1 TEMP              0 ****  ****    0 ROOT
