@<TRIPOS>MOLECULE
NHI
   38    37     1     0     0
SMALL
bcc


@<TRIPOS>ATOM
      1 C01         2.9220    0.7380   -0.2540 c2        1 NHI      0.434000
      2 O01         3.6330   -0.2560   -0.4770 o         1 NHI     -0.478000
      3 N02        -5.1480   -2.0790   -4.4110 n3        1 NHI     -0.230000
      4 O02         3.1750    1.9530   -0.2960 o         1 NHI     -0.478000
      5 N03        -7.0450   -1.8440   -5.8350 n3        1 NHI     -0.156000
      6 C05        -9.2480   -6.2420   -4.1290 c2        1 NHI      0.046000
      7 C06       -10.5170   -5.9880   -3.5120 c2        1 NHI     -0.510000
      8 C07       -10.9380   -5.7080   -2.3220 c1        1 NHI      0.076000
      9 C08        -9.5310   -3.2200   -4.4820 c2        1 NHI     -0.197000
     10 C09        -8.3850   -3.8970   -4.2690 c2        1 NHI     -0.006000
     11 C10        -8.2920   -5.3510   -4.4380 c2        1 NHI     -0.242000
     12 C12        -6.4790   -2.3940   -4.6970 cz        1 NHI      0.205000
     13 C13        -4.4720   -1.0020   -5.0610 c2        1 NHI      0.002000
     14 C14        -5.1240   -0.5280   -6.2800 c2        1 NHI     -0.348000
     15 C15        -6.3730   -0.9510   -6.6450 c1        1 NHI     -0.195000
     16 C16        -2.7240    0.3440   -3.8790 c1        1 NHI     -0.209000
     17 C17        -1.3180    0.5020   -3.6410 c3        1 NHI     -0.116000
     18 C18         0.5810    0.2990   -0.8040 c1        1 NHI      0.065000
     19 C19         1.3800    0.3810    0.2080 c2        1 NHI     -0.419000
     20 C20         1.2880    0.2470    1.5830 c1        1 NHI      0.022000
     21 C21         1.1870    0.1270    2.7720 c1        1 NHI     -0.340000
     22 O25       -12.0210   -7.4000   -4.7820 o         1 NHI     -0.489000
     23 O26       -12.1290   -5.1680   -5.1260 o         1 NHI     -0.489000
     24 HN01       -6.6430   -3.7950   -3.2060 hn        1 NHI      0.221000
     25 HN04       -4.7460   -2.4470   -3.5770 hn        1 NHI      0.229000
     26 H05        -9.0810   -7.3110   -4.3710 ha        1 NHI      0.123000
     27 H07       -10.4530   -3.7610   -4.7700 ha        1 NHI      0.156000
     28 H08        -9.6240   -2.1330   -4.3610 ha        1 NHI      0.156000
     29 H10        -7.3530   -5.7130   -4.8910 ha        1 NHI      0.112000
     30 H14        -4.5790    0.1900   -6.9000 ha        1 NHI      0.145000
     31 H15        -7.9670   -2.1240   -6.0970 hn        1 NHI      0.263000
     32 H17        -0.7080   -0.2020   -4.2670 hc        1 NHI      0.108000
     33 H18        -1.0170    1.5530   -3.8820 hc        1 NHI      0.108000
     34 H20         1.1080    0.0240    3.8190 ha        1 NHI      0.199000
     35 H21        -1.0760    0.3130   -2.5560 hc        1 NHI      0.108000
     36 N04        -3.7520   -0.1030   -4.2880 n2        1 NHI     -0.038000
     37 N01        -7.1920   -3.2400   -3.8300 n3        1 NHI     -0.268000
     38 C11       -11.7050   -6.2110   -4.5940 c2        1 NHI      0.429000
@<TRIPOS>BOND
     1    1    2 1   
     2    1    4 1   
     3    1   19 1   
     4    3   12 1   
     5    3   13 1   
     6    3   25 1   
     7    5   12 1   
     8    5   15 1   
     9    5   31 1   
    10    6    7 1   
    11    6   11 1   
    12    6   26 1   
    13    7    8 1   
    14    7   38 1   
    15    9   10 1   
    16    9   27 1   
    17    9   28 1   
    18   10   11 1   
    19   10   37 1   
    20   11   29 1   
    21   12   37 1   
    22   13   14 1   
    23   13   36 1   
    24   14   15 1   
    25   14   30 1   
    26   16   17 1   
    27   16   36 1   
    28   17   32 1   
    29   17   33 1   
    30   17   35 1   
    31   18   19 1   
    32   19   20 1   
    33   20   21 1   
    34   21   34 1   
    35   22   38 1   
    36   23   38 1   
    37   24   37 1   
@<TRIPOS>SUBSTRUCTURE
     1 NHI         1 TEMP              0 ****  ****    0 ROOT
