@<TRIPOS>MOLECULE
NHJ
   42    41     1     0     0
SMALL
bcc


@<TRIPOS>ATOM
      1 N01         0.2400    0.4930   -0.9440 n3        1 NHJ     -0.228000
      2 N02         0.2700   -0.0420   -3.3250 n2        1 NHJ     -0.147000
      3 N03         0.7160    2.2250   -2.6530 n3        1 NHJ     -0.162000
      4 N05         4.4240   -1.8190    3.5040 n         1 NHJ     -0.396000
      5 C06         2.6090    0.5230   -0.4690 c2        1 NHJ     -0.596000
      6 C07         3.2270    0.6690   -1.6330 c1        1 NHJ      0.424000
      7 C08         2.5610   -1.6730    1.8520 c3        1 NHJ     -0.198000
      8 C09         1.5250   -0.6690    2.1870 c2        1 NHJ     -0.008000
      9 C10         0.9310    0.1970    1.3540 c2        1 NHJ     -0.251000
     10 C11         1.2380    0.3970   -0.0690 c2        1 NHJ      0.340000
     11 C12         0.4240    0.8140   -2.3830 c2        1 NHJ      0.055000
     12 C13        -2.1180    2.0100   -3.9010 c1        1 NHJ      0.066000
     13 C14        -1.0900    2.7680   -4.2520 c2        1 NHJ     -0.246000
     14 C15         0.0740    3.0250   -3.4640 c1        1 NHJ      0.036000
     15 C16        -4.2540    1.4290   -3.0000 c2        1 NHJ     -0.031000
     16 C17        -4.8280    2.6360   -2.8080 c2        1 NHJ     -0.163000
     17 C18        -6.1870   -2.5990   -2.4140 c1        1 NHJ      0.301000
     18 C19        -5.3730   -1.9660   -1.5870 c2        1 NHJ     -0.489000
     19 C20        -4.5660   -0.7930   -1.8430 c2        1 NHJ     -0.058000
     20 C21        -4.9890    0.2070   -2.6350 c2        1 NHJ     -0.042000
     21 C22        -3.2130   -0.7930   -1.1350 c3        1 NHJ      0.466000
     22 O24         4.5410   -0.3110    1.8020 o         1 NHJ     -0.396000
     23 F25        -2.1380   -1.1900   -1.8980 f         1 NHJ     -0.180000
     24 F26        -2.7890    0.4260   -0.6470 f         1 NHJ     -0.180000
     25 F27        -3.1260   -1.6010   -0.0290 f         1 NHJ     -0.180000
     26 HN01       -0.7170    0.4070   -0.6320 hn        1 NHJ      0.285000
     27 HN04       -0.0090   -0.9790   -3.1230 hn        1 NHJ      0.210000
     28 HN05        1.2050   -0.6750    3.2500 ha        1 NHJ      0.166000
     29 HN0A        5.3220   -1.5500    3.8350 hn        1 NHJ      0.246000
     30 H06         3.3680    0.4990    0.3850 ha        1 NHJ      0.299000
     31 H07         2.6760   -1.8020    0.7420 hc        1 NHJ      0.131500
     32 H09         2.2540   -2.6700    2.2740 hc        1 NHJ      0.131500
     33 H10         0.1300    0.8580    1.7440 ha        1 NHJ      0.181000
     34 H14        -1.1010    3.2860   -5.2330 ha        1 NHJ      0.214000
     35 H15         1.5360    2.5760   -2.1990 hn        1 NHJ      0.270000
     36 H17        -4.3400    3.5840   -3.0790 ha        1 NHJ      0.147500
     37 H18        -5.8310    2.7270   -2.3690 ha        1 NHJ      0.147500
     38 H19        -5.3000   -2.3970   -0.5590 ha        1 NHJ      0.216000
     39 H21        -6.0020    0.1490   -3.0800 ha        1 NHJ      0.171000
     40 N04        -3.0060    1.2010   -3.6190 n2        1 NHJ     -0.112000
     41 H053        3.9650   -2.5770    3.9420 hn        1 NHJ      0.246000
     42 C23         3.9180   -1.2240    2.3910 c2        1 NHJ      0.313000
@<TRIPOS>BOND
     1    1   10 1   
     2    1   11 1   
     3    1   26 1   
     4    2   11 1   
     5    2   27 1   
     6    3   11 1   
     7    3   14 1   
     8    3   35 1   
     9    4   29 1   
    10    4   41 1   
    11    4   42 1   
    12    5    6 1   
    13    5   10 1   
    14    5   30 1   
    15    7    8 1   
    16    7   31 1   
    17    7   32 1   
    18    7   42 1   
    19    8    9 1   
    20    8   28 1   
    21    9   10 1   
    22    9   33 1   
    23   12   13 1   
    24   12   40 1   
    25   13   14 1   
    26   13   34 1   
    27   15   16 1   
    28   15   20 1   
    29   15   40 1   
    30   16   36 1   
    31   16   37 1   
    32   17   18 1   
    33   18   19 1   
    34   18   38 1   
    35   19   20 1   
    36   19   21 1   
    37   20   39 1   
    38   21   23 1   
    39   21   24 1   
    40   21   25 1   
    41   22   42 1   
@<TRIPOS>SUBSTRUCTURE
     1 NHJ         1 TEMP              0 ****  ****    0 ROOT
