@<TRIPOS>MOLECULE
NHJ
   44    43     1     0     0
SMALL
bcc


@<TRIPOS>ATOM
      1 N01       737.7900  -11.5830  231.2790 n4        1 NHJ      0.005000
      2 N02       740.1770  -11.6200  230.7790 n2        1 NHJ     -0.141500
      3 N03       738.6030  -10.5130  229.2380 n2        1 NHJ     -0.141500
      4 N05       732.4350   -9.3480  228.2630 n         1 NHJ     -0.374000
      5 C06       737.8830  -10.0250  233.1790 c2        1 NHJ     -0.578000
      6 C07       737.5980   -9.0090  234.0340 c1        1 NHJ      0.633000
      7 C08       734.3790   -9.1090  229.7940 c3        1 NHJ     -0.264000
      8 C09       735.5290   -9.8950  230.2360 c2        1 NHJ      0.220000
      9 C10       736.1780   -9.6700  231.4420 c2        1 NHJ     -0.302000
     10 C11       737.2600  -10.3860  231.9660 c2        1 NHJ      0.288000
     11 C12       738.9370  -11.2070  230.3720 c2        1 NHJ     -0.053000
     12 C13       741.1810  -11.3310  229.9210 c2        1 NHJ      0.007000
     13 C14       740.9620  -10.6470  228.7070 c2        1 NHJ     -0.127000
     14 C15       739.6390  -10.2490  228.4130 c2        1 NHJ      0.007000
     15 C16     -1293.7810   18.3130 -406.0210 c2        1 NHJ     -0.084000
     16 C17     -1293.0320   17.2380 -406.7820 c3        1 NHJ     -0.428000
     17 C18     -1291.6210   17.1770 -406.6260 c1        1 NHJ      0.351000
     18 C19     -1290.8100   18.5080 -404.5560 c1        1 NHJ      0.373000
     19 C20     -1289.4180   18.6540 -404.4870 c2        1 NHJ     -0.716000
     20 C21     -1288.5000   18.2160 -405.3880 c1        1 NHJ      0.629000
     21 C22     -1288.9400   19.4090 -403.1960 c3        1 NHJ      0.537000
     22 O24       734.0380  -10.9880  228.3430 o         1 NHJ     -0.376000
     23 F25     -1287.5810   19.5380 -403.1470 f         1 NHJ     -0.114000
     24 F26     -1289.4490   20.6700 -403.1200 f         1 NHJ     -0.114000
     25 F27     -1289.3050   18.7590 -402.0560 f         1 NHJ     -0.114000
     26 HN01      738.1320  -12.2720  231.9780 hn        1 NHJ      0.302000
     27 HN04      742.1920  -11.6740  230.2370 h4        1 NHJ      0.232000
     28 HN05      739.3830   -9.7000  227.4800 h4        1 NHJ      0.232000
     29 HN0A      732.0940   -8.4750  228.5830 hn        1 NHJ      0.264000
     30 H06       738.7680  -10.6190  233.5560 ha        1 NHJ      0.264000
     31 H07       734.7600   -8.1450  229.3250 hc        1 NHJ      0.196000
     32 H09       733.7160   -8.8020  230.6520 hc        1 NHJ      0.196000
     33 H10       735.8150   -8.8270  232.0730 ha        1 NHJ      0.205000
     34 H14       741.7930  -10.4300  228.0130 ha        1 NHJ      0.222000
     35 H15       735.8460  -10.6960  229.5210 ha        1 NHJ      0.207000
     36 H17     -1293.2510   17.2760 -407.9020 hc        1 NHJ      0.237000
     37 H18     -1293.4550   16.2210 -406.4560 hc        1 NHJ      0.237000
     38 H19     -1291.1790   17.9000 -405.6320 DU        1 NHJ     -0.014000
     39 H21     -1293.4330   18.4310 -404.9700 h4        1 NHJ      0.177000
     40 N04     -1294.7320   19.0520 -406.4100 n2        1 NHJ     -0.137000
     41 H012      737.0580  -12.0360  230.7050 hn        1 NHJ      0.302000
     42 H053      731.9090   -9.8450  227.5780 hn        1 NHJ      0.264000
     43 H042    -1295.0880   18.9680 -407.3390 hn        1 NHJ      0.179000
     44 C23       733.5850   -9.8890  228.7290 c2        1 NHJ      0.311000
@<TRIPOS>BOND
     1    1   10 1   
     2    1   11 1   
     3    1   26 1   
     4    1   41 1   
     5    2   11 1   
     6    2   12 1   
     7    3   11 1   
     8    3   14 1   
     9    4   29 1   
    10    4   42 1   
    11    4   44 1   
    12    5    6 1   
    13    5   10 1   
    14    5   30 1   
    15    7    8 1   
    16    7   31 1   
    17    7   32 1   
    18    7   44 1   
    19    8    9 1   
    20    8   35 1   
    21    9   10 1   
    22    9   33 1   
    23   12   13 1   
    24   12   27 1   
    25   13   14 1   
    26   13   34 1   
    27   14   28 1   
    28   15   16 1   
    29   15   39 1   
    30   15   40 1   
    31   16   17 1   
    32   16   36 1   
    33   16   37 1   
    34   17   38 1   
    35   18   19 1   
    36   18   38 1   
    37   19   20 1   
    38   19   21 1   
    39   21   23 1   
    40   21   24 1   
    41   21   25 1   
    42   22   44 1   
    43   40   43 1   
@<TRIPOS>SUBSTRUCTURE
     1 NHJ         1 TEMP              0 ****  ****    0 ROOT
