@<TRIPOS>MOLECULE
NHJ
   41    43     1     0     0
SMALL
bcc


@<TRIPOS>ATOM
      1 N01        -1.9340    0.3030   -0.2030 nh        1 NHJ     -0.713300
      2 N02         0.1330   -0.7330    0.2820 nb        1 NHJ     -0.800000
      3 N03        -1.8640   -2.1130   -0.1390 nb        1 NHJ     -0.752000
      4 N05        -8.1930    2.0160    0.0680 n         1 NHJ     -0.675000
      5 C06        -4.1560   -0.4230   -0.9890 ca        1 NHJ     -0.150000
      6 C07        -5.5390   -0.2740   -0.9610 ca        1 NHJ     -0.077000
      7 C08        -6.1410    0.6720   -0.1240 ca        1 NHJ     -0.154600
      8 C09        -5.3430    1.4590    0.7100 ca        1 NHJ     -0.077000
      9 C10        -3.9610    1.3100    0.7050 ca        1 NHJ     -0.150000
     10 C11        -3.3430    0.3660   -0.1490 ca        1 NHJ      0.158600
     11 C12        -1.2160   -0.8940    0.0010 ca        1 NHJ      0.900900
     12 C13         0.8750   -1.8730    0.4010 ca        1 NHJ      0.706200
     13 C14         0.2830   -3.1670    0.2460 ca        1 NHJ     -0.457600
     14 C15        -1.0910   -3.2040   -0.0130 ca        1 NHJ      0.484200
     15 C16         2.9770   -0.6060    0.7460 ca        1 NHJ      0.137600
     16 C17         2.5720    0.5020    1.5220 ca        1 NHJ     -0.087000
     17 C18         3.3600    1.6480    1.5690 ca        1 NHJ     -0.122000
     18 C19         4.5620    1.7200    0.8680 ca        1 NHJ     -0.096000
     19 C20         4.9720    0.6240    0.1090 ca        1 NHJ     -0.148300
     20 C21         4.1940   -0.5300    0.0340 ca        1 NHJ     -0.128000
     21 C22         6.2960    0.6790   -0.6440 c3        1 NHJ      0.687200
     22 O24        -8.3590   -0.2100   -0.3410 o         1 NHJ     -0.609100
     23 F25         7.3710    0.2140    0.0770 f         1 NHJ     -0.236633
     24 F26         6.3290   -0.0590   -1.8020 f         1 NHJ     -0.236633
     25 F27         6.6780    1.9380   -1.0370 f         1 NHJ     -0.236633
     26 HN01       -1.4710    1.1290    0.1230 hn        1 NHJ      0.441800
     27 HN04        2.7560   -2.6130    0.4480 hn        1 NHJ      0.432800
     28 HN05       -7.6370    2.8270    0.1450 hn        1 NHJ      0.312000
     29 HN0A       -9.1770    2.1100    0.0250 hn        1 NHJ      0.312000
     30 H06        -3.7120   -1.1640   -1.6720 ha        1 NHJ      0.149000
     31 H07        -6.1760   -0.9080   -1.6000 ha        1 NHJ      0.147500
     32 H09        -5.7960    2.1890    1.3980 ha        1 NHJ      0.147500
     33 H10        -3.3530    1.9370    1.3760 ha        1 NHJ      0.149000
     34 H14         0.8670   -4.0880    0.3380 ha        1 NHJ      0.156000
     35 H15        -1.6190   -4.1690   -0.1290 h4        1 NHJ      0.032100
     36 H17         1.6330    0.4680    2.0970 ha        1 NHJ      0.158000
     37 H18         3.0300    2.5080    2.1730 ha        1 NHJ      0.144000
     38 H19         5.1830    2.6290    0.9060 ha        1 NHJ      0.154000
     39 H21         4.5430   -1.3730   -0.5850 ha        1 NHJ      0.150000
     40 C23        -7.6260    0.7810   -0.1390 c         1 NHJ      0.672700
     41 N04         2.2370   -1.8080    0.7360 nh        1 NHJ     -0.726300
@<TRIPOS>BOND
     1    1   10 1   
     2    1   11 1   
     3    1   26 1   
     4    2   11 ar  
     5    2   12 ar  
     6    3   11 ar  
     7    3   14 ar  
     8    4   28 1   
     9    4   29 1   
    10    4   40 1   
    11    5    6 ar  
    12    5   10 ar  
    13    5   30 1   
    14    6    7 ar  
    15    6   31 1   
    16    7    8 ar  
    17    7   40 1   
    18    8    9 ar  
    19    8   32 1   
    20    9   10 ar  
    21    9   33 1   
    22   12   13 ar  
    23   12   41 1   
    24   13   14 ar  
    25   13   34 1   
    26   14   35 1   
    27   15   16 ar  
    28   15   20 ar  
    29   15   41 1   
    30   16   17 ar  
    31   16   36 1   
    32   17   18 ar  
    33   17   37 1   
    34   18   19 ar  
    35   18   38 1   
    36   19   20 ar  
    37   19   21 1   
    38   20   39 1   
    39   21   23 1   
    40   21   24 1   
    41   21   25 1   
    42   22   40 2   
    43   27   41 1   
@<TRIPOS>SUBSTRUCTURE
     1 NHJ         1 TEMP              0 ****  ****    0 ROOT
