@<TRIPOS>MOLECULE
NHJ
   41    36     1     0     0
SMALL
bcc


@<TRIPOS>ATOM
      1 N01        -0.0930   -0.2040    2.5810 n3        1 NHJ     -0.232000
      2 N02        -1.4040    0.5290    0.6960 n1        1 NHJ     -0.279000
      3 N03         0.7550    1.4280    1.0230 n1        1 NHJ     -0.222000
      4 N04        -2.8070    1.3170   -1.0710 n3        1 NHJ     -0.253000
      5 N05         5.9270   -1.3710    4.8690 n         1 NHJ     -0.434000
      6 C06         1.6010   -1.8740    2.5400 c1        1 NHJ     -0.120000
      7 C07         2.8370   -2.3800    2.9120 c1        1 NHJ     -0.120000
      8 C08         3.6710   -1.6390    3.7360 c1        1 NHJ     -0.134000
      9 C09         3.2680   -0.3910    4.1870 c1        1 NHJ     -0.092000
     10 C10         2.0320    0.1150    3.8150 c1        1 NHJ     -0.120000
     11 C11         1.1990   -0.6270    2.9920 c1        1 NHJ      0.075000
     12 C12        -0.2430    0.5830    1.4080 c1        1 NHJ      0.178000
     13 C13        -1.5660    1.3080   -0.3840 c2        1 NHJ      0.178000
     14 C14        -0.5670    2.1550   -0.7690 c2        1 NHJ     -0.306000
     15 C15         0.5950    2.2080   -0.0560 c1        1 NHJ      0.014000
     16 C16        -2.9370    0.6390   -2.3100 c2        1 NHJ      0.062000
     17 C17        -3.1170   -0.7350   -2.3320 c2        1 NHJ     -0.133000
     18 C18        -3.3020   -1.3910   -3.5390 c1        1 NHJ     -0.108000
     19 C19        -3.3070   -0.6720   -4.7240 c1        1 NHJ     -0.105000
     20 C20        -3.1270    0.7020   -4.7030 c1        1 NHJ     -0.133000
     21 C21        -2.9420    1.3580   -3.4960 c2        1 NHJ     -0.131000
     22 C22        -3.1450    1.4880   -5.9960 c2        1 NHJ      0.465000
     23 C23         5.0540   -2.1520    4.0690 c2        1 NHJ      0.346000
     24 O24         5.4340   -3.2130    3.6160 o         1 NHJ     -0.373000
     25 F25        -2.4190    2.6040   -5.8500 f         1 NHJ     -0.164333
     26 F26        -2.6240    0.7420   -6.9780 f         1 NHJ     -0.164333
     27 F27        -4.4070    1.8130   -6.3030 f         1 NHJ     -0.164333
     28 HN01       -0.8260   -0.4450    3.0650 hn        1 NHJ      0.237000
     29 HN04       -3.5280    1.7410   -0.7060 hn        1 NHJ      0.239000
     30 HN05        6.7960   -1.6300    4.9860 hn        1 NHJ      0.226000
     31 HN0A        5.6240   -0.6010    5.2580 hn        1 NHJ      0.226000
     32 H06         1.0150   -2.3950    1.9610 ha        1 NHJ      0.148500
     33 H07         3.1210   -3.2580    2.5940 ha        1 NHJ      0.148500
     34 H09         3.8540    0.1300    4.7660 ha        1 NHJ      0.136000
     35 H10         1.7490    0.9930    4.1330 ha        1 NHJ      0.160000
     36 H14        -0.6840    2.7230   -1.5550 ha        1 NHJ      0.166000
     37 H15         1.3090    2.8130   -0.3310 ha        1 NHJ      0.170000
     38 H17        -3.1130   -1.2410   -1.4970 ha        1 NHJ      0.147000
     39 H18        -3.4280   -2.3580   -3.5540 ha        1 NHJ      0.146000
     40 H19        -3.4370   -1.1340   -5.5750 ha        1 NHJ      0.156000
     41 H21        -2.8160    2.3250   -3.4810 ha        1 NHJ      0.163000
@<TRIPOS>BOND
     1    1   11 1   
     2    1   12 1   
     3    1   28 1   
     4    2   13 1   
     5    3   12 1   
     6    4   13 1   
     7    4   16 1   
     8    4   29 1   
     9    5   23 1   
    10    5   30 1   
    11    5   31 1   
    12    6    7 1   
    13    6   32 1   
    14    7   33 1   
    15    8    9 1   
    16    8   23 1   
    17    9   34 1   
    18   10   11 1   
    19   10   35 1   
    20   13   14 1   
    21   14   15 1   
    22   14   36 1   
    23   15   37 1   
    24   16   17 1   
    25   16   21 1   
    26   17   18 1   
    27   17   38 1   
    28   18   39 1   
    29   19   20 1   
    30   19   40 1   
    31   20   21 1   
    32   21   41 1   
    33   22   25 1   
    34   22   26 1   
    35   22   27 1   
    36   23   24 1   
@<TRIPOS>SUBSTRUCTURE
     1 NHJ         1 TEMP              0 ****  ****    0 ROOT
