@<TRIPOS>MOLECULE
NHJ
   42    41     1     0     0
SMALL
bcc


@<TRIPOS>ATOM
      1 N01         0.6810    2.1910   -1.1360 na        1 NHJ     -0.154000
      2 N02        -1.3150    2.5810   -2.5390 na        1 NHJ     -0.334000
      3 N03         0.8000    3.7450   -2.9010 n2        1 NHJ     -0.171000
      4 N05         5.1400   -1.5740    4.8210 nt        1 NHJ     -0.405000
      5 C06         0.7850   -0.1010   -2.0470 c2        1 NHJ     -0.452000
      6 C07         0.8150   -1.4000   -1.6890 c1        1 NHJ      0.452000
      7 C08         3.9700   -0.8260    2.7670 c3        1 NHJ     -0.119000
      8 C09         2.6160   -0.4090    2.3330 c2        1 NHJ     -0.307000
      9 C10         2.1480    0.0340    1.2200 c1        1 NHJ      0.057000
     10 C11         0.9920    0.9210   -1.0500 c2        1 NHJ      0.045000
     11 C12         0.0620    2.8920   -2.2770 c2        1 NHJ      0.139000
     12 C13        -1.5990    1.3430   -3.1870 c2        1 NHJ      0.112000
     13 C14        -0.4620    0.8140   -3.9980 c2        1 NHJ     -0.071000
     14 C15         0.5960    0.1940   -3.4720 c2        1 NHJ     -0.111000
     15 C16        -3.8910    1.0960   -2.5300 c2        1 NHJ     -0.035000
     16 C17        -4.4250    2.3390   -2.5810 c2        1 NHJ     -0.211000
     17 C18        -6.1990   -2.7760   -0.5200 c1        1 NHJ     -0.111000
     18 C19        -5.5440   -2.0780   -1.2410 c1        1 NHJ     -0.183000
     19 C20        -4.7820   -1.2520   -2.0910 c2        1 NHJ     -0.015000
     20 C21        -4.6260    0.0530   -1.7990 c2        1 NHJ     -0.063000
     21 C22        -4.1940   -1.9720   -3.3160 c3        1 NHJ      0.473000
     22 O24         2.9070   -1.1110    4.9150 o         1 NHJ     -0.372000
     23 F25        -4.3590   -1.3180   -4.5090 f         1 NHJ     -0.158667
     24 F26        -2.8460   -2.2240   -3.2220 f         1 NHJ     -0.158667
     25 F27        -4.7320   -3.2130   -3.5560 f         1 NHJ     -0.158667
     26 HN01        0.9550    2.7990   -0.3820 hn        1 NHJ      0.278000
     27 HN04       -1.9570    2.8710   -1.8270 hn        1 NHJ      0.234000
     28 HN05        1.8470   -0.5070    3.1740 ha        1 NHJ      0.296000
     29 HN0A        5.1580   -1.8150    5.7840 hn        1 NHJ      0.245500
     30 H06         1.4140   -0.1620   -4.1270 ha        1 NHJ      0.169000
     31 H07         4.7020    0.0090    2.5840 hc        1 NHJ      0.138500
     32 H09         4.2950   -1.7220    2.1700 hc        1 NHJ      0.138500
     33 H10         1.5370    0.5240    0.0400 h4        1 NHJ      0.336000
     34 H14        -0.5650    0.9690   -5.0870 ha        1 NHJ      0.188000
     35 H15         0.3870    4.2500   -3.6590 hn        1 NHJ      0.219000
     36 H17        -3.9700    3.1710   -3.1330 ha        1 NHJ      0.139000
     37 H18        -5.3950    2.5600   -2.1150 ha        1 NHJ      0.139000
     38 H19        -6.7810   -3.4010    0.1120 ha        1 NHJ      0.239000
     39 H21        -5.1380    0.4450   -0.8970 ha        1 NHJ      0.152000
     40 N04        -2.7200    0.6900   -3.1990 n2        1 NHJ     -0.145000
     41 H053        5.9740   -1.6370    4.2960 hn        1 NHJ      0.245500
     42 C23         3.9650   -1.1830    4.2530 c2        1 NHJ      0.299000
@<TRIPOS>BOND
     1    1   10 1   
     2    1   11 1   
     3    1   26 1   
     4    2   11 1   
     5    2   12 1   
     6    2   27 1   
     7    3   11 1   
     8    3   35 1   
     9    4   29 1   
    10    4   41 1   
    11    4   42 1   
    12    5    6 1   
    13    5   10 1   
    14    5   14 1   
    15    7    8 1   
    16    7   31 1   
    17    7   32 1   
    18    7   42 1   
    19    8    9 1   
    20    8   28 1   
    21   10   33 1   
    22   12   13 1   
    23   12   40 1   
    24   13   14 1   
    25   13   34 1   
    26   14   30 1   
    27   15   16 1   
    28   15   20 1   
    29   15   40 1   
    30   16   36 1   
    31   16   37 1   
    32   17   18 1   
    33   17   38 1   
    34   18   19 1   
    35   19   20 1   
    36   19   21 1   
    37   20   39 1   
    38   21   23 1   
    39   21   24 1   
    40   21   25 1   
    41   22   42 1   
@<TRIPOS>SUBSTRUCTURE
     1 NHJ         1 TEMP              0 ****  ****    0 ROOT
