@<TRIPOS>MOLECULE
NHK
   38    37     1     0     0
SMALL
bcc


@<TRIPOS>ATOM
      1 O4          0.8780    0.1490   -0.2150 o         1 NHK     -0.438900
      2 S1          2.0880    0.7580   -0.1610 s4        1 NHK      1.691300
      3 O3          3.1350    0.2030    0.5100 o         1 NHK     -0.438900
      4 N2          2.7730   -1.4650   -1.7980 n3        1 NHK     -0.865200
      5 C10         3.6740   -2.3540   -1.0720 c3        1 NHK      0.096800
      6 C9          2.9900   -3.1460    0.0220 c         1 NHK      0.567100
      7 O1          2.0080   -2.8880    0.6910 o         1 NHK     -0.391100
      8 N1          3.6630   -4.4830    0.3950 n4        1 NHK     -0.450300
      9 O2          4.1470   -5.1480   -0.6750 oh        1 NHK     -0.361300
     10 C8          1.5240   -2.0620   -2.2520 c3        1 NHK      0.078800
     11 C6          1.5790   -3.5040   -2.7720 c3        1 NHK      0.104400
     12 O6          1.6830   -4.3960   -1.6670 oh        1 NHK     -0.693800
     13 C3          2.2680    2.1160   -0.8060 ca        1 NHK     -0.720500
     14 C5          1.1860    2.7650   -1.4990 ca        1 NHK      0.065000
     15 C7          1.3060    4.0080   -2.0470 ca        1 NHK     -0.210000
     16 C4          2.5470    4.7140   -1.9380 ca        1 NHK      0.322100
     17 C2          3.6430    4.1010   -1.2670 ca        1 NHK     -0.210000
     18 C1          3.4970    2.8530   -0.7290 ca        1 NHK      0.065000
     19 O5          2.5670    5.9290   -2.4940 os        1 NHK     -0.249900
     20 C11         3.7720    6.7160   -2.4110 c3        1 NHK      0.095700
     21 H10         4.4480   -1.7030   -0.5570 h1        1 NHK      0.117700
     22 H10A        4.2060   -3.0740   -1.7660 h1        1 NHK      0.117700
     23 HN1         4.4930   -4.2950    0.9970 hn        1 NHK      0.487300
     24 HO2         3.3910   -5.4740   -1.2250 ho        1 NHK      0.497000
     25 H8          1.1120   -1.4110   -3.0760 h1        1 NHK      0.099700
     26 H8A         0.8020   -2.0200   -1.3820 h1        1 NHK      0.099700
     27 H6          0.6590   -3.7190   -3.3760 h1        1 NHK      0.087700
     28 H6A         2.4880   -3.6970   -3.4030 h1        1 NHK      0.087700
     29 HO6         0.7930   -4.7040   -1.4460 ho        1 NHK      0.453000
     30 H5          0.2180    2.2290   -1.5750 ha        1 NHK      0.174500
     31 H7          0.4650    4.4970   -2.5720 ha        1 NHK      0.198500
     32 H2          4.6030    4.6390   -1.1800 ha        1 NHK      0.198500
     33 H1          4.3520    2.3850   -0.2000 ha        1 NHK      0.174500
     34 H11         4.6030    6.1950   -2.9420 h1        1 NHK      0.089033
     35 H11A        3.4750    7.6590   -2.9440 h1        1 NHK      0.089033
     36 H11B        4.0210    6.9190   -1.3420 h1        1 NHK      0.089033
     37 H21         3.2950   -1.1280   -2.5950 hn        1 NHK      0.396800
     38 H12         2.9940   -5.0680    0.9340 hn        1 NHK      0.487300
@<TRIPOS>BOND
     1    1    2 1   
     2    2    3 1   
     3    2   13 1   
     4    4    5 1   
     5    4   10 1   
     6    4   37 1   
     7    5    6 1   
     8    5   21 1   
     9    5   22 1   
    10    6    7 2   
    11    6    8 1   
    12    8    9 1   
    13    8   23 1   
    14    8   38 1   
    15    9   24 1   
    16   10   11 1   
    17   10   25 1   
    18   10   26 1   
    19   11   12 1   
    20   11   27 1   
    21   11   28 1   
    22   12   29 1   
    23   13   14 ar  
    24   13   18 ar  
    25   14   15 ar  
    26   14   30 1   
    27   15   16 ar  
    28   15   31 1   
    29   16   17 ar  
    30   16   19 1   
    31   17   18 ar  
    32   17   32 1   
    33   18   33 1   
    34   19   20 1   
    35   20   34 1   
    36   20   35 1   
    37   20   36 1   
@<TRIPOS>SUBSTRUCTURE
     1 NHK         1 TEMP              0 ****  ****    0 ROOT
