@<TRIPOS>MOLECULE
NHK
   36    32     1     0     0
SMALL
bcc


@<TRIPOS>ATOM
      1 O4         -2.5470    0.0810    1.0610 o         1 NHK     -0.926500
      2 S1         -1.1140    0.0150    1.0290 ss        1 NHK      2.855000
      3 O3         -0.7970    0.0630    2.4540 o         1 NHK     -0.926500
      4 N2         -0.5890   -1.4110    0.3350 n2        1 NHK     -0.806000
      5 C10         0.7730   -1.8640    0.5450 c3        1 NHK     -0.024000
      6 C9          0.8710   -2.5510    1.8900 c2        1 NHK      0.208000
      7 O1         -0.0480   -2.4580    2.6940 o         1 NHK     -0.304000
      8 N1          2.0650   -3.2770    2.2430 n         1 NHK     -0.189000
      9 O2          2.2950   -3.6270    3.5560 oh        1 NHK     -0.242000
     10 C8         -1.4630   -2.1450   -0.5690 c3        1 NHK     -0.051000
     11 C6         -2.4210   -2.9750    0.2260 c3        1 NHK     -0.056000
     12 O6         -3.5970   -3.2040   -0.5370 oh        1 NHK     -0.320000
     13 C3         -0.4090    1.4290    0.1540 c1        1 NHK     -0.873000
     14 C5          0.8880    1.8190    0.4110 c2        1 NHK      0.025000
     15 C7          1.4360    2.9240   -0.2590 c1        1 NHK     -0.236000
     16 C4          0.6740    3.6250   -1.1800 c1        1 NHK      0.147000
     17 C2         -0.6360    3.2320   -1.4400 c1        1 NHK     -0.185000
     18 C1         -1.1800    2.1340   -0.7740 c1        1 NHK      0.011000
     19 O5          1.1590    4.8280   -1.7090 os        1 NHK     -0.201000
     20 C11         1.7820    4.6900   -2.9610 c3        1 NHK     -0.080000
     21 H10         1.3770   -1.1000    0.5260 h1        1 NHK      0.119000
     22 H10A        1.0190   -2.4930   -0.1620 h1        1 NHK      0.119000
     23 HN1         2.6680   -3.5130    1.5930 hn        1 NHK      0.206000
     24 HO2         3.1330   -3.8680    3.6520 ho        1 NHK      0.238000
     25 H8         -0.9220   -2.7310   -1.1440 h1        1 NHK      0.088500
     26 H8A        -1.9630   -1.5130   -1.1260 h1        1 NHK      0.088500
     27 H6         -2.0110   -3.8170    0.4430 h1        1 NHK      0.117500
     28 H6A        -2.6500   -2.5120    1.0390 h1        1 NHK      0.117500
     29 HO6        -4.0640   -3.8700   -0.1700 ho        1 NHK      0.194000
     30 H5          1.4340    1.3190    1.0710 ha        1 NHK      0.152000
     31 H7          2.3490    3.1980   -0.0780 ha        1 NHK      0.147000
     32 H2         -1.1820    3.7330   -2.0990 ha        1 NHK      0.160000
     33 H1         -2.1030    1.8560   -0.9570 ha        1 NHK      0.155000
     34 H11         1.7690    5.5580   -3.4310 h1        1 NHK      0.091333
     35 H11A        2.7030    4.4020   -2.8350 h1        1 NHK      0.091333
     36 H11B        1.3020    4.0260   -3.4910 h1        1 NHK      0.091333
@<TRIPOS>BOND
     1    1    2 1   
     2    2    3 1   
     3    4    5 1   
     4    4   10 1   
     5    5    6 1   
     6    5   21 1   
     7    5   22 1   
     8    6    7 1   
     9    6    8 1   
    10    8    9 1   
    11    8   23 1   
    12    9   24 1   
    13   10   11 1   
    14   10   25 1   
    15   10   26 1   
    16   11   12 1   
    17   11   27 1   
    18   11   28 1   
    19   12   29 1   
    20   13   14 1   
    21   13   18 1   
    22   14   15 1   
    23   14   30 1   
    24   15   31 1   
    25   16   17 1   
    26   16   19 1   
    27   17   32 1   
    28   18   33 1   
    29   19   20 1   
    30   20   34 1   
    31   20   35 1   
    32   20   36 1   
@<TRIPOS>SUBSTRUCTURE
     1 NHK         1 TEMP              0 ****  ****    0 ROOT
