@<TRIPOS>MOLECULE
NHK
   38    37     1     0     0
SMALL
bcc


@<TRIPOS>ATOM
      1 O4          0.8760    0.1330   -0.2180 o         1 NHK     -0.438900
      2 S1          2.0880    0.7390   -0.1510 s4        1 NHK      1.691300
      3 O3          3.1320    0.1710    0.5120 o         1 NHK     -0.438900
      4 N2          2.7710   -1.4580   -1.8230 n7        1 NHK     -0.865200
      5 C10         3.6690   -2.3610   -1.1120 c3        1 NHK      0.096800
      6 C9          2.9820   -3.1690   -0.0320 c         1 NHK      0.567100
      7 O1          2.0000   -2.9210    0.6400 o         1 NHK     -0.391100
      8 N1          3.6530   -4.5130    0.3200 ny        1 NHK     -0.450300
      9 O2          4.1380   -5.1610   -0.7600 oh        1 NHK     -0.361300
     10 C8          1.5230   -2.0460   -2.2910 c3        1 NHK      0.078800
     11 C6          1.5760   -3.4780   -2.8340 c3        1 NHK      0.104400
     12 O6          1.6760   -4.3900   -1.7440 oh        1 NHK     -0.693800
     13 C3          2.2700    2.1070   -0.7730 ca        1 NHK     -0.720500
     14 C5          1.1900    2.7700   -1.4570 ca        1 NHK      0.065000
     15 C7          1.3130    4.0210   -1.9840 ca        1 NHK     -0.210000
     16 C4          2.5550    4.7240   -1.8600 ca        1 NHK      0.322100
     17 C2          3.6490    4.0980   -1.1980 ca        1 NHK     -0.210000
     18 C1          3.5000    2.8410   -0.6810 ca        1 NHK      0.065000
     19 O5          2.5770    5.9480   -2.3960 os        1 NHK     -0.249900
     20 C11         3.7840    6.7320   -2.2970 c3        1 NHK      0.095700
     21 H10         4.4440   -1.7200   -0.5840 h1        1 NHK      0.117700
     22 H10A        4.2020   -3.0690   -1.8170 h1        1 NHK      0.117700
     23 HN1         4.4820   -4.3370    0.9260 hn        1 NHK      0.487300
     24 HO2         3.3820   -5.4770   -1.3170 ho        1 NHK      0.497000
     25 H8          1.1130   -1.3800   -3.1040 h1        1 NHK      0.099700
     26 H8A         0.7990   -2.0170   -1.4210 h1        1 NHK      0.099700
     27 H6          0.6570   -3.6820   -3.4430 h1        1 NHK      0.087700
     28 H6A         2.4860   -3.6630   -3.4670 h1        1 NHK      0.087700
     29 HO6         0.7860   -4.6990   -1.5290 ho        1 NHK      0.453000
     30 H5          0.2220    2.2360   -1.5440 ha        1 NHK      0.174500
     31 H7          0.4740    4.5210   -2.5010 ha        1 NHK      0.198500
     32 H2          4.6090    4.6330   -1.1000 ha        1 NHK      0.198500
     33 H1          4.3530    2.3630   -0.1590 ha        1 NHK      0.174500
     34 H11         4.6150    6.2180   -2.8350 h1        1 NHK      0.089033
     35 H11A        3.4900    7.6840   -2.8150 h1        1 NHK      0.089033
     36 H11B        4.0310    6.9160   -1.2240 h1        1 NHK      0.089033
     37 H21         3.2950   -1.1090   -2.6150 hn        1 NHK      0.396800
     38 H12         2.9810   -5.1060    0.8480 hn        1 NHK      0.487300
@<TRIPOS>BOND
     1    1    2 1   
     2    2    3 1   
     3    2   13 1   
     4    4    5 1   
     5    4   10 1   
     6    4   37 1   
     7    5    6 1   
     8    5   21 1   
     9    5   22 1   
    10    6    7 2   
    11    6    8 1   
    12    8    9 1   
    13    8   23 1   
    14    8   38 1   
    15    9   24 1   
    16   10   11 1   
    17   10   25 1   
    18   10   26 1   
    19   11   12 1   
    20   11   27 1   
    21   11   28 1   
    22   12   29 1   
    23   13   14 ar  
    24   13   18 ar  
    25   14   15 ar  
    26   14   30 1   
    27   15   16 ar  
    28   15   31 1   
    29   16   17 ar  
    30   16   19 1   
    31   17   18 ar  
    32   17   32 1   
    33   18   33 1   
    34   19   20 1   
    35   20   34 1   
    36   20   35 1   
    37   20   36 1   
@<TRIPOS>SUBSTRUCTURE
     1 NHK         1 TEMP              0 ****  ****    0 ROOT
