@<TRIPOS>MOLECULE
NHK
   38    37     1     0     0
SMALL
bcc


@<TRIPOS>ATOM
      1 O4          0.8680    0.1790   -0.4230 o         1 NHK     -0.433400
      2 S1          2.0500    0.8250   -0.2650 s4        1 NHK      1.686300
      3 O3          3.0600    0.3010    0.4790 o         1 NHK     -0.433400
      4 N2          2.8510   -1.5770   -1.7170 n3        1 NHK     -0.861200
      5 C10         3.6040   -2.4720   -0.8470 c3        1 NHK      0.103800
      6 C9          2.7510   -3.0400    0.2670 c         1 NHK      0.595100
      7 O1          1.9420   -2.5120    1.0020 o         1 NHK     -0.386100
      8 N1          2.9370   -4.5560    0.5370 n4        1 NHK     -0.468300
      9 O2          4.2640   -4.7880    0.6580 oh        1 NHK     -0.360300
     10 C8          1.6600   -2.1680   -2.3080 c3        1 NHK      0.111800
     11 C6          1.8430   -3.4300   -3.1550 c3        1 NHK      0.103400
     12 O6          2.1860   -4.5050   -2.2830 oh        1 NHK     -0.689800
     13 C3          2.2370    2.1880   -0.8970 ca        1 NHK     -0.720500
     14 C5          1.1940    2.8090   -1.6700 ca        1 NHK      0.066000
     15 C7          1.3250    4.0530   -2.2130 ca        1 NHK     -0.211000
     16 C4          2.5360    4.7900   -2.0150 ca        1 NHK      0.321100
     17 C2          3.5930    4.2060   -1.2610 ca        1 NHK     -0.211000
     18 C1          3.4390    2.9550   -0.7300 ca        1 NHK      0.066000
     19 O5          2.5680    6.0030   -2.5740 os        1 NHK     -0.250900
     20 C11         3.7450    6.8190   -2.4050 c3        1 NHK      0.095700
     21 H10         4.4130   -1.8660   -0.3300 h1        1 NHK      0.122200
     22 H10A        4.0910   -3.3160   -1.4230 h1        1 NHK      0.122200
     23 HN1         2.5470   -5.0720   -0.2800 hn        1 NHK      0.481300
     24 HO2         4.4050   -5.7280    0.9200 ho        1 NHK      0.485000
     25 H8          1.1950   -1.3840   -2.9730 h1        1 NHK      0.090700
     26 H8A         0.9320   -2.3830   -1.4730 h1        1 NHK      0.090700
     27 H6          2.6600   -3.3040   -3.9150 h1        1 NHK      0.071700
     28 H6A         0.8760   -3.6570   -3.6800 h1        1 NHK      0.071700
     29 HO6         2.1030   -5.3170   -2.8000 ho        1 NHK      0.448000
     30 H5          0.2490    2.2480   -1.8170 ha        1 NHK      0.175500
     31 H7          0.5130    4.5200   -2.8010 ha        1 NHK      0.198000
     32 H2          4.5310    4.7680   -1.1050 ha        1 NHK      0.198000
     33 H1          4.2630    2.5100   -0.1380 ha        1 NHK      0.175500
     34 H11         3.4680    7.7530   -2.9640 h1        1 NHK      0.088700
     35 H11A        3.9100    7.0310   -1.3220 h1        1 NHK      0.088700
     36 H11B        4.6260    6.3150   -2.8710 h1        1 NHK      0.088700
     37 H21         3.4840   -1.2840   -2.4480 hn        1 NHK      0.397800
     38 H12         2.4250   -4.8160    1.4020 hn        1 NHK      0.481300
@<TRIPOS>BOND
     1    1    2 1   
     2    2    3 1   
     3    2   13 1   
     4    4    5 1   
     5    4   10 1   
     6    4   37 1   
     7    5    6 1   
     8    5   21 1   
     9    5   22 1   
    10    6    7 2   
    11    6    8 1   
    12    8    9 1   
    13    8   23 1   
    14    8   38 1   
    15    9   24 1   
    16   10   11 1   
    17   10   25 1   
    18   10   26 1   
    19   11   12 1   
    20   11   27 1   
    21   11   28 1   
    22   12   29 1   
    23   13   14 ar  
    24   13   18 ar  
    25   14   15 ar  
    26   14   30 1   
    27   15   16 ar  
    28   15   31 1   
    29   16   17 ar  
    30   16   19 1   
    31   17   18 ar  
    32   17   32 1   
    33   18   33 1   
    34   19   20 1   
    35   20   34 1   
    36   20   35 1   
    37   20   36 1   
@<TRIPOS>SUBSTRUCTURE
     1 NHK         1 TEMP              0 ****  ****    0 ROOT
