@<TRIPOS>MOLECULE
NHK
   36    36     1     0     0
SMALL
bcc


@<TRIPOS>ATOM
      1 O4         -0.4550   -0.8570   -2.3210 o         1 NHK     -0.658300
      2 S1         -0.4740    0.0090   -1.2080 sy        1 NHK      1.513200
      3 O3         -1.0370    1.2960   -1.4020 o         1 NHK     -0.658300
      4 N2         -1.2750   -0.7040    0.0300 n3        1 NHK     -0.798500
      5 C10        -1.6550    0.0370    1.1990 c3        1 NHK      0.150800
      6 C9         -3.1030    0.5510    1.1340 c         1 NHK      0.572100
      7 O1         -4.0170   -0.0440    1.7250 o         1 NHK     -0.562100
      8 N1         -3.3160    1.8150    0.5220 n         1 NHK     -0.366400
      9 O2         -4.5830    2.0810    0.2000 oh        1 NHK     -0.430100
     10 C8         -1.6130   -2.1030    0.0290 c3        1 NHK      0.210800
     11 C6         -0.6220   -3.0220    0.7610 c3        1 NHK      0.109400
     12 O6         -0.7290   -2.7590    2.1480 oh        1 NHK     -0.600800
     13 C3          1.0860    0.1980   -0.6280 ca        1 NHK     -0.434500
     14 C5          2.0420   -0.8150   -0.8090 ca        1 NHK      0.020500
     15 C7          3.3450   -0.6680   -0.3630 ca        1 NHK     -0.210500
     16 C4          3.7160    0.5290    0.2850 ca        1 NHK      0.195100
     17 C2          2.7810    1.5590    0.4690 ca        1 NHK     -0.210500
     18 C1          1.4820    1.3800    0.0090 ca        1 NHK      0.020500
     19 O5          5.0240    0.5820    0.6980 os        1 NHK     -0.317900
     20 C11         5.4450    1.7870    1.3350 c3        1 NHK      0.108700
     21 H10        -1.5810   -0.6220    2.1160 h1        1 NHK      0.087700
     22 H10A       -0.9500    0.9080    1.3320 h1        1 NHK      0.087700
     23 HN1        -2.7390    1.9820   -0.3010 hn        1 NHK      0.340500
     24 HO2        -5.0480    2.2380    1.0460 ho        1 NHK      0.427000
     25 H8         -2.6270   -2.2320    0.5100 h1        1 NHK      0.083200
     26 H8A        -1.6740   -2.4570   -1.0420 h1        1 NHK      0.083200
     27 H6         -0.9030   -4.0880    0.5440 h1        1 NHK      0.029200
     28 H6A         0.4340   -2.8440    0.4180 h1        1 NHK      0.029200
     29 HO6        -0.1700   -3.4030    2.5980 ho        1 NHK      0.404000
     30 H5          1.7490   -1.7410   -1.3360 ha        1 NHK      0.154000
     31 H7          4.0950   -1.4590   -0.5080 ha        1 NHK      0.154500
     32 H2          3.0630    2.4990    0.9630 ha        1 NHK      0.154500
     33 H1          0.7470    2.1970    0.1340 ha        1 NHK      0.154000
     34 H11         5.3360    2.6560    0.6430 h1        1 NHK      0.052367
     35 H11A        4.8660    1.9550    2.2760 h1        1 NHK      0.052367
     36 H11B        6.5240    1.5920    1.5630 h1        1 NHK      0.052367
@<TRIPOS>BOND
     1    1    2 2   
     2    2    3 2   
     3    2    4 1   
     4    2   13 1   
     5    4    5 1   
     6    4   10 1   
     7    5    6 1   
     8    5   21 1   
     9    5   22 1   
    10    6    7 2   
    11    6    8 1   
    12    8    9 1   
    13    8   23 1   
    14    9   24 1   
    15   10   11 1   
    16   10   25 1   
    17   10   26 1   
    18   11   12 1   
    19   11   27 1   
    20   11   28 1   
    21   12   29 1   
    22   13   14 ar  
    23   13   18 ar  
    24   14   15 ar  
    25   14   30 1   
    26   15   16 ar  
    27   15   31 1   
    28   16   17 ar  
    29   16   19 1   
    30   17   18 ar  
    31   17   32 1   
    32   18   33 1   
    33   19   20 1   
    34   20   34 1   
    35   20   35 1   
    36   20   36 1   
@<TRIPOS>SUBSTRUCTURE
     1 NHK         1 TEMP              0 ****  ****    0 ROOT
