@<TRIPOS>MOLECULE
NHL
   36    33     1     0     0
SMALL
bcc


@<TRIPOS>ATOM
      1 C8          1.2790   -0.4660   -1.1770 c1        1 NHL     -0.133500
      2 C7          2.6600   -0.4320   -1.2360 c1        1 NHL     -0.133500
      3 C3          3.4130   -0.6800   -0.0920 c1        1 NHL     -0.052000
      4 C2          4.8140   -0.5260   -0.1340 c2        1 NHL     -0.124000
      5 C1          5.5620   -0.6540    1.0240 c1        1 NHL     -0.159000
      6 C6          4.9260   -0.9380    2.2370 c1        1 NHL     -0.133500
      7 C5          3.5470   -1.0910    2.2810 c1        1 NHL     -0.133500
      8 C4          2.7860   -0.9590    1.1010 c1        1 NHL     -0.036000
      9 C10         1.3950   -0.9940    1.1640 c2        1 NHL     -0.120000
     10 C9          0.6440   -0.7470    0.0220 c1        1 NHL     -0.020000
     11 C11        -0.9290   -1.0280   -0.0200 c3        1 NHL     -0.120000
     12 CG         -1.6790    0.2950   -0.1090 c3        1 NHL     -0.151000
     13 CD         -1.7830    0.9190    1.2820 c2        1 NHL      0.325000
     14 OE2        -1.1680    2.0310    1.5420 o         1 NHL     -0.599500
     15 OE1        -2.4780    0.3590    2.1750 o         1 NHL     -0.599500
     16 CB         -3.0690    0.0570   -0.6610 c3        1 NHL     -0.120000
     17 CA         -3.6940    1.3790   -1.0360 c3        1 NHL     -0.122000
     18 N          -3.4800    1.6290   -2.4210 n3        1 NHL     -0.318000
     19 C          -5.1990    1.3310   -0.7500 c2        1 NHL      0.301000
     20 OXT        -5.7310    2.2110   -0.0170 o         1 NHL     -0.599000
     21 O          -5.9030    0.3790   -1.2130 o         1 NHL     -0.599000
     22 H8          0.7640   -0.2960   -1.9620 ha        1 NHL      0.121750
     23 H7          3.1020   -0.1000   -2.0420 ha        1 NHL      0.121750
     24 HC2         5.2600   -0.3260   -0.9850 ha        1 NHL      0.107000
     25 H1          6.5340   -0.6200    0.9810 ha        1 NHL      0.101000
     26 H6          5.4420   -1.0270    3.0360 ha        1 NHL      0.121750
     27 H5          3.1120   -1.2840    3.1120 ha        1 NHL      0.121750
     28 H10         0.9510   -1.2660    1.9930 ha        1 NHL      0.205000
     29 H111       -1.1440   -1.5810   -0.8120 hc        1 NHL      0.089000
     30 H112       -1.2000   -1.5070    0.8000 hc        1 NHL      0.089000
     31 HG         -1.2090    0.8840   -0.6860 hc        1 NHL      0.091000
     32 HB3        -3.0120   -0.5200   -1.4600 hc        1 NHL      0.084000
     33 HB2        -3.6340   -0.3930    0.0380 hc        1 NHL      0.084000
     34 H15        -3.2710    2.1190   -0.4930 h1        1 NHL      0.086000
     35 H          -3.3890    2.5360   -2.5590 hn        1 NHL      0.112000
     36 H2         -4.2200    1.3060   -2.9190 hn        1 NHL      0.112000
@<TRIPOS>BOND
     1    1    2 1   
     2    1   22 1   
     3    2   23 1   
     4    3    4 1   
     5    3    8 1   
     6    4    5 1   
     7    4   24 1   
     8    5   25 1   
     9    6    7 1   
    10    6   26 1   
    11    7   27 1   
    12    8    9 1   
    13    9   10 1   
    14    9   28 1   
    15   10   11 1   
    16   11   12 1   
    17   11   29 1   
    18   11   30 1   
    19   12   13 1   
    20   12   16 1   
    21   12   31 1   
    22   13   14 1   
    23   13   15 1   
    24   16   17 1   
    25   16   32 1   
    26   16   33 1   
    27   17   18 1   
    28   17   19 1   
    29   17   34 1   
    30   18   35 1   
    31   18   36 1   
    32   19   20 1   
    33   19   21 1   
@<TRIPOS>SUBSTRUCTURE
     1 NHL         1 TEMP              0 ****  ****    0 ROOT
