@<TRIPOS>MOLECULE
NHL
   36    37     1     0     0
SMALL
bcc


@<TRIPOS>ATOM
      1 C8         -3.1950   -4.7760    1.0400 ca        1 NHL     -0.112000
      2 C7         -4.3740   -5.2170    0.4890 ca        1 NHL     -0.163000
      3 C3         -4.9740   -4.5120   -0.5860 ca        1 NHL     -0.053000
      4 C2         -6.1910   -4.9380   -1.1850 ca        1 NHL     -0.127000
      5 C1         -6.7450   -4.2310   -2.2230 ca        1 NHL     -0.157000
      6 C6         -6.1090   -3.0630   -2.7100 ca        1 NHL     -0.171000
      7 C5         -4.9340   -2.6280   -2.1500 ca        1 NHL     -0.091000
      8 C4         -4.3340   -3.3410   -1.0730 ca        1 NHL     -0.035000
      9 C10        -3.1180   -2.9060   -0.4880 ca        1 NHL     -0.118000
     10 C9         -2.5430   -3.6090    0.5530 ca        1 NHL     -0.033300
     11 C11        -1.2460   -3.2080    1.1670 c3        1 NHL     -0.028100
     12 CG         -0.9830   -1.7050    1.1820 c3        1 NHL     -0.169700
     13 CD         -0.3540   -1.3060   -0.1760 c         1 NHL      0.906600
     14 OE2        -1.0360   -0.5620   -0.9480 o         1 NHL     -0.863300
     15 OE1         0.7790   -1.7650   -0.5010 o         1 NHL     -0.863300
     16 CB         -0.0770   -1.3130    2.3410 c3        1 NHL     -0.041400
     17 CA         -0.8160   -0.8300    3.5950 c3        1 NHL      0.025500
     18 N          -1.7860   -1.7840    4.1260 n3        1 NHL     -0.884800
     19 C           0.2380   -0.3860    4.6590 c         1 NHL      0.883600
     20 OXT         0.8250    0.7210    4.5050 o         1 NHL     -0.864800
     21 O           0.4340   -1.1370    5.6650 o         1 NHL     -0.864800
     22 H8         -2.7390   -5.3210    1.8800 ha        1 NHL      0.121000
     23 H7         -4.8720   -6.1180    0.8730 ha        1 NHL      0.103000
     24 HC2        -6.6780   -5.8450   -0.7980 ha        1 NHL      0.106000
     25 H1         -7.6860   -4.5580   -2.6860 ha        1 NHL      0.101000
     26 H6         -6.5720   -2.5120   -3.5400 ha        1 NHL      0.107000
     27 H5         -4.4260   -1.7210   -2.5150 ha        1 NHL      0.146000
     28 H10        -2.6210   -1.9860   -0.8730 ha        1 NHL      0.218000
     29 H111       -0.4150   -3.6990    0.5840 hc        1 NHL      0.049200
     30 H112       -1.2010   -3.6180    2.2110 hc        1 NHL      0.049200
     31 HG         -1.9580   -1.1560    1.2830 hc        1 NHL      0.051700
     32 HB3         0.5950   -2.1700    2.6070 hc        1 NHL      0.046200
     33 HB2         0.5860   -0.4670    2.0150 hc        1 NHL      0.046200
     34 H15        -1.4060    0.0910    3.3140 h1        1 NHL      0.044700
     35 H          -1.9440   -1.5440    5.0920 hn        1 NHL      0.317800
     36 H2         -1.3600   -2.6940    4.1360 hn        1 NHL      0.317800
@<TRIPOS>BOND
     1    1    2 ar  
     2    1   10 ar  
     3    1   22 1   
     4    2    3 ar  
     5    2   23 1   
     6    3    4 ar  
     7    3    8 ar  
     8    4    5 ar  
     9    4   24 1   
    10    5    6 ar  
    11    5   25 1   
    12    6    7 ar  
    13    6   26 1   
    14    7    8 ar  
    15    7   27 1   
    16    8    9 ar  
    17    9   10 ar  
    18    9   28 1   
    19   10   11 1   
    20   11   12 1   
    21   11   29 1   
    22   11   30 1   
    23   12   13 1   
    24   12   16 1   
    25   12   31 1   
    26   13   14 1   
    27   13   15 1   
    28   16   17 1   
    29   16   32 1   
    30   16   33 1   
    31   17   18 1   
    32   17   19 1   
    33   17   34 1   
    34   18   35 1   
    35   18   36 1   
    36   19   20 1   
    37   19   21 1   
@<TRIPOS>SUBSTRUCTURE
     1 NHL         1 TEMP              0 ****  ****    0 ROOT
