@<TRIPOS>MOLECULE
NHP
   30    27     1     0     0
SMALL
bcc


@<TRIPOS>ATOM
      1 C1         -0.9510   -1.3530    2.7890 c1        1 NHP     -0.087750
      2 C2         -0.1370   -1.7760    1.7490 c1        1 NHP     -0.023900
      3 C3          0.8930   -2.6700    1.9950 c1        1 NHP      0.091800
      4 C4          1.1090   -3.1410    3.2800 c1        1 NHP     -0.087750
      5 C5          0.2960   -2.7190    4.3190 c1        1 NHP     -0.087750
      6 C6         -0.7350   -1.8250    4.0740 c1        1 NHP     -0.087750
      7 N1          1.7080   -3.1230    0.9260 n3        1 NHP     -0.776400
      8 S1         -0.4720   -1.2440    0.0900 ss        1 NHP     -0.273200
      9 C7          0.1400    0.4040   -0.1370 c3        1 NHP      0.019700
     10 C8         -0.8160    1.1800   -1.0170 c3        1 NHP     -0.077400
     11 C9         -0.0400    1.8690   -2.1190 c3        1 NHP     -0.053400
     12 C10        -0.9560    2.8150   -2.8650 c3        1 NHP     -0.272600
     13 P1         -0.1320    3.3900   -4.3760 p5        1 NHP      1.212700
     14 O1          0.1730    2.2070   -5.2640 o         1 NHP     -0.956833
     15 O2          1.1550    4.0910   -4.0120 o         1 NHP     -0.956833
     16 O3         -1.0370    4.3500   -5.1100 o         1 NHP     -0.956833
     17 H1         -1.6660   -0.7110    2.6190 ha        1 NHP      0.065750
     18 H4          1.8350   -3.7710    3.4530 ha        1 NHP      0.065750
     19 H5          0.4480   -3.0510    5.2250 ha        1 NHP      0.065750
     20 H6         -1.3070   -1.5270    4.8060 ha        1 NHP      0.065750
     21 HN11        2.5740   -3.3710    1.0850 hn        1 NHP      0.379800
     22 HN12        1.3700   -3.1610    0.0780 hn        1 NHP      0.379800
     23 H71         1.0200    0.3690   -0.5630 h1        1 NHP      0.065200
     24 H72         0.2150    0.8470    0.7320 h1        1 NHP      0.065200
     25 H81        -1.4670    0.5660   -1.4120 hc        1 NHP      0.028200
     26 H82        -1.2830    1.8500   -0.4790 hc        1 NHP      0.028200
     27 H91         0.7020    2.3730   -1.7290 hc        1 NHP      0.067200
     28 H92         0.3110    1.1990   -2.7390 hc        1 NHP      0.067200
     29 H101       -1.7830    2.3490   -3.1010 hc        1 NHP      0.013700
     30 H102       -1.1660    3.5830   -2.2950 hc        1 NHP      0.013700
@<TRIPOS>BOND
     1    1    6 3   
     2    1   17 1   
     3    2    3 3   
     4    2    8 1   
     5    3    7 1   
     6    4    5 3   
     7    4   18 1   
     8    5   19 1   
     9    6   20 1   
    10    7   21 1   
    11    7   22 1   
    12    8    9 1   
    13    9   10 1   
    14    9   23 1   
    15    9   24 1   
    16   10   11 1   
    17   10   25 1   
    18   10   26 1   
    19   11   12 1   
    20   11   27 1   
    21   11   28 1   
    22   12   13 1   
    23   12   29 1   
    24   12   30 1   
    25   13   14 1   
    26   13   15 1   
    27   13   16 1   
@<TRIPOS>SUBSTRUCTURE
     1 NHP         1 TEMP              0 ****  ****    0 ROOT
