@<TRIPOS>MOLECULE
NHP
   30    30     1     0     0
SMALL
bcc


@<TRIPOS>ATOM
      1 C1         -0.1590   -0.3590    0.1940 ca        1 NHP     -0.111000
      2 C2          1.2200   -0.2740   -0.0130 ca        1 NHP     -0.022100
      3 C3          2.0600    0.0790    1.0820 ca        1 NHP      0.117600
      4 C4          1.4740    0.3330    2.3400 ca        1 NHP     -0.182000
      5 C5          0.0980    0.2370    2.5150 ca        1 NHP     -0.132000
      6 C6         -0.7220   -0.1060    1.4420 ca        1 NHP     -0.156000
      7 N1          3.4580    0.1130    0.9360 nh        1 NHP     -0.802200
      8 S1          1.9500   -0.5810   -1.5120 ss        1 NHP     -0.275000
      9 C7          0.6770   -0.3600   -2.7470 c3        1 NHP      0.019700
     10 C8          1.3740   -0.3160   -4.0820 c3        1 NHP     -0.077400
     11 C9          0.3580   -0.1150   -5.2000 c3        1 NHP     -0.053400
     12 C10         0.9650   -0.0460   -6.5520 c3        1 NHP     -0.272600
     13 P1         -0.4900    0.2140   -7.6290 p5        1 NHP      1.212700
     14 O1          0.1070    0.2850   -9.0150 o         1 NHP     -0.956833
     15 O2         -1.3420   -1.0070   -7.3550 o         1 NHP     -0.956833
     16 O3         -1.0720    1.5120   -7.1100 o         1 NHP     -0.956833
     17 H1         -0.8150   -0.6240   -0.6510 ha        1 NHP      0.149000
     18 H4          2.1090    0.6110    3.1940 ha        1 NHP      0.113000
     19 H5         -0.3400    0.4370    3.5020 ha        1 NHP      0.110000
     20 H6         -1.8100   -0.1750    1.5760 ha        1 NHP      0.121000
     21 HN11        3.8800    0.8270    1.4920 hn        1 NHP      0.379800
     22 HN12        3.7460    0.1720   -0.0240 hn        1 NHP      0.379800
     23 H71         0.1170    0.5870   -2.5620 h1        1 NHP      0.065200
     24 H72        -0.0410   -1.2120   -2.7090 h1        1 NHP      0.065200
     25 H81         2.1170    0.5230   -4.1010 hc        1 NHP      0.028200
     26 H82         1.9340   -1.2710   -4.2550 hc        1 NHP      0.028200
     27 H91        -0.2150    0.8400   -5.0340 hc        1 NHP      0.067200
     28 H92        -0.3900   -0.9550   -5.2020 hc        1 NHP      0.067200
     29 H101        1.6590    0.8070   -6.6770 hc        1 NHP      0.013700
     30 H102        1.4700   -0.9840   -6.8520 hc        1 NHP      0.013700
@<TRIPOS>BOND
     1    1    2 ar  
     2    1    6 ar  
     3    1   17 1   
     4    2    3 ar  
     5    2    8 1   
     6    3    4 ar  
     7    3    7 1   
     8    4    5 ar  
     9    4   18 1   
    10    5    6 ar  
    11    5   19 1   
    12    6   20 1   
    13    7   21 1   
    14    7   22 1   
    15    8    9 1   
    16    9   10 1   
    17    9   23 1   
    18    9   24 1   
    19   10   11 1   
    20   10   25 1   
    21   10   26 1   
    22   11   12 1   
    23   11   27 1   
    24   11   28 1   
    25   12   13 1   
    26   12   29 1   
    27   12   30 1   
    28   13   14 1   
    29   13   15 1   
    30   13   16 1   
@<TRIPOS>SUBSTRUCTURE
     1 NHP         1 TEMP              0 ****  ****    0 ROOT
