@<TRIPOS>MOLECULE
NHP
   30    30     1     0     0
SMALL
bcc


@<TRIPOS>ATOM
      1 C1         -0.1720   -0.3330    0.1930 ca        1 NHP     -0.111000
      2 C2          1.2080   -0.2770   -0.0110 ca        1 NHP     -0.022100
      3 C3          2.0520    0.0630    1.0850 ca        1 NHP      0.117600
      4 C4          1.4690    0.3330    2.3410 ca        1 NHP     -0.182000
      5 C5          0.0900    0.2640    2.5120 ca        1 NHP     -0.132000
      6 C6         -0.7330   -0.0650    1.4390 ca        1 NHP     -0.156000
      7 N1          3.4520    0.0690    0.9430 nh        1 NHP     -0.802200
      8 S1          1.9360   -0.6030   -1.5080 ss        1 NHP     -0.275000
      9 C7          0.6710   -0.3590   -2.7470 c3        1 NHP      0.019700
     10 C8          1.3720   -0.3340   -4.0800 c3        1 NHP     -0.077400
     11 C9          0.3640   -0.1130   -5.2010 c3        1 NHP     -0.053400
     12 C10         0.9760   -0.0640   -6.5520 c3        1 NHP     -0.272600
     13 P1         -0.4710    0.2260   -7.6330 p5        1 NHP      1.212700
     14 O1          0.1310    0.2780   -9.0180 o         1 NHP     -0.956833
     15 O2         -1.3520   -0.9730   -7.3560 o         1 NHP     -0.956833
     16 O3         -1.0230    1.5390   -7.1200 o         1 NHP     -0.956833
     17 H1         -0.8320   -0.5880   -0.6540 ha        1 NHP      0.149000
     18 H4          2.1070    0.6000    3.1950 ha        1 NHP      0.113000
     19 H5         -0.3460    0.4760    3.4980 ha        1 NHP      0.110000
     20 H6         -1.8230   -0.1120    1.5700 ha        1 NHP      0.121000
     21 HN11        3.8860    0.7760    1.4980 hn        1 NHP      0.379800
     22 HN12        3.7430    0.1190   -0.0160 hn        1 NHP      0.379800
     23 H71        -0.0650   -1.1960   -2.7080 h1        1 NHP      0.065200
     24 H72         0.1310    0.6000   -2.5660 h1        1 NHP      0.065200
     25 H81         1.9120   -1.3020   -4.2480 hc        1 NHP      0.028200
     26 H82         2.1340    0.4880   -4.0990 hc        1 NHP      0.028200
     27 H91        -0.4030   -0.9360   -5.2010 hc        1 NHP      0.067200
     28 H92        -0.1870    0.8550   -5.0390 hc        1 NHP      0.067200
     29 H101        1.4590   -1.0140   -6.8470 hc        1 NHP      0.013700
     30 H102        1.6890    0.7720   -6.6770 hc        1 NHP      0.013700
@<TRIPOS>BOND
     1    1    2 ar  
     2    1    6 ar  
     3    1   17 1   
     4    2    3 ar  
     5    2    8 1   
     6    3    4 ar  
     7    3    7 1   
     8    4    5 ar  
     9    4   18 1   
    10    5    6 ar  
    11    5   19 1   
    12    6   20 1   
    13    7   21 1   
    14    7   22 1   
    15    8    9 1   
    16    9   10 1   
    17    9   23 1   
    18    9   24 1   
    19   10   11 1   
    20   10   25 1   
    21   10   26 1   
    22   11   12 1   
    23   11   27 1   
    24   11   28 1   
    25   12   13 1   
    26   12   29 1   
    27   12   30 1   
    28   13   14 1   
    29   13   15 1   
    30   13   16 1   
@<TRIPOS>SUBSTRUCTURE
     1 NHP         1 TEMP              0 ****  ****    0 ROOT
