@<TRIPOS>MOLECULE
NHP
   30    30     1     0     0
SMALL
bcc


@<TRIPOS>ATOM
      1 C1         -1.4900    0.3650    3.1480 ca        1 NHP     -0.111000
      2 C2         -0.0990    0.2870    3.2490 ca        1 NHP     -0.022100
      3 C3          0.4810   -0.0480    4.5060 ca        1 NHP      0.117600
      4 C4         -0.3650   -0.2900    5.6090 ca        1 NHP     -0.182000
      5 C5         -1.7470   -0.2000    5.4760 ca        1 NHP     -0.132000
      6 C6         -2.3120    0.1250    4.2450 ca        1 NHP     -0.156000
      7 N1          1.8780   -0.0760    4.6720 nh        1 NHP     -0.802200
      8 S1          0.9410    0.5800    1.9430 ss        1 NHP     -0.275000
      9 C7         -0.0280    0.3350    0.4620 c3        1 NHP      0.019700
     10 C8          0.9440    0.2800   -0.6870 c3        1 NHP     -0.077400
     11 C9          0.2000    0.0560   -1.9980 c3        1 NHP     -0.053400
     12 C10         1.0890   -0.0230   -3.1830 c3        1 NHP     -0.272600
     13 P1         -0.0930   -0.3090   -4.5490 p5        1 NHP      1.212700
     14 O1          0.7940   -0.3910   -5.7690 o         1 NHP     -0.956833
     15 O2         -0.7660   -1.6060   -4.1520 o         1 NHP     -0.956833
     16 O3         -0.9920    0.9070   -4.4840 o         1 NHP     -0.956833
     17 H1         -1.9460    0.6170    2.1750 ha        1 NHP      0.149000
     18 H4          0.0680   -0.5530    6.5850 ha        1 NHP      0.113000
     19 H5         -2.3900   -0.3910    6.3460 ha        1 NHP      0.110000
     20 H6         -3.4040    0.1890    4.1360 ha        1 NHP      0.121000
     21 HN11        2.1700   -0.7800    5.3160 hn        1 NHP      0.379800
     22 HN12        2.3690   -0.1450    3.7990 hn        1 NHP      0.379800
     23 H71        -0.6110   -0.6130    0.5320 h1        1 NHP      0.065200
     24 H72        -0.7410    1.1830    0.3300 h1        1 NHP      0.065200
     25 H81         1.5240    1.2370   -0.7460 hc        1 NHP      0.028200
     26 H82         1.6780   -0.5540   -0.5300 hc        1 NHP      0.028200
     27 H91        -0.3900   -0.9010   -1.9480 hc        1 NHP      0.067200
     28 H92        -0.5340    0.8900   -2.1740 hc        1 NHP      0.067200
     29 H101        1.6410    0.9160   -3.3770 hc        1 NHP      0.013700
     30 H102        1.7980   -0.8710   -3.1400 hc        1 NHP      0.013700
@<TRIPOS>BOND
     1    1    2 ar  
     2    1    6 ar  
     3    1   17 1   
     4    2    3 ar  
     5    2    8 1   
     6    3    4 ar  
     7    3    7 1   
     8    4    5 ar  
     9    4   18 1   
    10    5    6 ar  
    11    5   19 1   
    12    6   20 1   
    13    7   21 1   
    14    7   22 1   
    15    8    9 1   
    16    9   10 1   
    17    9   23 1   
    18    9   24 1   
    19   10   11 1   
    20   10   25 1   
    21   10   26 1   
    22   11   12 1   
    23   11   27 1   
    24   11   28 1   
    25   12   13 1   
    26   12   29 1   
    27   12   30 1   
    28   13   14 1   
    29   13   15 1   
    30   13   16 1   
@<TRIPOS>SUBSTRUCTURE
     1 NHP         1 TEMP              0 ****  ****    0 ROOT
