@<TRIPOS>MOLECULE
NHP
   30    30     1     0     0
SMALL
bcc


@<TRIPOS>ATOM
      1 C1         -0.1710    0.3370    0.1860 ca        1 NHP     -0.111000
      2 C2          1.2090    0.2620   -0.0160 ca        1 NHP     -0.022100
      3 C3          2.0480   -0.0670    1.0880 ca        1 NHP      0.117600
      4 C4          1.4600   -0.3060    2.3480 ca        1 NHP     -0.182000
      5 C5          0.0830   -0.2190    2.5160 ca        1 NHP     -0.132000
      6 C6         -0.7360    0.1000    1.4360 ca        1 NHP     -0.156000
      7 N1          3.4470   -0.0910    0.9470 nv        1 NHP     -0.802200
      8 S1          1.9420    0.5510   -1.5170 ss        1 NHP     -0.275000
      9 C7          0.6760    0.2990   -2.7530 c3        1 NHP      0.019700
     10 C8          1.3770    0.2400   -4.0840 c3        1 NHP     -0.077400
     11 C9          0.3680    0.0120   -5.2030 c3        1 NHP     -0.053400
     12 C10         0.9800   -0.0720   -6.5510 c3        1 NHP     -0.272600
     13 P1         -0.4690   -0.3630   -7.6290 p5        1 NHP      1.212700
     14 O1          0.1340   -0.4500   -9.0120 o         1 NHP     -0.956833
     15 O2         -1.0410   -1.6570   -7.0910 o         1 NHP     -0.956833
     16 O3         -1.3330    0.8550   -7.3770 o         1 NHP     -0.956833
     17 H1         -0.8270    0.5840   -0.6670 ha        1 NHP      0.149000
     18 H4          2.0950   -0.5650    3.2080 ha        1 NHP      0.113000
     19 H5         -0.3570   -0.4070    3.5050 ha        1 NHP      0.110000
     20 H6         -1.8250    0.1620    1.5640 ha        1 NHP      0.121000
     21 HN11        3.7390   -0.1630   -0.0100 hn        1 NHP      0.379800
     22 HN12        3.8730   -0.7930    1.5160 hn        1 NHP      0.379800
     23 H71         0.1230   -0.6500   -2.5550 h1        1 NHP      0.065200
     24 H72        -0.0500    1.1450   -2.7310 h1        1 NHP      0.065200
     25 H81         2.1280   -0.5930   -4.0870 hc        1 NHP      0.028200
     26 H82         1.9300    1.1970   -4.2700 hc        1 NHP      0.028200
     27 H91        -0.1980   -0.9450   -5.0230 hc        1 NHP      0.067200
     28 H92        -0.3880    0.8460   -5.2200 hc        1 NHP      0.067200
     29 H101        1.6820   -0.9210   -6.6600 hc        1 NHP      0.013700
     30 H102        1.4770    0.8650   -6.8640 hc        1 NHP      0.013700
@<TRIPOS>BOND
     1    1    2 ar  
     2    1    6 ar  
     3    1   17 1   
     4    2    3 ar  
     5    2    8 1   
     6    3    4 ar  
     7    3    7 1   
     8    4    5 ar  
     9    4   18 1   
    10    5    6 ar  
    11    5   19 1   
    12    6   20 1   
    13    7   21 1   
    14    7   22 1   
    15    8    9 1   
    16    9   10 1   
    17    9   23 1   
    18    9   24 1   
    19   10   11 1   
    20   10   25 1   
    21   10   26 1   
    22   11   12 1   
    23   11   27 1   
    24   11   28 1   
    25   12   13 1   
    26   12   29 1   
    27   12   30 1   
    28   13   14 1   
    29   13   15 1   
    30   13   16 1   
@<TRIPOS>SUBSTRUCTURE
     1 NHP         1 TEMP              0 ****  ****    0 ROOT
