@<TRIPOS>MOLECULE
NHR
   54    56     1     0     0
SMALL
bcc


@<TRIPOS>ATOM
      1 N1         -2.6890    0.0620    4.7220 nb        1 NHR     -0.807000
      2 C2         -3.6110   -0.0550    3.7310 ca        1 NHR      0.858900
      3 NA2        -4.9860    0.0840    4.0810 nh        1 NHR     -0.905500
      4 N3         -3.3550   -0.3510    2.3820 nb        1 NHR     -0.833000
      5 C4         -2.0710   -0.5700    2.0580 ca        1 NHR      0.741600
      6 O4         -1.6930   -0.8590    0.7980 oh        1 NHR     -0.602300
      7 C4A        -0.9920   -0.5130    3.0370 ca        1 NHR     -0.300600
      8 C8A        -1.3730   -0.1760    4.3700 ca        1 NHR      0.444600
      9 C8         -0.3350   -0.0760    5.3430 ca        1 NHR     -0.232300
     10 C7          0.9780   -0.2950    4.9880 ca        1 NHR     -0.095000
     11 C9          2.7750   -0.8770    3.3240 c3        1 NHR     -0.018100
     12 C10         3.4680    0.2970    2.6350 c3        1 NHR     -0.144400
     13 CA1         4.9820   -0.0490    2.5320 c         1 NHR      0.921600
     14 OA1         5.3230   -1.1520    2.0210 o         1 NHR     -0.846800
     15 C6          1.3470   -0.6320    3.6660 ca        1 NHR     -0.100300
     16 C5          0.3540   -0.7410    2.7040 ca        1 NHR     -0.045000
     17 C16         2.1190   -0.1340   -0.8900 ca        1 NHR     -0.107000
     18 C11         1.3920    1.0490   -1.0550 ca        1 NHR     -0.142600
     19 C17         0.4890    1.3020   -2.2250 c         1 NHR      0.655700
     20 O17         0.4550    2.4430   -2.7460 o         1 NHR     -0.657100
     21 C12         1.4670    2.0390   -0.0680 ca        1 NHR     -0.107000
     22 C13         2.1830    1.8120    1.1040 ca        1 NHR     -0.149500
     23 C14         2.8450    0.5940    1.3130 ca        1 NHR     -0.026300
     24 C15         2.8480   -0.3530    0.2780 ca        1 NHR     -0.149500
     25 N          -0.2560    0.2400   -2.6890 n         1 NHR     -0.496900
     26 CA         -1.4940    0.4250   -3.4330 c3        1 NHR     -0.031300
     27 C          -2.7270    0.0950   -2.5310 c         1 NHR      0.903600
     28 O          -3.7530    0.8200   -2.6250 o         1 NHR     -0.861800
     29 CB         -1.5820   -0.4440   -4.6980 c3        1 NHR     -0.048400
     30 CG         -0.6650    0.0120   -5.8080 c3        1 NHR     -0.178400
     31 CD         -0.8710   -0.7710   -7.1090 c         1 NHR      0.902600
     32 OE1        -0.6630   -2.0220   -7.1320 o         1 NHR     -0.879800
     33 OE2        -1.2090   -0.1320   -8.1550 o         1 NHR     -0.879800
     34 OT         -2.6540   -0.8920   -1.7280 o         1 NHR     -0.861800
     35 OA2         5.7980    0.7830    3.0230 o         1 NHR     -0.846800
     36 HNA1       -5.5670    0.2830    3.2920 hn        1 NHR      0.386800
     37 HNA2       -5.1310    0.7270    4.8300 hn        1 NHR      0.386800
     38 H4O        -2.4360   -0.7760    0.1370 ho        1 NHR      0.530000
     39 H8         -0.5960    0.1850    6.3780 ha        1 NHR      0.120000
     40 H7          1.7700   -0.2020    5.7470 ha        1 NHR      0.120000
     41 H91         3.3500   -1.1130    4.2600 hc        1 NHR      0.052200
     42 H92         2.8570   -1.7730    2.6490 hc        1 NHR      0.052200
     43 H101        3.3820    1.2050    3.2930 hc        1 NHR      0.042700
     44 H5          0.6130   -0.9830    1.6570 ha        1 NHR      0.176000
     45 H161        2.1120   -0.9000   -1.6810 ha        1 NHR      0.133500
     46 H121        0.9380    2.9910   -0.2270 ha        1 NHR      0.133500
     47 H131        2.2150    2.5880    1.8820 ha        1 NHR      0.137000
     48 H151        3.4470   -1.2700    0.4110 ha        1 NHR      0.137000
     49 HN         -0.2700   -0.5800   -2.1160 hn        1 NHR      0.308500
     50 HA         -1.5650    1.5090   -3.7380 h1        1 NHR      0.072700
     51 HB1        -1.3670   -1.5150   -4.4510 hc        1 NHR      0.045700
     52 HB2        -2.6460   -0.3870   -5.0490 hc        1 NHR      0.045700
     53 HG1        -0.8310    1.1010   -6.0130 hc        1 NHR      0.023700
     54 HG2         0.4020   -0.1180   -5.4940 hc        1 NHR      0.023700
@<TRIPOS>BOND
     1    1    2 ar  
     2    1    8 ar  
     3    2    3 1   
     4    2    4 ar  
     5    3   36 1   
     6    3   37 1   
     7    4    5 ar  
     8    5    6 1   
     9    5    7 ar  
    10    6   38 1   
    11    7    8 ar  
    12    7   16 ar  
    13    8    9 ar  
    14    9   10 ar  
    15    9   39 1   
    16   10   15 ar  
    17   10   40 1   
    18   11   12 1   
    19   11   15 1   
    20   11   41 1   
    21   11   42 1   
    22   12   13 1   
    23   12   23 1   
    24   12   43 1   
    25   13   14 1   
    26   13   35 1   
    27   15   16 ar  
    28   16   44 1   
    29   17   18 ar  
    30   17   24 ar  
    31   17   45 1   
    32   18   19 1   
    33   18   21 ar  
    34   19   20 2   
    35   19   25 1   
    36   21   22 ar  
    37   21   46 1   
    38   22   23 ar  
    39   22   47 1   
    40   23   24 ar  
    41   24   48 1   
    42   25   26 1   
    43   25   49 1   
    44   26   27 1   
    45   26   29 1   
    46   26   50 1   
    47   27   28 1   
    48   27   34 1   
    49   29   30 1   
    50   29   51 1   
    51   29   52 1   
    52   30   31 1   
    53   30   53 1   
    54   30   54 1   
    55   31   32 1   
    56   31   33 1   
@<TRIPOS>SUBSTRUCTURE
     1 NHR         1 TEMP              0 ****  ****    0 ROOT
