@<TRIPOS>MOLECULE
NHR
   56    58     1     0     0
SMALL
bcc


@<TRIPOS>ATOM
      1 N1          0.5130    0.0760    0.3310 nb        1 NHR     -0.772000
      2 C2          1.8180    0.3450    0.5960 ca        1 NHR      0.866900
      3 NA2         2.7040    0.5000   -0.4950 nh        1 NHR     -0.911500
      4 N3          2.3740    0.5520    1.8770 nb        1 NHR     -0.834000
      5 C4          1.5120    0.5070    2.8960 ca        1 NHR      0.710600
      6 O4          1.9580    0.7080    4.1750 oh        1 NHR     -0.615300
      7 C4A         0.0980    0.2440    2.7500 ca        1 NHR     -0.291600
      8 C8A        -0.3510    0.0440    1.4080 ca        1 NHR      0.450600
      9 C8         -1.7440   -0.1970    1.2080 ca        1 NHR     -0.211300
     10 C7         -2.6060   -0.2300    2.2800 ca        1 NHR     -0.084000
     11 C9         -3.1130   -0.1080    4.7440 c3        1 NHR     -0.024100
     12 C10        -3.6090    1.2500    5.2290 c3        1 NHR     -0.176400
     13 CA1        -4.5700    0.9860    6.4420 c         1 NHR      0.926600
     14 OA1        -5.7320    1.4540    6.3540 o         1 NHR     -0.820800
     15 C6         -2.1520   -0.0420    3.6090 ca        1 NHR     -0.080300
     16 C5         -0.8040    0.1860    3.8290 ca        1 NHR     -0.069000
     17 C16        -0.5020    2.5150    6.9710 ca        1 NHR     -0.096000
     18 C11        -0.2160    3.6680    6.2250 ca        1 NHR     -0.189600
     19 C17         1.0510    4.4100    6.4100 c         1 NHR      0.690700
     20 O17         1.1420    5.6520    6.4710 o         1 NHR     -0.620100
     21 C12        -1.1180    4.1080    5.2510 ca        1 NHR     -0.096000
     22 C13        -2.2450    3.3450    4.9540 ca        1 NHR     -0.142500
     23 C14        -2.4890    2.1410    5.6290 ca        1 NHR      0.021700
     24 C15        -1.6360    1.7680    6.6840 ca        1 NHR     -0.142500
     25 N           2.2030    3.6270    6.5230 n         1 NHR     -0.585900
     26 CA          3.5150    4.2100    6.4810 c3        1 NHR      0.068700
     27 C           4.4300    3.4520    5.5270 c         1 NHR      0.626100
     28 O           4.3310    2.3020    5.0890 o         1 NHR     -0.566000
     29 CB          4.2170    4.2600    7.8540 c3        1 NHR     -0.085400
     30 CG          3.6720    5.4090    8.6770 c3        1 NHR     -0.182400
     31 CD          4.0560    5.2600   10.1170 c         1 NHR      0.628100
     32 OE1         3.4170    4.3250   10.8840 oh        1 NHR     -0.586100
     33 OE2         4.9110    5.8980   10.7320 o         1 NHR     -0.501000
     34 OT          5.5100    4.1730    5.1240 oh        1 NHR     -0.600100
     35 OA2        -4.1190    0.3050    7.4040 o         1 NHR     -0.820800
     36 HNA1        6.0460    3.6430    4.5100 ho        1 NHR      0.447000
     37 HNA2        3.6620    0.3420   -0.2750 hn        1 NHR      0.404300
     38 H4O         2.9120    0.9170    4.1700 ho        1 NHR      0.459000
     39 H8         -2.1180   -0.3490    0.1840 ha        1 NHR      0.141000
     40 H7         -3.6810   -0.4050    2.1140 ha        1 NHR      0.138000
     41 H91        -4.0120   -0.7100    4.4450 hc        1 NHR      0.064200
     42 H92        -2.6350   -0.6340    5.6170 hc        1 NHR      0.064200
     43 H101       -4.2130    1.7390    4.4180 hc        1 NHR      0.055700
     44 H5         -0.4250    0.3450    4.8530 ha        1 NHR      0.158000
     45 H161        0.1650    2.2010    7.7870 ha        1 NHR      0.125500
     46 H121       -0.9210    5.0470    4.7130 ha        1 NHR      0.125500
     47 H131       -2.9440    3.6840    4.1750 ha        1 NHR      0.163000
     48 H151       -1.9130    0.8800    7.2850 ha        1 NHR      0.163000
     49 HN          2.7400    3.8760   10.3580 ho        1 NHR      0.432000
     50 HA          3.4310    5.2770    6.0960 h1        1 NHR      0.117700
     51 HB1         4.0790    3.2900    8.3980 hc        1 NHR      0.063200
     52 HB2         5.3170    4.4070    7.6860 hc        1 NHR      0.063200
     53 HG1         2.5510    5.4630    8.5880 hc        1 NHR      0.095700
     54 HG2         4.0820    6.3820    8.2940 hc        1 NHR      0.095700
     55 HA23        2.4030    0.0580   -1.3350 hn        1 NHR      0.404300
     56 H2          2.1330    2.6470    6.3530 hn        1 NHR      0.334500
@<TRIPOS>BOND
     1    1    2 ar  
     2    1    8 ar  
     3    2    3 1   
     4    2    4 ar  
     5    3   37 1   
     6    3   55 1   
     7    4    5 ar  
     8    5    6 1   
     9    5    7 ar  
    10    6   38 1   
    11    7    8 ar  
    12    7   16 ar  
    13    8    9 ar  
    14    9   10 ar  
    15    9   39 1   
    16   10   15 ar  
    17   10   40 1   
    18   11   12 1   
    19   11   15 1   
    20   11   41 1   
    21   11   42 1   
    22   12   13 1   
    23   12   23 1   
    24   12   43 1   
    25   13   14 1   
    26   13   35 1   
    27   15   16 ar  
    28   16   44 1   
    29   17   18 ar  
    30   17   24 ar  
    31   17   45 1   
    32   18   19 1   
    33   18   21 ar  
    34   19   20 2   
    35   19   25 1   
    36   21   22 ar  
    37   21   46 1   
    38   22   23 ar  
    39   22   47 1   
    40   23   24 ar  
    41   24   48 1   
    42   25   26 1   
    43   25   56 1   
    44   26   27 1   
    45   26   29 1   
    46   26   50 1   
    47   27   28 2   
    48   27   34 1   
    49   29   30 1   
    50   29   51 1   
    51   29   52 1   
    52   30   31 1   
    53   30   53 1   
    54   30   54 1   
    55   31   32 1   
    56   31   33 2   
    57   32   49 1   
    58   34   36 1   
@<TRIPOS>SUBSTRUCTURE
     1 NHR         1 TEMP              0 ****  ****    0 ROOT
