@<TRIPOS>MOLECULE
NHR
   54    50     1     0     0
SMALL
bcc


@<TRIPOS>ATOM
      1 N1         -4.3220   -5.0020   -4.5170 n1        1 NHR     -0.231000
      2 C2         -3.6130   -5.7330   -5.4470 c1        1 NHR      0.115000
      3 NA2        -4.2110   -6.7070   -6.3880 n3        1 NHR     -0.297000
      4 N3         -2.2460   -5.6780   -5.4640 n1        1 NHR     -0.319000
      5 C4         -1.5820   -4.9010   -4.5630 c1        1 NHR      0.197000
      6 O4         -0.4270   -5.1650   -5.3010 oh        1 NHR     -0.233000
      7 C4A        -2.2910   -4.1640   -3.6260 c1        1 NHR     -0.153000
      8 C8A        -3.6540   -4.2170   -3.6060 c1        1 NHR      0.041000
      9 C8         -4.3890   -3.4470   -2.6350 c2        1 NHR     -0.154000
     10 C7         -3.7070   -2.6510   -1.7180 c1        1 NHR     -0.071000
     11 C9         -1.3660   -1.7920   -0.8560 c3        1 NHR     -0.123000
     12 C10        -2.0990   -0.6070   -0.2990 c3        1 NHR     -0.141000
     13 CA1        -2.9150   -1.0360    0.8720 c2        1 NHR      0.336000
     14 OA1        -2.5180   -1.9580    1.5960 o         1 NHR     -0.578500
     15 C6         -2.3060   -2.6010   -1.7420 c1        1 NHR     -0.036000
     16 C5         -1.5940   -3.3500   -2.6880 c2        1 NHR     -0.104000
     17 C16         0.5870    1.2370    1.6960 c1        1 NHR     -0.113000
     18 C11         0.6720    2.4380    1.0030 c1        1 NHR     -0.110000
     19 C17         1.6790    3.4760    1.4180 c2        1 NHR      0.324000
     20 O17         1.7520    4.5270    0.8090 o         1 NHR     -0.428000
     21 C12        -0.1210    2.6530   -0.1180 c1        1 NHR     -0.105000
     22 C13        -0.9950    1.6690   -0.5450 c1        1 NHR     -0.161000
     23 C14        -1.0820    0.4630    0.1480 c2        1 NHR     -0.035000
     24 C15        -0.2920    0.2480    1.2670 c2        1 NHR     -0.130000
     25 N           2.6710    3.1690    2.4940 n         1 NHR     -0.310000
     26 CA          3.6490    4.1650    2.8820 c3        1 NHR     -0.066000
     27 C           4.8800    4.0490    1.9870 c2        1 NHR      0.326000
     28 O           5.5030    2.9480    1.9080 o         1 NHR     -0.591000
     29 CB          4.0500    3.9410    4.3060 c3        1 NHR     -0.126000
     30 CG          4.4440    5.2950    4.9530 c3        1 NHR     -0.204000
     31 CD          5.0960    5.0380    6.2960 c2        1 NHR      0.322000
     32 OE1         6.3560    4.9590    6.3830 o         1 NHR     -0.620000
     33 OE2         4.3910    4.9710    7.3310 o         1 NHR     -0.620000
     34 OT          5.2600    5.0250    1.3220 o         1 NHR     -0.591000
     35 OA2        -4.0320   -0.4990    1.0930 o         1 NHR     -0.578500
     36 HNA1       -3.6610   -7.1740   -6.9970 hn        1 NHR      0.180500
     37 HNA2       -5.1060   -6.8980   -6.3410 hn        1 NHR      0.180500
     38 H4O         0.0970   -5.7280   -4.8440 ho        1 NHR      0.228000
     39 H8         -5.4130   -3.4870   -2.6180 ha        1 NHR      0.140000
     40 H7         -4.2090   -2.0320   -1.1400 ha        1 NHR      0.220000
     41 H91        -0.6270   -1.4940   -1.3690 hc        1 NHR      0.104500
     42 H92        -1.0560   -2.3370   -0.1410 hc        1 NHR      0.104500
     43 H101       -2.6900   -0.2290   -0.9920 hc        1 NHR      0.084000
     44 H5         -0.5960   -3.3140   -2.7040 ha        1 NHR      0.149000
     45 H161        1.1690    1.0790    2.5040 ha        1 NHR      0.137000
     46 H121       -0.1450    3.5300   -0.5300 ha        1 NHR      0.134000
     47 H131       -1.5800    1.8330   -1.3270 ha        1 NHR      0.109000
     48 H151       -0.1010   -0.4530    1.9180 ha        1 NHR      0.167000
     49 HN          2.6110    2.4070    2.9480 hn        1 NHR      0.228000
     50 HA          3.2600    5.0570    2.7890 h1        1 NHR      0.106000
     51 HB1         3.2760    3.5360    4.8140 hc        1 NHR      0.076500
     52 HB2         4.8170    3.3280    4.3380 hc        1 NHR      0.076500
     53 HG1         5.0790    5.7690    4.3650 hc        1 NHR      0.072500
     54 HG2         3.6430    5.8440    5.0770 hc        1 NHR      0.072500
@<TRIPOS>BOND
     1    1    8 1   
     2    2    3 1   
     3    2    4 1   
     4    3   36 1   
     5    3   37 1   
     6    5    6 1   
     7    5    7 1   
     8    6   38 1   
     9    7   16 1   
    10    8    9 1   
    11    9   10 1   
    12    9   39 1   
    13   10   40 1   
    14   11   12 1   
    15   11   15 1   
    16   11   41 1   
    17   11   42 1   
    18   12   13 1   
    19   12   23 1   
    20   12   43 1   
    21   13   14 1   
    22   13   35 1   
    23   15   16 1   
    24   16   44 1   
    25   17   24 1   
    26   17   45 1   
    27   18   19 1   
    28   18   21 1   
    29   19   20 1   
    30   19   25 1   
    31   21   46 1   
    32   22   23 1   
    33   22   47 1   
    34   23   24 1   
    35   24   48 1   
    36   25   26 1   
    37   25   49 1   
    38   26   27 1   
    39   26   29 1   
    40   26   50 1   
    41   27   28 1   
    42   27   34 1   
    43   29   30 1   
    44   29   51 1   
    45   29   52 1   
    46   30   31 1   
    47   30   53 1   
    48   30   54 1   
    49   31   32 1   
    50   31   33 1   
@<TRIPOS>SUBSTRUCTURE
     1 NHR         1 TEMP              0 ****  ****    0 ROOT
