@<TRIPOS>MOLECULE
NHR
   55    57     1     0     0
SMALL
bcc


@<TRIPOS>ATOM
      1 N1          0.6890    0.2860    0.3810 nb        1 NHR     -0.794000
      2 C2          1.9830    0.5620    0.6910 ca        1 NHR      0.863900
      3 NA2         2.9390    0.5420   -0.3590 nv        1 NHR     -0.907500
      4 N3          2.4920    0.8210    1.9760 nb        1 NHR     -0.826000
      5 C4          1.6150    0.7400    2.9840 ca        1 NHR      0.730600
      6 O4          1.9940    0.9820    4.2640 oh        1 NHR     -0.615300
      7 C4A         0.2140    0.4050    2.7920 ca        1 NHR     -0.298600
      8 C8A        -0.1960    0.2020    1.4400 ca        1 NHR      0.447600
      9 C8         -1.5750   -0.0840    1.2060 ca        1 NHR     -0.223300
     10 C7         -2.4600   -0.1570    2.2580 ca        1 NHR     -0.091000
     11 C9         -3.0280   -0.0670    4.7100 c3        1 NHR     -0.020100
     12 C10        -3.5340    1.2750    5.2320 c3        1 NHR     -0.157400
     13 CA1        -4.5710    0.9760    6.3620 c         1 NHR      0.922600
     14 OA1        -5.7210    1.4770    6.2290 o         1 NHR     -0.836800
     15 C6         -2.0450    0.0360    3.5970 ca        1 NHR     -0.094300
     16 C5         -0.7090    0.3070    3.8480 ca        1 NHR     -0.055000
     17 C16        -0.4560    2.4130    7.1230 ca        1 NHR     -0.104500
     18 C11        -0.1240    3.5840    6.4310 ca        1 NHR     -0.158600
     19 C17         1.1510    4.3110    6.6980 c         1 NHR      0.661700
     20 O17         1.1680    5.5490    6.9010 o         1 NHR     -0.664100
     21 C12        -0.9860    4.0720    5.4450 ca        1 NHR     -0.104500
     22 C13        -2.1200    3.3460    5.0880 ca        1 NHR     -0.144000
     23 C14        -2.4150    2.1290    5.7180 ca        1 NHR     -0.005300
     24 C15        -1.6020    1.7020    6.7800 ca        1 NHR     -0.144000
     25 N           2.2990    3.5500    6.7440 ns        1 NHR     -0.533900
     26 CA          3.6240    4.1290    6.6950 c3        1 NHR     -0.041300
     27 C           4.6200    3.2820    5.8240 c         1 NHR      0.920600
     28 O           4.2930    2.1110    5.4740 o         1 NHR     -0.836800
     29 CB          4.2650    4.2970    8.0810 c3        1 NHR     -0.073400
     30 CG          3.7530    5.5330    8.7930 c3        1 NHR     -0.190400
     31 CD          3.8810    5.4250   10.2780 c         1 NHR      0.637100
     32 OE1         4.5320    6.1460   11.0410 o         1 NHR     -0.545000
     33 OE2         3.1950    4.4400   10.9380 oh        1 NHR     -0.606100
     34 OT          5.7140    3.8320    5.5360 o         1 NHR     -0.836800
     35 OA2        -4.2180    0.2280    7.3160 o         1 NHR     -0.836800
     36 HNA1        3.7760    1.0420   -0.1450 hn        1 NHR      0.395300
     37 HNA2        2.5580    0.7800   -1.2490 hn        1 NHR      0.395300
     38 H4O         2.9350    1.2770    4.3190 ho        1 NHR      0.511000
     39 H8         -1.9200   -0.2410    0.1740 ha        1 NHR      0.129000
     40 H7         -3.5230   -0.3660    2.0630 ha        1 NHR      0.126000
     41 H91        -3.9200   -0.6600    4.3720 hc        1 NHR      0.056700
     42 H92        -2.5680   -0.6230    5.5730 hc        1 NHR      0.056700
     43 H101       -4.0810    1.8080    4.4080 hc        1 NHR      0.047700
     44 H5         -0.3570    0.4750    4.8820 ha        1 NHR      0.167000
     45 H161        0.1920    2.0490    7.9330 ha        1 NHR      0.126000
     46 H121       -0.7500    5.0220    4.9440 ha        1 NHR      0.126000
     47 H131       -2.7810    3.7230    4.2950 ha        1 NHR      0.148500
     48 H151       -1.9050    0.7970    7.3360 ha        1 NHR      0.148500
     49 HN          2.2520    2.6110    6.3970 hn        1 NHR      0.332500
     50 HA          3.5590    5.1520    6.2190 h1        1 NHR      0.062700
     51 HB1         5.3740    4.3890    7.9240 hc        1 NHR      0.055200
     52 HB2         4.0890    3.3810    8.7030 hc        1 NHR      0.055200
     53 HG1         2.6670    5.7060    8.5410 hc        1 NHR      0.093200
     54 HG2         4.3230    6.4340    8.4450 hc        1 NHR      0.093200
     55 H2          2.6990    3.9100   10.2960 ho        1 NHR      0.438000
@<TRIPOS>BOND
     1    1    2 ar  
     2    1    8 ar  
     3    2    3 1   
     4    2    4 ar  
     5    3   36 1   
     6    3   37 1   
     7    4    5 ar  
     8    5    6 1   
     9    5    7 ar  
    10    6   38 1   
    11    7    8 ar  
    12    7   16 ar  
    13    8    9 ar  
    14    9   10 ar  
    15    9   39 1   
    16   10   15 ar  
    17   10   40 1   
    18   11   12 1   
    19   11   15 1   
    20   11   41 1   
    21   11   42 1   
    22   12   13 1   
    23   12   23 1   
    24   12   43 1   
    25   13   14 1   
    26   13   35 1   
    27   15   16 ar  
    28   16   44 1   
    29   17   18 ar  
    30   17   24 ar  
    31   17   45 1   
    32   18   19 1   
    33   18   21 ar  
    34   19   20 2   
    35   19   25 1   
    36   21   22 ar  
    37   21   46 1   
    38   22   23 ar  
    39   22   47 1   
    40   23   24 ar  
    41   24   48 1   
    42   25   26 1   
    43   25   49 1   
    44   26   27 1   
    45   26   29 1   
    46   26   50 1   
    47   27   28 1   
    48   27   34 1   
    49   29   30 1   
    50   29   51 1   
    51   29   52 1   
    52   30   31 1   
    53   30   53 1   
    54   30   54 1   
    55   31   32 2   
    56   31   33 1   
    57   33   55 1   
@<TRIPOS>SUBSTRUCTURE
     1 NHR         1 TEMP              0 ****  ****    0 ROOT
