@<TRIPOS>MOLECULE
NHS
   54    48     1     0     0
SMALL
bcc


@<TRIPOS>ATOM
      1 N1         -6.3810    4.6760   -0.3000 n1        1 NHS     -0.220000
      2 C2         -7.6170    4.2080    0.0950 c1        1 NHS      0.143000
      3 NA2        -8.6000    5.2800   -0.0070 n2        1 NHS     -0.307000
      4 N3         -7.7600    2.8950    0.5130 n3        1 NHS     -0.344000
      5 C4         -6.6860    2.0680    0.5350 c1        1 NHS      0.355000
      6 O4         -6.7840    0.9450    1.0510 o         1 NHS     -0.371000
      7 C4A        -5.4440    2.5360    0.1380 c1        1 NHS     -0.082000
      8 C5         -4.3220    1.6730    0.1640 c1        1 NHS     -0.109500
      9 C6         -3.0780    2.1410   -0.2300 c1        1 NHS     -0.038000
     10 C7         -2.9290    3.4770   -0.6560 c1        1 NHS     -0.084000
     11 C8         -4.0290    4.3260   -0.6810 c1        1 NHS     -0.109500
     12 C8A        -5.3000    3.8470   -0.2790 c1        1 NHS     -0.082000
     13 C9         -2.0070    1.0750   -0.2140 c3        1 NHS     -0.123000
     14 C10        -0.6100    1.7480   -0.1500 c3        1 NHS     -0.139000
     15 C11         2.4690   -0.9720    1.1540 c1        1 NHS     -0.109000
     16 C12         1.5940   -1.3500    0.1420 c1        1 NHS     -0.120500
     17 C13         0.5640   -0.4900   -0.2480 c1        1 NHS     -0.120500
     18 C14         0.4160    0.7470    0.3760 c1        1 NHS     -0.037000
     19 C15         1.2960    1.1250    1.3910 c1        1 NHS     -0.166000
     20 C16         2.3200    0.2680    1.7790 c1        1 NHS     -0.105000
     21 C           3.6570   -1.9150    1.5570 c2        1 NHS      0.324000
     22 O           4.4270   -1.5830    2.4470 o         1 NHS     -0.434000
     23 N           3.8280   -3.1880    0.8910 n         1 NHS     -0.311000
     24 CA          5.1520   -3.7280    0.6930 c3        1 NHS     -0.064000
     25 CB          5.1120   -4.7410   -0.3920 c3        1 NHS     -0.128000
     26 CG          6.4560   -5.3910   -0.5140 c3        1 NHS     -0.203000
     27 CD          6.6430   -5.9390   -1.9630 c2        1 NHS      0.322000
     28 OE1         7.2840   -5.2660   -2.8100 o         1 NHS     -0.620000
     29 OE2         6.0450   -6.9880   -2.3180 o         1 NHS     -0.620000
     30 CT          6.1190   -2.6040    0.3110 c2        1 NHS      0.327000
     31 O1          5.8890   -1.8910   -0.7040 o         1 NHS     -0.590000
     32 O2          7.1920   -2.4510    0.9600 o         1 NHS     -0.590000
     33 CA1        -0.2210    2.1870   -1.4940 c2        1 NHS      0.335000
     34 OA1         0.3930    3.2960   -1.6490 o         1 NHS     -0.578500
     35 OA2        -0.5880    1.5260   -2.4990 o         1 NHS     -0.578500
     36 HN21       -9.4580    5.1500    0.3050 hn        1 NHS      0.174000
     37 HN22       -8.3570    6.1010   -0.3760 hn        1 NHS      0.174000
     38 HN3        -8.6050    2.5760    0.7830 hn        1 NHS      0.235000
     39 H5         -4.4290    0.7100    0.4690 ha        1 NHS      0.146000
     40 H7         -2.0520    3.8070   -0.9260 ha        1 NHS      0.223000
     41 H8         -3.9340    5.2760   -1.0490 ha        1 NHS      0.146000
     42 H91        -2.0750    0.5230   -1.0470 hc        1 NHS      0.104000
     43 H92        -2.1280    0.4980    0.5730 hc        1 NHS      0.104000
     44 H10        -0.6480    2.5240    0.4500 hc        1 NHS      0.084000
     45 H12         1.6840   -2.2170   -0.2750 ha        1 NHS      0.155500
     46 H13        -0.0290   -0.7440   -0.9510 ha        1 NHS      0.155500
     47 H15         1.1760    2.0140    1.8610 ha        1 NHS      0.107000
     48 H16         2.8160    0.6750    2.5230 ha        1 NHS      0.135000
     49 HN          3.0730   -3.6810    0.6180 hn        1 NHS      0.232000
     50 HA          5.4650   -4.1600    1.5390 h1        1 NHS      0.106000
     51 HB1         4.8900   -4.3230   -1.2050 hc        1 NHS      0.077000
     52 HB2         4.4470   -5.4110   -0.1830 hc        1 NHS      0.077000
     53 HG1         6.5200   -6.1290    0.1250 hc        1 NHS      0.072000
     54 HG2         7.1480   -4.7380   -0.3230 hc        1 NHS      0.072000
@<TRIPOS>BOND
     1    1    2 1   
     2    2    4 1   
     3    3   36 1   
     4    3   37 1   
     5    4    5 1   
     6    4   38 1   
     7    5    6 1   
     8    7    8 1   
     9    7   12 1   
    10    8   39 1   
    11    9   10 1   
    12    9   13 1   
    13   10   40 1   
    14   11   12 1   
    15   11   41 1   
    16   13   14 1   
    17   13   42 1   
    18   13   43 1   
    19   14   18 1   
    20   14   33 1   
    21   14   44 1   
    22   15   20 1   
    23   15   21 1   
    24   16   17 1   
    25   16   45 1   
    26   17   46 1   
    27   18   19 1   
    28   19   47 1   
    29   20   48 1   
    30   21   22 1   
    31   21   23 1   
    32   23   24 1   
    33   23   49 1   
    34   24   25 1   
    35   24   30 1   
    36   24   50 1   
    37   25   26 1   
    38   25   51 1   
    39   25   52 1   
    40   26   27 1   
    41   26   53 1   
    42   26   54 1   
    43   27   28 1   
    44   27   29 1   
    45   30   31 1   
    46   30   32 1   
    47   33   34 1   
    48   33   35 1   
@<TRIPOS>SUBSTRUCTURE
     1 NHS         1 TEMP              0 ****  ****    0 ROOT
