@<TRIPOS>MOLECULE
NHS
   54    56     1     0     0
SMALL
bcc


@<TRIPOS>ATOM
      1 N1         -3.9240    0.1980   -4.3370 nc        1 NHS     -0.635100
      2 C2         -4.4380   -0.1800   -5.5020 cd        1 NHS      0.587800
      3 NA2        -5.7800    0.2020   -5.8700 nh        1 NHS     -0.867800
      4 N3         -3.7310   -0.9370   -6.4650 n         1 NHS     -0.502400
      5 C4         -2.3860   -1.2880   -6.2510 c         1 NHS      0.718100
      6 O4         -1.8150   -1.9290   -7.1550 o         1 NHS     -0.654500
      7 C4A        -1.7950   -0.8730   -4.9720 ca        1 NHS     -0.189600
      8 C5         -0.4690   -1.1990   -4.6620 ca        1 NHS     -0.083000
      9 C6          0.0880   -0.8140   -3.4420 ca        1 NHS     -0.049300
     10 C7         -0.7020   -0.0820   -2.5370 ca        1 NHS     -0.084000
     11 C8         -2.0140    0.2590   -2.8270 ca        1 NHS     -0.118000
     12 C8A        -2.5930   -0.1330   -4.0570 ca        1 NHS      0.150400
     13 C9          1.4830   -1.2020   -3.0950 c3        1 NHS     -0.029100
     14 C10         2.3770   -0.0380   -2.6750 c3        1 NHS     -0.150400
     15 C11         1.9100    0.7900    1.5270 ca        1 NHS     -0.135600
     16 C12         1.5930    1.7610    0.5720 ca        1 NHS     -0.107000
     17 C13         1.7610    1.4950   -0.7850 ca        1 NHS     -0.155000
     18 C14         2.2610    0.2580   -1.2160 ca        1 NHS     -0.038300
     19 C15         2.6260   -0.6910   -0.2500 ca        1 NHS     -0.155000
     20 C16         2.4420   -0.4330    1.1080 ca        1 NHS     -0.107000
     21 O           2.0490    2.2520    3.4010 o         1 NHS     -0.664100
     22 N           1.0500    0.1920    3.7450 n         1 NHS     -0.490900
     23 CA          0.9940    0.2440    5.1980 c3        1 NHS     -0.040300
     24 CB         -0.4420    0.1920    5.7470 c3        1 NHS     -0.050400
     25 CG         -1.2390    1.4480    5.4880 c3        1 NHS     -0.176400
     26 CD         -2.6380    1.4120    6.1130 c         1 NHS      0.902600
     27 OE1        -3.4600    0.5070    5.7720 o         1 NHS     -0.882300
     28 OE2        -2.9600    2.3280    6.9340 o         1 NHS     -0.882300
     29 CT          1.8000   -0.9380    5.8370 c         1 NHS      0.901600
     30 O1          2.2920   -0.7530    6.9860 o         1 NHS     -0.858800
     31 O2          1.9350   -2.0170    5.1860 o         1 NHS     -0.858800
     32 CA1         3.8420   -0.3860   -3.0890 c         1 NHS      0.925600
     33 OA1         4.4860    0.4980   -3.7190 o         1 NHS     -0.841300
     34 OA2         4.2830   -1.5400   -2.8310 o         1 NHS     -0.841300
     35 HN21       -6.1380    0.8930   -5.2380 hn        1 NHS      0.380300
     36 HN22       -6.3780   -0.6020   -5.8720 hn        1 NHS      0.380300
     37 HN3        -4.1450   -1.1420   -7.3450 hn        1 NHS      0.321500
     38 H5          0.1270   -1.7650   -5.3960 ha        1 NHS      0.153000
     39 H7         -0.2520    0.2310   -1.5750 ha        1 NHS      0.180000
     40 H8         -2.6080    0.8300   -2.0970 ha        1 NHS      0.153000
     41 H91         1.4530   -1.9580   -2.2640 hc        1 NHS      0.065200
     42 H92         1.9620   -1.7100   -3.9760 hc        1 NHS      0.065200
     43 H10         2.0870    0.8780   -3.2600 hc        1 NHS      0.045700
     44 H12         1.2140    2.7370    0.9090 ha        1 NHS      0.141500
     45 H13         1.5090    2.2680   -1.5260 ha        1 NHS      0.135500
     46 H15         3.0860   -1.6340   -0.5890 ha        1 NHS      0.135500
     47 H16         2.7250   -1.1940    1.8530 ha        1 NHS      0.141500
     48 HN          0.9870   -0.7390    3.3850 hn        1 NHS      0.311500
     49 HA          1.4700    1.2100    5.5360 h1        1 NHS      0.068700
     50 HB1        -0.9900   -0.6890    5.3230 hc        1 NHS      0.045700
     51 HB2        -0.3500    0.0300    6.8540 hc        1 NHS      0.045700
     52 HG1        -0.6870    2.3360    5.8920 hc        1 NHS      0.021700
     53 HG2        -1.3630    1.5970    4.3850 hc        1 NHS      0.021700
     54 C           1.7020    1.1210    2.9790 c         1 NHS      0.652700
@<TRIPOS>BOND
     1    1    2 2   
     2    1   12 1   
     3    2    3 1   
     4    2    4 1   
     5    3   35 1   
     6    3   36 1   
     7    4    5 1   
     8    4   37 1   
     9    5    6 2   
    10    5    7 1   
    11    7    8 ar  
    12    7   12 ar  
    13    8    9 ar  
    14    8   38 1   
    15    9   10 ar  
    16    9   13 1   
    17   10   11 ar  
    18   10   39 1   
    19   11   12 ar  
    20   11   40 1   
    21   13   14 1   
    22   13   41 1   
    23   13   42 1   
    24   14   18 1   
    25   14   32 1   
    26   14   43 1   
    27   15   16 ar  
    28   15   20 ar  
    29   15   54 1   
    30   16   17 ar  
    31   16   44 1   
    32   17   18 ar  
    33   17   45 1   
    34   18   19 ar  
    35   19   20 ar  
    36   19   46 1   
    37   20   47 1   
    38   21   54 2   
    39   22   23 1   
    40   22   48 1   
    41   22   54 1   
    42   23   24 1   
    43   23   29 1   
    44   23   49 1   
    45   24   25 1   
    46   24   50 1   
    47   24   51 1   
    48   25   26 1   
    49   25   52 1   
    50   25   53 1   
    51   26   27 1   
    52   26   28 1   
    53   29   30 1   
    54   29   31 1   
    55   32   33 1   
    56   32   34 1   
@<TRIPOS>SUBSTRUCTURE
     1 NHS         1 TEMP              0 ****  ****    0 ROOT
