@<TRIPOS>MOLECULE
NHT
   32    33     1     0     0
SMALL
bcc


@<TRIPOS>ATOM
      1 C1          0.2470   -0.4540    1.1690 c3        1 NHT      0.225200
      2 C2          0.0420    1.0790    0.9660 c3        1 NHT      0.106500
      3 C3          1.0580    1.7580    0.0120 c3        1 NHT      0.157100
      4 C4          2.3830    0.9880   -0.1130 c3        1 NHT      0.077100
      5 C5          2.0870   -0.4890   -0.3710 c3        1 NHT      0.059100
      6 C6          3.3600   -1.3170   -0.5680 c3        1 NHT      0.137400
      7 C7         -1.9850    0.3030    0.1490 c2        1 NHT      0.661100
      8 C10        -5.3840   -0.7240   -1.0720 c3        1 NHT     -0.103100
      9 N2         -1.3150    1.3640    0.5390 n2        1 NHT     -0.654900
     10 O3          1.3160    3.0320    0.5820 oh        1 NHT     -0.590800
     11 O4          3.0640    1.5910   -1.2020 oh        1 NHT     -0.595800
     12 O5          1.4730   -1.0220    0.8070 os        1 NHT     -0.387600
     13 N1         -3.2340    0.3250   -0.4610 nh        1 NHT     -0.789200
     14 O6          3.0630   -2.6660   -0.8490 oh        1 NHT     -0.588800
     15 S1         -1.1860   -1.2650    0.3670 ss        1 NHT     -0.356300
     16 C9         -4.1080   -0.8100   -0.2510 c3        1 NHT      0.186800
     17 H6          2.5130   -2.9940   -0.1250 ho        1 NHT      0.416000
     18 H6C1        3.9120   -0.9460   -1.4720 h1        1 NHT      0.054200
     19 H6C2        4.0100   -1.2410    0.3450 h1        1 NHT      0.054200
     20 H5          1.3990   -0.6170   -1.2510 h1        1 NHT      0.086700
     21 H4          2.9850    1.1000    0.8320 h1        1 NHT      0.064700
     22 H1          0.1640   -0.7060    2.2640 h2        1 NHT      0.106700
     23 HA          3.9560    1.2240   -1.2140 ho        1 NHT      0.409000
     24 H3          0.6260    1.8810   -1.0220 h1        1 NHT      0.072700
     25 HB          1.8410    3.5170   -0.0680 ho        1 NHT      0.417000
     26 H2          0.1690    1.5740    1.9780 h1        1 NHT      0.110700
     27 H9C1       -4.3860   -0.9100    0.8400 h1        1 NHT      0.049700
     28 H9C2       -3.5390   -1.7420   -0.5430 h1        1 NHT      0.049700
     29 H8         -5.9900    0.1700   -0.7880 hc        1 NHT      0.047033
     30 H11        -5.1590   -0.6680   -2.1640 hc        1 NHT      0.047033
     31 H12        -5.9920   -1.6410   -0.8790 hc        1 NHT      0.047033
     32 H13        -3.6980    1.2120   -0.4690 hn        1 NHT      0.422800
@<TRIPOS>BOND
     1    1    2 1   
     2    1   12 1   
     3    1   15 1   
     4    1   22 1   
     5    2    3 1   
     6    2    9 1   
     7    2   26 1   
     8    3    4 1   
     9    3   10 1   
    10    3   24 1   
    11    4    5 1   
    12    4   11 1   
    13    4   21 1   
    14    5    6 1   
    15    5   12 1   
    16    5   20 1   
    17    6   14 1   
    18    6   18 1   
    19    6   19 1   
    20    7    9 2   
    21    7   13 1   
    22    7   15 1   
    23    8   16 1   
    24    8   29 1   
    25    8   30 1   
    26    8   31 1   
    27   10   25 1   
    28   11   23 1   
    29   13   16 1   
    30   13   32 1   
    31   14   17 1   
    32   16   27 1   
    33   16   28 1   
@<TRIPOS>SUBSTRUCTURE
     1 NHT         1 TEMP              0 ****  ****    0 ROOT
