@<TRIPOS>MOLECULE
NHT
   32    32     1     0     0
SMALL
bcc


@<TRIPOS>ATOM
      1 C1         -0.7480    1.2030   -0.7950 c3        1 NHT      0.136400
      2 C2          0.8890    1.1840   -0.7180 c3        1 NHT      0.069500
      3 C3          1.3720    0.8440    0.6230 c3        1 NHT      0.112100
      4 C4          0.7280    1.6620    1.7040 c3        1 NHT      0.124100
      5 C5         -0.9600    1.6430    1.6050 c3        1 NHT      0.092100
      6 C6         -1.5030    2.5670    2.5920 c3        1 NHT      0.141400
      7 C7          0.1480   -0.9270   -1.3830 c1        1 NHT      0.236400
      8 C10        -0.0500   -4.3940   -2.9870 c3        1 NHT     -0.104100
      9 N2          1.2100    0.0700   -1.4200 n2        1 NHT     -0.622600
     10 O3          2.8260    1.0650    0.6690 oh        1 NHT     -0.608800
     11 O4          1.0980    1.1730    2.8970 oh        1 NHT     -0.594800
     12 O5         -1.4150    2.0020    0.3650 os        1 NHT     -0.386600
     13 N1          0.1860   -2.0650   -2.2990 n3        1 NHT     -0.317400
     14 O6         -2.9190    2.6670    2.4230 oh        1 NHT     -0.593800
     15 S1         -1.1650   -0.3140   -1.0070 s         1 NHT     -0.033300
     16 C9         -0.0800   -3.3940   -1.8090 c3        1 NHT      0.016300
     17 H6         -3.2720    3.0950    3.1180 ho        1 NHT      0.409000
     18 H6C1       -1.0910    3.4610    2.4680 h1        1 NHT      0.067700
     19 H6C2       -1.3030    2.2370    3.4950 h1        1 NHT      0.067700
     20 H5         -1.2800    0.7380    1.8090 h1        1 NHT      0.081700
     21 H4          1.0430    2.5990    1.6300 h1        1 NHT      0.064700
     22 H1         -0.9860    1.6740   -1.6230 h2        1 NHT      0.106700
     23 HA          1.5930    1.7810    3.3280 ho        1 NHT      0.426000
     24 H3          1.1930   -0.0920    0.7920 h1        1 NHT      0.062700
     25 HB          3.2290    0.3410    1.0210 ho        1 NHT      0.426000
     26 H2          1.3020    1.9920   -1.0840 h1        1 NHT      0.099700
     27 H9C1       -0.9760   -3.4160   -1.3790 h1        1 NHT      0.052200
     28 H9C2        0.6100   -3.6440   -1.1480 h1        1 NHT      0.052200
     29 H8         -0.1480   -5.2990   -2.6460 hc        1 NHT      0.047700
     30 H11        -0.7890   -4.1950   -3.6040 hc        1 NHT      0.047700
     31 H12         0.8080   -4.3140   -3.4650 hc        1 NHT      0.047700
     32 H13         0.4460   -1.9430   -3.1670 hn        1 NHT      0.273700
@<TRIPOS>BOND
     1    1    2 1   
     2    1   12 1   
     3    1   15 1   
     4    1   22 1   
     5    2    3 1   
     6    2    9 1   
     7    2   26 1   
     8    3    4 1   
     9    3   10 1   
    10    3   24 1   
    11    4    5 1   
    12    4   11 1   
    13    4   21 1   
    14    5    6 1   
    15    5   12 1   
    16    5   20 1   
    17    6   14 1   
    18    6   18 1   
    19    6   19 1   
    20    7    9 2   
    21    7   13 2   
    22    8   16 1   
    23    8   29 1   
    24    8   30 1   
    25    8   31 1   
    26   10   25 1   
    27   11   23 1   
    28   13   16 1   
    29   13   32 1   
    30   14   17 1   
    31   16   27 1   
    32   16   28 1   
@<TRIPOS>SUBSTRUCTURE
     1 NHT         1 TEMP              0 ****  ****    0 ROOT
