@<TRIPOS>MOLECULE
NHT
   33    34     1     0     0
SMALL
bcc


@<TRIPOS>ATOM
      1 C1          0.2590    0.4460   -0.2250 c3        1 NHT      0.277200
      2 C2          1.7320   -0.0020    0.0080 c3        1 NHT      0.036500
      3 C3          2.1490   -0.1840    1.4960 c3        1 NHT      0.120100
      4 C4          1.2550    0.6180    2.4620 c3        1 NHT      0.124100
      5 C5         -0.2090    0.3170    2.1270 c3        1 NHT      0.127100
      6 C6         -1.1810    0.9880    3.1010 c3        1 NHT      0.139400
      7 C7          0.9890   -1.7510   -1.2920 c2        1 NHT      0.470100
      8 C10         1.1620   -5.4820   -2.0300 c3        1 NHT     -0.142100
      9 N2          2.0440   -1.2050   -0.7490 n2        1 NHT     -0.544900
     10 O3          3.4540    0.3270    1.6690 oh        1 NHT     -0.581800
     11 O4          1.4960    0.1810    3.7830 oh        1 NHT     -0.578800
     12 O5         -0.4810    0.9060    0.8440 os        1 NHT     -0.340600
     13 N1          1.0840   -2.9850   -2.0900 ny        1 NHT     -0.708000
     14 O6         -2.3710    0.2210    3.0580 oh        1 NHT     -0.602800
     15 S1         -0.5520   -1.0080   -1.1120 ss        1 NHT     -0.258300
     16 C9          1.1330   -4.2070   -1.2160 c3        1 NHT      0.114800
     17 H6         -3.0070    0.6620    3.6360 ho        1 NHT      0.422000
     18 H6C1       -0.7330    0.9610    4.1310 h1        1 NHT      0.063700
     19 H6C2       -1.3810    2.0470    2.7880 h1        1 NHT      0.063700
     20 H5         -0.4040   -0.7890    2.0900 h1        1 NHT      0.087700
     21 H4          1.4680    1.7190    2.3590 h1        1 NHT      0.083700
     22 H1          0.2020    1.2760   -0.9870 h2        1 NHT      0.131700
     23 HA          2.3930    0.4680    4.0110 ho        1 NHT      0.435000
     24 H3          2.1060   -1.2690    1.7970 h1        1 NHT      0.069700
     25 HB          4.0750   -0.3140    1.2970 ho        1 NHT      0.425000
     26 H2          2.3990    0.8180   -0.4150 h1        1 NHT      0.144700
     27 H9C1        2.0580   -4.1260   -0.5740 hx        1 NHT      0.116700
     28 H9C2        0.2240   -4.1850   -0.5480 hx        1 NHT      0.116700
     29 H8          1.1970   -6.3440   -1.3140 hc        1 NHT      0.083700
     30 H11         2.0660   -5.5400   -2.6840 hc        1 NHT      0.083700
     31 H12         0.2460   -5.5950   -2.6610 hc        1 NHT      0.083700
     32 H13         1.9270   -2.9640   -2.6830 hn        1 NHT      0.469300
     33 H121        0.2560   -3.0300   -2.7010 hn        1 NHT      0.469300
@<TRIPOS>BOND
     1    1    2 1   
     2    1   12 1   
     3    1   15 1   
     4    1   22 1   
     5    2    3 1   
     6    2    9 1   
     7    2   26 1   
     8    3    4 1   
     9    3   10 1   
    10    3   24 1   
    11    4    5 1   
    12    4   11 1   
    13    4   21 1   
    14    5    6 1   
    15    5   12 1   
    16    5   20 1   
    17    6   14 1   
    18    6   18 1   
    19    6   19 1   
    20    7    9 2   
    21    7   13 1   
    22    7   15 1   
    23    8   16 1   
    24    8   29 1   
    25    8   30 1   
    26    8   31 1   
    27   10   25 1   
    28   11   23 1   
    29   13   16 1   
    30   13   32 1   
    31   13   33 1   
    32   14   17 1   
    33   16   27 1   
    34   16   28 1   
@<TRIPOS>SUBSTRUCTURE
     1 NHT         1 TEMP              0 ****  ****    0 ROOT
