@<TRIPOS>MOLECULE
NHT
   33    34     1     0     0
SMALL
bcc


@<TRIPOS>ATOM
      1 C1          0.2920    0.4520   -0.2350 c3        1 NHT      0.277200
      2 C2          1.7560   -0.0170    0.0120 c3        1 NHT      0.036500
      3 C3          2.1570   -0.2000    1.5050 c3        1 NHT      0.120100
      4 C4          1.2670    0.6180    2.4600 c3        1 NHT      0.124100
      5 C5         -0.1990    0.3380    2.1130 c3        1 NHT      0.127100
      6 C6         -1.1690    1.0250    3.0770 c3        1 NHT      0.139400
      7 C7          0.9970   -1.7590   -1.2890 c2        1 NHT      0.470100
      8 C10         1.1140   -5.4950   -2.0140 c3        1 NHT     -0.142100
      9 N2          2.0560   -1.2270   -0.7380 n2        1 NHT     -0.544900
     10 O3          3.4690    0.2910    1.6870 oh        1 NHT     -0.581800
     11 O4          1.4900    0.1810    3.7840 oh        1 NHT     -0.578800
     12 O5         -0.4510    0.9270    0.8260 os        1 NHT     -0.340600
     13 N1          1.0810   -2.9970   -2.0820 n4        1 NHT     -0.708000
     14 O6         -2.3700    0.2760    3.0250 oh        1 NHT     -0.602800
     15 S1         -0.5340   -0.9920   -1.1260 ss        1 NHT     -0.257300
     16 C9          1.0970   -4.2170   -1.2040 c3        1 NHT      0.114800
     17 H6         -3.0040    0.7270    3.5960 ho        1 NHT      0.422000
     18 H6C1       -1.3500    2.0870    2.7600 h1        1 NHT      0.063700
     19 H6C2       -0.7310    0.9950    4.1110 h1        1 NHT      0.063700
     20 H5         -0.4100   -0.7660    2.0770 h1        1 NHT      0.087700
     21 H4          1.4970    1.7140    2.3560 h1        1 NHT      0.083700
     22 H1          0.2540    1.2800   -0.9990 h2        1 NHT      0.131700
     23 HA          2.3880    0.4560    4.0190 ho        1 NHT      0.435000
     24 H3          2.0960   -1.2840    1.8090 h1        1 NHT      0.069700
     25 HB          4.0820   -0.3590    1.3220 ho        1 NHT      0.425000
     26 H2          2.4390    0.7910   -0.4070 h1        1 NHT      0.144700
     27 H9C1        0.1800   -4.1760   -0.5480 hx        1 NHT      0.116700
     28 H9C2        2.0140   -4.1500   -0.5500 hx        1 NHT      0.116700
     29 H8          2.0250   -5.5710   -2.6550 hc        1 NHT      0.083700
     30 H11         0.2040   -5.5940   -2.6560 hc        1 NHT      0.083700
     31 H12         1.1240   -6.3550   -1.2940 hc        1 NHT      0.083700
     32 H13         1.9310   -2.9930   -2.6650 hn        1 NHT      0.469300
     33 H121        0.2600   -3.0290   -2.7040 hn        1 NHT      0.469300
@<TRIPOS>BOND
     1    1    2 1   
     2    1   12 1   
     3    1   15 1   
     4    1   22 1   
     5    2    3 1   
     6    2    9 1   
     7    2   26 1   
     8    3    4 1   
     9    3   10 1   
    10    3   24 1   
    11    4    5 1   
    12    4   11 1   
    13    4   21 1   
    14    5    6 1   
    15    5   12 1   
    16    5   20 1   
    17    6   14 1   
    18    6   18 1   
    19    6   19 1   
    20    7    9 2   
    21    7   13 1   
    22    7   15 1   
    23    8   16 1   
    24    8   29 1   
    25    8   30 1   
    26    8   31 1   
    27   10   25 1   
    28   11   23 1   
    29   13   16 1   
    30   13   32 1   
    31   13   33 1   
    32   14   17 1   
    33   16   27 1   
    34   16   28 1   
@<TRIPOS>SUBSTRUCTURE
     1 NHT         1 TEMP              0 ****  ****    0 ROOT
