@<TRIPOS>MOLECULE
NHT
   33    34     1     0     0
SMALL
bcc


@<TRIPOS>ATOM
      1 C1          0.3540    0.4770   -0.2220 c3        1 NHT      0.277200
      2 C2          1.7980   -0.0400    0.0460 c3        1 NHT      0.035500
      3 C3          2.1650   -0.2550    1.5430 c3        1 NHT      0.120100
      4 C4          1.2820    0.5790    2.4920 c3        1 NHT      0.124100
      5 C5         -0.1850    0.3480    2.1150 c3        1 NHT      0.127100
      6 C6         -1.1510    1.0540    3.0690 c3        1 NHT      0.139400
      7 C7          1.0120   -1.7410   -1.2930 c2        1 NHT      0.470100
      8 C10         1.0390   -5.4690   -2.0650 c3        1 NHT     -0.142100
      9 N2          2.0760   -1.2490   -0.7150 n2        1 NHT     -0.544900
     10 O3          3.4870    0.1930    1.7560 oh        1 NHT     -0.581800
     11 O4          1.4670    0.1180    3.8140 oh        1 NHT     -0.578800
     12 O5         -0.3940    0.9610    0.8300 os        1 NHT     -0.340600
     13 N1          1.0740   -2.9710   -2.1010 n4        1 NHT     -0.708000
     14 O6         -2.3740    0.3430    2.9850 oh        1 NHT     -0.602800
     15 S1         -0.4980   -0.9310   -1.1470 ss        1 NHT     -0.258300
     16 C9          1.0460   -4.2020   -1.2390 c3        1 NHT      0.114800
     17 H6         -3.0040    0.8070    3.5500 ho        1 NHT      0.422000
     18 H6C1       -0.7340    0.9970    4.1110 h1        1 NHT      0.063700
     19 H6C2       -1.2930    2.1240    2.7620 h1        1 NHT      0.063700
     20 H5         -0.4290   -0.7480    2.0610 h1        1 NHT      0.087700
     21 H4          1.5480    1.6690    2.4070 h1        1 NHT      0.083700
     22 H1          0.3560    1.3150   -0.9770 h2        1 NHT      0.131700
     23 HA          2.3690    0.3620    4.0690 ho        1 NHT      0.435000
     24 H3          2.0640   -1.3400    1.8310 h1        1 NHT      0.069700
     25 HB          4.0870   -0.4710    1.3950 ho        1 NHT      0.425000
     26 H2          2.5130    0.7520   -0.3500 h1        1 NHT      0.144700
     27 H9C1        1.9560   -4.1680   -0.5730 hx        1 NHT      0.116700
     28 H9C2        0.1220   -4.1460   -0.5940 hx        1 NHT      0.116700
     29 H8          1.9560   -5.5610   -2.6970 hc        1 NHT      0.083700
     30 H11         0.1360   -5.5360   -2.7200 hc        1 NHT      0.083700
     31 H12         1.0180   -6.3390   -1.3570 hc        1 NHT      0.083700
     32 H13         0.2610   -2.9730   -2.7330 hn        1 NHT      0.469300
     33 H121        1.9310   -2.9820   -2.6720 hn        1 NHT      0.469300
@<TRIPOS>BOND
     1    1    2 1   
     2    1   12 1   
     3    1   15 1   
     4    1   22 1   
     5    2    3 1   
     6    2    9 1   
     7    2   26 1   
     8    3    4 1   
     9    3   10 1   
    10    3   24 1   
    11    4    5 1   
    12    4   11 1   
    13    4   21 1   
    14    5    6 1   
    15    5   12 1   
    16    5   20 1   
    17    6   14 1   
    18    6   18 1   
    19    6   19 1   
    20    7    9 2   
    21    7   13 1   
    22    7   15 1   
    23    8   16 1   
    24    8   29 1   
    25    8   30 1   
    26    8   31 1   
    27   10   25 1   
    28   11   23 1   
    29   13   16 1   
    30   13   32 1   
    31   13   33 1   
    32   14   17 1   
    33   16   27 1   
    34   16   28 1   
@<TRIPOS>SUBSTRUCTURE
     1 NHT         1 TEMP              0 ****  ****    0 ROOT
