@<TRIPOS>MOLECULE
NHU
   42    37     1     0     0
SMALL
bcc


@<TRIPOS>ATOM
      1 N01         1.3550   -2.1320    1.1090 n3        1 NHU     -0.235000
      2 N02        -0.3290   -1.1810   -0.3290 n1        1 NHU     -0.272000
      3 N03         1.9030   -0.4340   -0.5100 n1        1 NHU     -0.227000
      4 N04        -2.0500   -0.2650   -1.7170 n3        1 NHU     -0.268000
      5 C05         3.7720   -1.0290    3.6840 c1        1 NHU     -0.067000
      6 N05        -3.7290    3.5770   -2.5460 n         1 NHU     -0.427000
      7 C06         2.9290   -0.7930    4.7560 c1        1 NHU     -0.136000
      8 N06         2.9720   -0.0150    7.1740 n3        1 NHU     -0.435000
      9 C07         1.5630   -0.9820    4.6190 c2        1 NHU     -0.088000
     10 C08         1.0410   -1.4070    3.4070 c1        1 NHU     -0.180000
     11 C09         1.8840   -1.6420    2.3340 c1        1 NHU      0.080000
     12 C10         3.2500   -1.4540    2.4720 c1        1 NHU     -0.120000
     13 C11         3.6790   -0.3070    5.9790 c1        1 NHU      0.346000
     14 C12         0.9680   -1.2230    0.0890 c1        1 NHU      0.179000
     15 C13        -0.6860   -0.3620   -1.3310 c2        1 NHU      0.193000
     16 C14         0.2500    0.4270   -1.9310 c2        1 NHU     -0.317000
     17 C15         1.5490    0.3840   -1.5120 c1        1 NHU      0.011000
     18 C16        -2.3870    0.0640   -3.0560 c2        1 NHU      0.129000
     19 C17        -2.1970   -0.8640   -4.0660 c2        1 NHU     -0.187000
     20 C18        -2.5020   -0.5340   -5.3780 c1        1 NHU     -0.079000
     21 C19        -2.9960    0.7260   -5.6790 c1        1 NHU     -0.121500
     22 C20        -3.1860    1.6550   -4.6680 c1        1 NHU     -0.121500
     23 C21        -2.8820    1.3250   -3.3560 c1        1 NHU     -0.165000
     24 C22        -3.1850    2.3020   -2.2420 c2        1 NHU      0.354000
     25 O23        -2.9940    1.9830   -1.0860 o         1 NHU     -0.385000
     26 O25         4.8820   -0.1490    5.9300 o         1 NHU     -0.372000
     27 HN01        1.2790   -3.0290    0.9720 hn        1 NHU      0.240000
     28 HN04       -2.7090   -0.4300   -1.1080 hn        1 NHU      0.276000
     29 H05         4.7350   -0.8960    3.7810 ha        1 NHU      0.159000
     30 HN05       -4.1080    4.0810   -1.8830 hn        1 NHU      0.228500
     31 HN0A       -3.7050    3.8910   -3.4030 hn        1 NHU      0.228500
     32 HN06        2.0680   -0.1480    7.2160 hn        1 NHU      0.225000
     33 HN0B        3.4210    0.3020    7.9050 hn        1 NHU      0.225000
     34 H07         0.9690   -0.8160    5.3750 ha        1 NHU      0.135000
     35 H08         0.0800   -1.5390    3.3100 ha        1 NHU      0.137000
     36 H10         3.8450   -1.6200    1.7160 ha        1 NHU      0.162000
     37 H14        -0.0080    1.0230   -2.6600 ha        1 NHU      0.162000
     38 H15         2.2190    0.9490   -1.9410 ha        1 NHU      0.166000
     39 H17        -1.8490   -1.7510   -3.8550 ha        1 NHU      0.151000
     40 H18        -2.3680   -1.1880   -6.0900 ha        1 NHU      0.139000
     41 H19        -3.2100    0.9580   -6.6020 ha        1 NHU      0.139000
     42 H20        -3.5340    2.5410   -4.8800 ha        1 NHU      0.139000
@<TRIPOS>BOND
     1    1   11 1   
     2    1   14 1   
     3    1   27 1   
     4    2   15 1   
     5    3   14 1   
     6    4   15 1   
     7    4   18 1   
     8    4   28 1   
     9    5    7 1   
    10    5   29 1   
    11    6   24 1   
    12    6   30 1   
    13    6   31 1   
    14    7    9 1   
    15    8   13 1   
    16    8   32 1   
    17    8   33 1   
    18    9   10 1   
    19    9   34 1   
    20   10   35 1   
    21   11   12 1   
    22   12   36 1   
    23   13   26 1   
    24   15   16 1   
    25   16   17 1   
    26   16   37 1   
    27   17   38 1   
    28   18   19 1   
    29   18   23 1   
    30   19   20 1   
    31   19   39 1   
    32   20   40 1   
    33   21   22 1   
    34   21   41 1   
    35   22   42 1   
    36   23   24 1   
    37   24   25 1   
@<TRIPOS>SUBSTRUCTURE
     1 NHU         1 TEMP              0 ****  ****    0 ROOT
