@<TRIPOS>MOLECULE
NHU
   46    46     1     0     0
SMALL
bcc


@<TRIPOS>ATOM
      1 N01       406.9400 -197.8640  981.6750 n4        1 NHU      0.125000
      2 N02       406.9220 -197.1950  979.3640 n2        1 NHU     -0.223000
      3 N03       406.9490 -195.4050  981.0070 n3        1 NHU     -0.145000
      4 C05       404.6630 -199.2680  985.7530 c2        1 NHU     -0.206000
      5 N05      -758.9530  373.1980-1850.9730 n4        1 NHU     -0.137000
      6 C06       403.6020 -198.4920  985.1590 c2        1 NHU     -0.012000
      7 N06       401.0690 -198.4420  985.8050 n4        1 NHU      0.033000
      8 C07       403.7270 -197.5070  984.0670 c3        1 NHU     -0.028000
      9 C08       404.8930 -197.6760  983.2450 c1        1 NHU      0.053000
     10 C09       405.8490 -197.7600  982.5290 c1        1 NHU     -0.234000
     11 C10       404.1010 -200.0310  986.7640 c2        1 NHU      0.052000
     12 C12       406.9440 -196.7550  980.6180 c2        1 NHU      0.035000
     13 C13       406.9400 -196.2200  978.3360 c2        1 NHU      0.227000
     14 C14       406.8990 -194.8390  978.6900 c2        1 NHU     -0.314000
     15 C15       406.9190 -194.4600  980.0390 c1        1 NHU      0.001000
     16 C16      -759.2420  372.2660-1847.2610 c2        1 NHU     -0.059000
     17 C17      -759.9250  371.9480-1846.2010 c1        1 NHU      0.179000
     18 C18      -760.5200  371.6610-1845.0450 c2        1 NHU     -0.475000
     19 C19      -760.8800  370.4580-1844.4800 c1        1 NHU      0.756000
     20 C20      -761.0240  372.8720-1848.8610 c2        1 NHU     -0.031000
     21 C21      -759.7290  372.6270-1848.5900 c2        1 NHU     -0.147000
     22 C22      -758.6370  372.7000-1849.5870 c2        1 NHU      0.290000
     23 O23      -757.4670  372.3980-1849.4050 o         1 NHU     -0.125000
     24 O25       402.7380 -199.7900  986.8550 os        1 NHU     -0.065000
     25 HN01      407.8160 -197.7850  982.2200 hn        1 NHU      0.286500
     26 HN04      407.0200 -197.6120  976.8090 hn        1 NHU      0.269000
     27 H05       404.4740 -200.7620  987.4920 h4        1 NHU      0.252000
     28 HN05     -759.6220  372.5730-1851.4390 hn        1 NHU      0.284333
     29 HN0A     -758.0820  373.2210-1851.5320 hn        1 NHU      0.284333
     30 HN06      400.4890 -199.1620  986.2720 hn        1 NHU      0.280667
     31 HN0B      400.7720 -198.3490  984.8250 hn        1 NHU      0.280667
     32 H07       402.8190 -197.5510  983.3930 hc        1 NHU      0.154500
     33 H08       403.7630 -196.4640  984.5160 hc        1 NHU      0.154500
     34 H10       405.7120 -199.2440  985.4590 ha        1 NHU      0.197000
     35 H14       406.8670 -194.0490  977.9240 ha        1 NHU      0.207000
     36 H15       407.0070 -195.1340  981.9650 hn        1 NHU      0.281000
     37 H17      -758.1200  372.2510-1847.1360 ha        1 NHU      0.263000
     38 H18      -760.7710  372.5340-1844.3540 ha        1 NHU      0.287000
     39 H19      -761.8060  372.8060-1848.0810 ha        1 NHU      0.173000
     40 H20      -761.4170  373.1520-1849.8510 ha        1 NHU      0.173000
     41 H012      406.9170 -198.7940  981.2070 hn        1 NHU      0.286500
     42 H042      407.0030 -195.9690  976.3210 hn        1 NHU      0.269000
     43 H053     -759.3450  374.1470-1850.9370 hn        1 NHU      0.284333
     44 H063      400.9420 -197.5450  986.2980 hn        1 NHU      0.280667
     45 C11       402.4450 -198.8370  985.8590 c2        1 NHU     -0.178000
     46 N04       406.9790 -196.6480  977.0480 n3        1 NHU     -0.320000
@<TRIPOS>BOND
     1    1   10 1   
     2    1   12 1   
     3    1   25 1   
     4    1   41 1   
     5    2   12 1   
     6    2   13 1   
     7    3   12 1   
     8    3   15 1   
     9    3   36 1   
    10    4    6 1   
    11    4   11 1   
    12    4   34 1   
    13    5   22 1   
    14    5   28 1   
    15    5   29 1   
    16    5   43 1   
    17    6    8 1   
    18    6   45 1   
    19    7   30 1   
    20    7   31 1   
    21    7   44 1   
    22    7   45 1   
    23    8    9 1   
    24    8   32 1   
    25    8   33 1   
    26    9   10 1   
    27   11   24 1   
    28   11   27 1   
    29   13   14 1   
    30   13   46 1   
    31   14   15 1   
    32   14   35 1   
    33   16   17 1   
    34   16   21 1   
    35   16   37 1   
    36   17   18 1   
    37   18   19 1   
    38   18   38 1   
    39   20   21 1   
    40   20   39 1   
    41   20   40 1   
    42   21   22 1   
    43   22   23 1   
    44   24   45 1   
    45   26   46 1   
    46   42   46 1   
@<TRIPOS>SUBSTRUCTURE
     1 NHU         1 TEMP              0 ****  ****    0 ROOT
