@<TRIPOS>MOLECULE
NHU
   42    44     1     0     0
SMALL
bcc


@<TRIPOS>ATOM
      1 N01         1.8580   -0.3660    1.0490 nh        1 NHU     -0.714300
      2 N02        -0.4880   -0.2790    0.7990 nb        1 NHU     -0.799000
      3 N03         0.9400   -0.6320   -1.1740 nb        1 NHU     -0.753000
      4 N04        -2.8460   -0.3980    0.6360 nh        1 NHU     -0.748300
      5 C05         5.1050   -0.7310   -0.7480 ca        1 NHU     -0.077500
      6 N05        -6.2850   -2.0990    1.7590 n         1 NHU     -0.666000
      7 C06         5.8420    0.3150   -0.1810 ca        1 NHU     -0.156600
      8 N06         7.7580    1.7780   -0.6710 n         1 NHU     -0.675000
      9 C07         5.2480    1.1280    0.7880 ca        1 NHU     -0.077500
     10 C08         3.9290    0.9170    1.1700 ca        1 NHU     -0.150000
     11 C09         3.1700   -0.1260    0.5870 ca        1 NHU      0.160600
     12 C10         3.7850   -0.9570   -0.3730 ca        1 NHU     -0.150000
     13 C12         0.7450   -0.4170    0.1840 ca        1 NHU      0.898900
     14 C13        -1.5950   -0.4250    0.0060 ca        1 NHU      0.715200
     15 C14        -1.4730   -0.6710   -1.3950 ca        1 NHU     -0.449600
     16 C15        -0.1750   -0.7540   -1.9110 ca        1 NHU      0.477200
     17 C16        -3.9980    0.1320    0.0430 ca        1 NHU      0.211600
     18 C17        -3.9540    1.0000   -1.0740 ca        1 NHU     -0.188000
     19 C18        -5.1240    1.4900   -1.6380 ca        1 NHU     -0.080000
     20 C19        -6.3680    1.1480   -1.1080 ca        1 NHU     -0.166000
     21 C20        -6.4330    0.3080   -0.0010 ca        1 NHU     -0.077000
     22 C21        -5.2700   -0.2050    0.5790 ca        1 NHU     -0.186600
     23 C22        -5.3770   -1.0710    1.7890 c         1 NHU      0.680700
     24 O23        -4.6850   -0.8800    2.8130 o         1 NHU     -0.623100
     25 O25         7.9770   -0.4650   -0.9440 o         1 NHU     -0.611100
     26 HN01        1.6650    0.0030    1.9600 hn        1 NHU      0.444800
     27 HN04       -2.8650   -0.4600    1.6400 hn        1 NHU      0.481800
     28 H05         5.5890   -1.3900   -1.4880 ha        1 NHU      0.147000
     29 HN05       -6.7880   -2.3090    0.9370 hn        1 NHU      0.315000
     30 HN0A       -6.3560   -2.7070    2.5370 hn        1 NHU      0.315000
     31 HN06        7.1820    2.5610   -0.5050 hn        1 NHU      0.311500
     32 HN0B        8.6810    1.9200   -0.9970 hn        1 NHU      0.311500
     33 H07         5.8190    1.9350    1.2720 ha        1 NHU      0.147000
     34 H08         3.4830    1.5690    1.9370 ha        1 NHU      0.149000
     35 H10         3.2330   -1.7930   -0.8300 ha        1 NHU      0.149000
     36 H14        -2.3500   -0.8120   -2.0350 ha        1 NHU      0.162000
     37 H15        -0.0080   -0.9350   -2.9900 h4        1 NHU      0.029100
     38 H17        -2.9830    1.3090   -1.4930 ha        1 NHU      0.150000
     39 H18        -5.0640    2.1640   -2.5060 ha        1 NHU      0.138000
     40 H19        -7.2900    1.5450   -1.5560 ha        1 NHU      0.140000
     41 H20        -7.4140    0.0580    0.4330 ha        1 NHU      0.139000
     42 C11         7.2520    0.5000   -0.6200 c         1 NHU      0.672700
@<TRIPOS>BOND
     1    1   11 1   
     2    1   13 1   
     3    1   26 1   
     4    2   13 ar  
     5    2   14 ar  
     6    3   13 ar  
     7    3   16 ar  
     8    4   14 1   
     9    4   17 1   
    10    4   27 1   
    11    5    7 ar  
    12    5   12 ar  
    13    5   28 1   
    14    6   23 1   
    15    6   29 1   
    16    6   30 1   
    17    7    9 ar  
    18    7   42 1   
    19    8   31 1   
    20    8   32 1   
    21    8   42 1   
    22    9   10 ar  
    23    9   33 1   
    24   10   11 ar  
    25   10   34 1   
    26   11   12 ar  
    27   12   35 1   
    28   14   15 ar  
    29   15   16 ar  
    30   15   36 1   
    31   16   37 1   
    32   17   18 ar  
    33   17   22 ar  
    34   18   19 ar  
    35   18   38 1   
    36   19   20 ar  
    37   19   39 1   
    38   20   21 ar  
    39   20   40 1   
    40   21   22 ar  
    41   21   41 1   
    42   22   23 1   
    43   23   24 2   
    44   25   42 2   
@<TRIPOS>SUBSTRUCTURE
     1 NHU         1 TEMP              0 ****  ****    0 ROOT
