@<TRIPOS>MOLECULE
NHU
   44    43     1     0     0
SMALL
bcc


@<TRIPOS>ATOM
      1 N01         0.4270    0.9190   -0.1390 n7        1 NHU     -0.240000
      2 N02        -1.2150    1.1470   -1.7840 n2        1 NHU     -0.284000
      3 N03         0.9990    2.0370   -2.2810 n7        1 NHU     -0.223000
      4 C05         4.7880    0.7430    0.3230 c1        1 NHU     -0.217000
      5 N05        -3.1550   -1.2900   -6.9160 nz        1 NHU     -0.123000
      6 C06         4.4950    0.4950    1.6750 c2        1 NHU     -0.097000
      7 N06         5.0560   -1.8430    3.7750 n9        1 NHU     -0.454000
      8 C07         3.2450    0.3480    2.2430 c2        1 NHU      0.147000
      9 C08         1.9700    0.4590    1.6460 c2        1 NHU     -0.278000
     10 C09         1.7070    0.8380    0.3500 c2        1 NHU      0.120000
     11 C10         5.0890    0.9400   -0.8210 c1        1 NHU     -0.068000
     12 C12         0.0600    1.3650   -1.4240 c2        1 NHU      0.256000
     13 C13        -1.6660    1.5890   -3.0400 c2        1 NHU      0.225000
     14 C14        -0.7110    2.2520   -4.0080 c3        1 NHU     -0.271000
     15 C15         0.6540    2.4690   -3.4900 c1        1 NHU      0.056000
     16 C16        -3.5270    1.7530   -4.6240 c2        1 NHU      0.089000
     17 C17        -3.7720    3.0140   -4.9100 c1        1 NHU     -0.176000
     18 C18        -4.0740    4.2290   -5.2470 c2        1 NHU     -0.081000
     19 C19        -5.7920   -0.5520   -6.4900 c1        1 NHU      0.119000
     20 C20        -5.2260    0.4980   -5.9300 c2        1 NHU     -0.371000
     21 C21        -3.8580    0.6320   -5.4990 c2        1 NHU     -0.299000
     22 C22        -2.8220   -0.2030   -5.9010 c2        1 NHU      0.262000
     23 O23        -1.6130   -0.2270   -5.5690 o         1 NHU     -0.434000
     24 O25         6.6190    0.3860    3.0990 o         1 NHU      0.078000
     25 HN01       -0.3260    0.5890    0.4470 hn        1 NHU      0.292000
     26 HN04       -3.5590    0.8790   -2.7330 hn        1 NHU      0.285000
     27 H05         5.3710    1.1130   -1.8360 ha        1 NHU      0.263000
     28 HN05       -3.7580   -1.9980   -6.4900 hn        1 NHU      0.250667
     29 HN0A       -2.2850   -1.7280   -7.2310 hn        1 NHU      0.250667
     30 HN06        5.9320   -1.9670    4.2470 hn        1 NHU      0.158667
     31 HN0B        4.3260   -1.8760    4.4600 hn        1 NHU      0.158667
     32 H07         3.2110    0.1120    3.3330 ha        1 NHU      0.176000
     33 H08         1.1260    0.2200    2.3280 ha        1 NHU      0.178000
     34 H10         2.5420    1.0900   -0.3390 h4        1 NHU      0.175000
     35 H14        -1.1150    3.2440   -4.3710 hc        1 NHU      0.224500
     36 H15         1.9250    2.2250   -1.9550 hn        1 NHU      0.281000
     37 H17        -0.6230    1.5980   -4.9430 hc        1 NHU      0.224500
     38 H18        -3.3720    4.8860   -5.7870 ha        1 NHU      0.167500
     39 H19        -5.0580    4.6760   -5.0180 ha        1 NHU      0.167500
     40 H20        -5.8730    1.3900   -5.7620 ha        1 NHU      0.209000
     41 H053       -3.6510   -0.8830   -7.7150 hn        1 NHU      0.250667
     42 H063        4.9290   -2.6100    3.1430 hn        1 NHU      0.158667
     43 C11         5.6330    0.3830    2.4880 c1        1 NHU      0.485000
     44 N04        -2.9450    1.3900   -3.3500 n7        1 NHU     -0.094000
@<TRIPOS>BOND
     1    1   10 1   
     2    1   12 1   
     3    1   25 1   
     4    2   12 1   
     5    2   13 1   
     6    3   12 1   
     7    3   15 1   
     8    3   36 1   
     9    4    6 1   
    10    4   11 1   
    11    5   22 1   
    12    5   28 1   
    13    5   29 1   
    14    5   41 1   
    15    6    8 1   
    16    6   43 1   
    17    7   30 1   
    18    7   31 1   
    19    7   42 1   
    20    8    9 1   
    21    8   32 1   
    22    9   10 1   
    23    9   33 1   
    24   10   34 1   
    25   11   27 1   
    26   13   14 1   
    27   13   44 1   
    28   14   15 1   
    29   14   35 1   
    30   14   37 1   
    31   16   17 1   
    32   16   21 1   
    33   16   44 1   
    34   17   18 1   
    35   18   38 1   
    36   18   39 1   
    37   19   20 1   
    38   20   21 1   
    39   20   40 1   
    40   21   22 1   
    41   22   23 1   
    42   24   43 1   
    43   26   44 1   
@<TRIPOS>SUBSTRUCTURE
     1 NHU         1 TEMP              0 ****  ****    0 ROOT
