@<TRIPOS>MOLECULE
NHU
   44    43     1     0     0
SMALL
bcc


@<TRIPOS>ATOM
      1 N01         0.2910   -0.6820   -0.9920 n3        1 NHU     -0.158000
      2 N02        -1.5020    0.2860   -2.2160 n2        1 NHU     -0.237000
      3 N03         0.5580    1.5500   -1.9990 n3        1 NHU     -0.159000
      4 C05         3.9340   -2.2270    2.8430 c2        1 NHU     -0.016000
      5 N05        -1.3450    2.3720   -7.3540 n4        1 NHU     -0.135000
      6 C06         4.0680   -1.1950    1.8940 c2        1 NHU     -0.286000
      7 N06         6.3480    1.1090    2.0890 n3        1 NHU     -0.439000
      8 C07         3.0350   -0.1060    1.8300 c3        1 NHU      0.045000
      9 C08         2.0550   -0.3190    0.8080 c1        1 NHU     -0.199000
     10 C09         1.2030   -0.4530   -0.0280 c1        1 NHU     -0.050000
     11 C10         4.6470   -3.2540    3.1900 c1        1 NHU      0.125000
     12 C12        -0.2440    0.4130   -1.7310 c2        1 NHU      0.180000
     13 C13        -1.9830    1.3170   -3.0210 c2        1 NHU      0.166000
     14 C14        -1.2150    2.4510   -3.3030 c2        1 NHU     -0.294000
     15 C15         0.1050    2.5570   -2.7680 c1        1 NHU     -0.038000
     16 C16        -3.8940    1.6470   -4.5970 c2        1 NHU      0.288000
     17 C17        -5.3710    1.7610   -4.5800 c2        1 NHU     -0.220000
     18 C18        -6.1960    0.7810   -4.2100 c2        1 NHU     -0.118000
     19 C19        -4.6280    2.2640   -7.8470 c1        1 NHU      0.296000
     20 C20        -4.0310    2.7650   -6.7800 c2        1 NHU     -0.498000
     21 C21        -3.2570    2.0420   -5.7810 c2        1 NHU     -0.281000
     22 C22        -1.9020    1.7120   -6.0940 c2        1 NHU      0.317000
     23 O23        -1.0960    0.9520   -5.5610 o         1 NHU     -0.246000
     24 O25         5.9820   -1.0530    0.2540 o         1 NHU      0.013000
     25 HN01       -0.3410   -1.4460   -0.8170 hn        1 NHU      0.275000
     26 HN04       -3.9390    0.6880   -2.8210 hn        1 NHU      0.276000
     27 H05         5.1730   -4.1240    3.5480 ha        1 NHU      0.295000
     28 HN05       -1.9650    2.1860   -8.1470 hn        1 NHU      0.259000
     29 HN0A       -0.4080    2.0040   -7.5510 hn        1 NHU      0.259000
     30 HN06        6.7030    0.9970    3.0180 hn        1 NHU      0.149333
     31 HN0B        7.1250    1.1730    1.4600 hn        1 NHU      0.149333
     32 H07         2.5250   -0.0270    2.8330 hc        1 NHU      0.133500
     33 H08         3.5480    0.8850    1.6510 hc        1 NHU      0.133500
     34 H10         2.9820   -2.1690    3.4720 ha        1 NHU      0.290000
     35 H14        -1.5910    3.2890   -3.9020 ha        1 NHU      0.166000
     36 H15         1.4780    1.6080   -1.6140 hn        1 NHU      0.276000
     37 H17        -5.7440    2.7430   -4.9230 ha        1 NHU      0.177000
     38 H18        -7.2900    0.9150   -4.2340 ha        1 NHU      0.146500
     39 H19        -5.8620   -0.2160   -3.8880 ha        1 NHU      0.146500
     40 H20        -4.1850    3.8510   -6.5750 ha        1 NHU      0.208000
     41 H053       -1.2920    3.3830   -7.2100 hn        1 NHU      0.259000
     42 H063        5.8400    1.9700    2.0500 hn        1 NHU      0.149333
     43 C11         5.1210   -1.1130    1.0430 c1        1 NHU      0.421000
     44 N04        -3.3250    1.1720   -3.4560 n3        1 NHU     -0.223000
@<TRIPOS>BOND
     1    1   10 1   
     2    1   12 1   
     3    1   25 1   
     4    2   12 1   
     5    2   13 1   
     6    3   12 1   
     7    3   15 1   
     8    3   36 1   
     9    4    6 1   
    10    4   11 1   
    11    4   34 1   
    12    5   22 1   
    13    5   28 1   
    14    5   29 1   
    15    5   41 1   
    16    6    8 1   
    17    6   43 1   
    18    7   30 1   
    19    7   31 1   
    20    7   42 1   
    21    8    9 1   
    22    8   32 1   
    23    8   33 1   
    24    9   10 1   
    25   11   27 1   
    26   13   14 1   
    27   13   44 1   
    28   14   15 1   
    29   14   35 1   
    30   16   17 1   
    31   16   21 1   
    32   16   44 1   
    33   17   18 1   
    34   17   37 1   
    35   18   38 1   
    36   18   39 1   
    37   19   20 1   
    38   20   21 1   
    39   20   40 1   
    40   21   22 1   
    41   22   23 1   
    42   24   43 1   
    43   26   44 1   
@<TRIPOS>SUBSTRUCTURE
     1 NHU         1 TEMP              0 ****  ****    0 ROOT
