@<TRIPOS>MOLECULE
NHV
   42    44     1     0     0
SMALL
bcc


@<TRIPOS>ATOM
      1 O6B        25.2990   49.5810   -2.9890 oh        1 NHV     -0.592800
      2 C6B        24.9980   48.4510   -2.2080 c3        1 NHV      0.124400
      3 C5B        26.2760   47.7190   -1.7400 c3        1 NHV     -0.002000
      4 C4B        27.0210   48.5530   -0.6640 c3        1 NHV      0.102100
      5 O4B        26.0850   48.7360    0.3800 oh        1 NHV     -0.584800
      6 C3B        28.2660   47.8160   -0.1370 c3        1 NHV      0.069100
      7 O3B        29.0100   48.6700    0.7040 oh        1 NHV     -0.574800
      8 O2B        30.3760   48.0160   -1.3430 oh        1 NHV     -0.593800
      9 N1B        27.2010   47.4050   -2.8170 na        1 NHV     -0.004100
     10 C8B        26.9680   47.3530   -4.1960 cc        1 NHV     -0.097300
     11 C7B        28.2090   47.1320   -4.8200 cd        1 NHV     -0.115600
     12 N2B        29.1760   47.0630   -3.8040 na        1 NHV     -0.106100
     13 C1B        28.5550   47.2420   -2.5910 cc        1 NHV     -0.005900
     14 C7         28.5100   47.0250   -6.2900 c3        1 NHV      0.247100
     15 N1         29.5980   46.1760   -6.6690 nh        1 NHV     -0.713600
     16 C1         30.9010   46.5540   -6.2560 ca        1 NHV      0.065600
     17 C6         31.4390   47.8030   -6.6360 ca        1 NHV     -0.172000
     18 C5         32.7480   48.1330   -6.2980 ca        1 NHV     -0.102500
     19 C4         33.5450   47.2370   -5.5840 ca        1 NHV     -0.131000
     20 C3         33.0260   46.0000   -5.2090 ca        1 NHV     -0.102500
     21 C2         31.7150   45.6570   -5.5290 ca        1 NHV     -0.172000
     22 C20        29.1960   47.2390   -1.2300 c3        1 NHV      0.181400
     23 H6B        25.3580   50.3460   -2.4010 ho        1 NHV      0.425000
     24 H6B1       24.4090   48.7080   -1.2860 h1        1 NHV      0.091200
     25 H6B2       24.3920   47.7760   -2.8720 h1        1 NHV      0.091200
     26 H5B        25.9490   46.7400   -1.2720 h1        1 NHV      0.111700
     27 H4B        27.3130   49.5570   -1.0860 h1        1 NHV      0.067700
     28 HA         26.5700   49.0840    1.1440 ho        1 NHV      0.447000
     29 H3B        27.9350   46.9780    0.5460 h1        1 NHV      0.120700
     30 HB         29.2880   49.4420    0.1870 ho        1 NHV      0.426000
     31 H20        29.4590   46.1700   -0.9690 h1        1 NHV      0.096700
     32 H2B        30.8670   47.9070   -0.5120 ho        1 NHV      0.457000
     33 H8B        25.9710   47.5050   -4.6240 h4        1 NHV      0.238000
     34 HC         30.1640   46.9510   -3.9390 hn        1 NHV      0.371700
     35 H7C1       27.5750   46.6460   -6.7980 h1        1 NHV      0.100200
     36 H7C2       28.7150   48.0740   -6.6630 h1        1 NHV      0.100200
     37 H1         29.4150   45.2020   -6.5260 hn        1 NHV      0.404800
     38 H6         30.8380   48.5120   -7.2280 ha        1 NHV      0.141500
     39 H2         31.3390   44.6600   -5.2540 ha        1 NHV      0.141500
     40 H5         33.1600   49.1050   -6.6120 ha        1 NHV      0.149000
     41 H4         34.5840   47.5020   -5.3330 ha        1 NHV      0.152000
     42 H3         33.6580   45.2810   -4.6640 ha        1 NHV      0.149000
@<TRIPOS>BOND
     1    1    2 1   
     2    1   23 1   
     3    2    3 1   
     4    2   24 1   
     5    2   25 1   
     6    3    4 1   
     7    3    9 1   
     8    3   26 1   
     9    4    5 1   
    10    4    6 1   
    11    4   27 1   
    12    5   28 1   
    13    6    7 1   
    14    6   22 1   
    15    6   29 1   
    16    7   30 1   
    17    8   22 1   
    18    8   32 1   
    19    9   10 1   
    20    9   13 2   
    21   10   11 2   
    22   10   33 1   
    23   11   12 1   
    24   11   14 1   
    25   12   13 1   
    26   12   34 1   
    27   13   22 1   
    28   14   15 1   
    29   14   35 1   
    30   14   36 1   
    31   15   16 1   
    32   15   37 1   
    33   16   17 ar  
    34   16   21 ar  
    35   17   18 ar  
    36   17   38 1   
    37   18   19 ar  
    38   18   40 1   
    39   19   20 ar  
    40   19   41 1   
    41   20   21 ar  
    42   20   42 1   
    43   21   39 1   
    44   22   31 1   
@<TRIPOS>SUBSTRUCTURE
     1 NHV         1 TEMP              0 ****  ****    0 ROOT
