@<TRIPOS>MOLECULE
NHV
   42    38     1     0     0
SMALL
bcc


@<TRIPOS>ATOM
      1 O6B        -4.8480   -0.8730   -1.4200 oh        1 NHV     -0.337000
      2 C6B        -3.6300   -0.2650   -1.3020 c3        1 NHV     -0.027000
      3 C5B        -3.2010   -0.2820    0.1170 c3        1 NHV     -0.031000
      4 C4B        -4.0240    0.6250    0.8430 c3        1 NHV      0.002000
      5 O4B        -5.3450   -0.0930    1.1730 oh        1 NHV     -0.316000
      6 C3B        -3.4640    1.1620    2.1180 c3        1 NHV      0.001000
      7 O3B        -4.4150    2.1900    2.6420 oh        1 NHV     -0.325000
      8 O2B        -2.3000    3.1480    1.6520 oh        1 NHV     -0.318000
      9 N1B        -1.5850    0.0030    0.1560 n3        1 NHV     -0.074000
     10 C8B        -0.5610   -0.4050   -0.6030 c1        1 NHV     -0.119000
     11 C7B         0.6040    0.3800   -0.2460 c1        1 NHV     -0.031000
     12 N2B         0.2280    1.2890    0.7740 n2        1 NHV     -0.100000
     13 C1B        -1.0890    1.0940    1.0470 c1        1 NHV      0.074000
     14 C7          1.9840    0.2770   -0.8890 c2        1 NHV      0.007000
     15 N1          2.6000   -0.9960   -0.5290 n3        1 NHV     -0.313000
     16 C1          4.0170   -1.2460   -0.8610 c2        1 NHV      0.019000
     17 C6          4.4200   -2.5050   -1.3020 c2        1 NHV     -0.164000
     18 C5          5.7790   -2.7630   -1.5340 c1        1 NHV     -0.086000
     19 C4          6.7330   -1.7510   -1.3230 c1        1 NHV     -0.115500
     20 C3          6.3310   -0.5000   -0.8850 c1        1 NHV     -0.115500
     21 C2          4.9680   -0.2410   -0.6520 c1        1 NHV     -0.198000
     22 C20        -2.1350    1.7730    2.0490 c2        1 NHV      0.098000
     23 H6B        -5.0020   -1.0400   -2.2390 ho        1 NHV      0.242000
     24 H6B1       -2.9600   -0.7550   -1.8580 h1        1 NHV      0.090500
     25 H6B2       -3.6980    0.6910   -1.6210 h1        1 NHV      0.090500
     26 H5B        -3.3610   -1.2070    0.4820 h1        1 NHV      0.164000
     27 H4B        -4.2340    1.4060    0.2400 h1        1 NHV      0.121000
     28 HA         -6.0230    0.4560    1.0340 ho        1 NHV      0.251000
     29 H3B        -3.4260    0.4480    2.7410 h1        1 NHV      0.123000
     30 HB         -4.6300    1.9970    3.4320 ho        1 NHV      0.255000
     31 H20        -1.7390    1.7590    2.9630 h4        1 NHV      0.140000
     32 H2B        -1.9280    3.6750    2.2540 ho        1 NHV      0.264000
     33 H8B        -0.5950   -1.1250   -1.2940 DU        1 NHV      0.274500
     34 HC          0.7930    1.9200    1.1910 DU        1 NHV      0.274500
     35 H7C1        2.5390    1.0030   -0.5780 h4        1 NHV      0.126000
     36 H7C2        1.8930    0.3320   -1.8730 h4        1 NHV      0.126000
     37 H1          2.0960   -1.6560   -0.0470 hn        1 NHV      0.219000
     38 H6          3.7540   -3.2090   -1.4490 ha        1 NHV      0.142000
     39 H2          4.6850    0.6420   -0.3410 ha        1 NHV      0.118000
     40 H5          6.0630   -3.6450   -1.8420 ha        1 NHV      0.150000
     41 H4          7.6980   -1.9330   -1.4880 ha        1 NHV      0.147000
     42 H3          7.0080    0.2180   -0.7350 ha        1 NHV      0.147000
@<TRIPOS>BOND
     1    1    2 1   
     2    1   23 1   
     3    2    3 1   
     4    2   24 1   
     5    2   25 1   
     6    3    4 1   
     7    3    9 1   
     8    3   26 1   
     9    4    5 1   
    10    4    6 1   
    11    4   27 1   
    12    5   28 1   
    13    6    7 1   
    14    6   22 1   
    15    6   29 1   
    16    7   30 1   
    17    8   22 1   
    18    8   32 1   
    19    9   10 1   
    20    9   13 1   
    21   10   11 1   
    22   11   12 1   
    23   12   13 1   
    24   14   15 1   
    25   14   35 1   
    26   14   36 1   
    27   15   16 1   
    28   15   37 1   
    29   16   17 1   
    30   16   21 1   
    31   17   18 1   
    32   17   38 1   
    33   18   40 1   
    34   19   20 1   
    35   19   41 1   
    36   20   42 1   
    37   21   39 1   
    38   22   31 1   
@<TRIPOS>SUBSTRUCTURE
     1 NHV         1 TEMP              0 ****  ****    0 ROOT
