@<TRIPOS>MOLECULE
NHV
   42    44     1     0     0
SMALL
bcc


@<TRIPOS>ATOM
      1 O6B         2.4390    1.1490   -0.5100 oh        1 NHV     -0.589800
      2 C6B         3.3060    1.0430    0.5910 c3        1 NHV      0.122400
      3 C5B         2.6480    0.3490    1.8060 c3        1 NHV     -0.008000
      4 C4B         2.6600   -1.1960    1.6100 c3        1 NHV      0.130100
      5 O4B         3.9620   -1.5750    2.0210 oh        1 NHV     -0.590800
      6 C3B         1.6170   -1.9980    2.4230 c3        1 NHV      0.107100
      7 O3B         0.6710   -2.4540    1.4780 oh        1 NHV     -0.586800
      8 O2B        -0.2210   -1.9100    3.9580 oh        1 NHV     -0.582800
      9 N1B         1.3190    0.8400    2.1110 na        1 NHV     -0.008100
     10 C8B         0.6330    1.9630    1.6350 cc        1 NHV     -0.090300
     11 C7B        -0.6480    1.9400    2.2150 cd        1 NHV     -0.124600
     12 N2B        -0.7180    0.7940    3.0280 na        1 NHV     -0.107100
     13 C1B         0.4780    0.1310    2.9510 cc        1 NHV     -0.015900
     14 C7         -1.7840    2.9040    2.0190 c3        1 NHV      0.263100
     15 N1         -2.4700    3.3310    3.1950 nu        1 NHV     -0.737600
     16 C1         -3.1990    2.4180    3.9790 ca        1 NHV      0.117600
     17 C6         -3.7650    1.2430    3.4370 ca        1 NHV     -0.203000
     18 C5         -4.5480    0.4100    4.2320 ca        1 NHV     -0.087000
     19 C4         -4.7780    0.7120    5.5710 ca        1 NHV     -0.153000
     20 C3         -4.2240    1.8710    6.1180 ca        1 NHV     -0.087000
     21 C2         -3.4380    2.7150    5.3440 ca        1 NHV     -0.203000
     22 C20         0.9150   -1.1860    3.5420 c3        1 NHV      0.176400
     23 H6B         2.4700    0.3200   -1.0060 ho        1 NHV      0.423000
     24 H6B1        3.5690    2.1040    0.8580 h1        1 NHV      0.087200
     25 H6B2        4.2420    0.4710    0.3500 h1        1 NHV      0.087200
     26 H5B         3.3030    0.5790    2.7080 h1        1 NHV      0.114700
     27 H4B         2.4950   -1.4280    0.5180 h1        1 NHV      0.088700
     28 HA          4.1540   -2.4350    1.6230 ho        1 NHV      0.437000
     29 H3B         2.1270   -2.8730    2.9210 h1        1 NHV      0.084700
     30 HB          0.0400   -3.0210    1.9460 ho        1 NHV      0.441000
     31 H20         1.6370   -0.9860    4.3830 h1        1 NHV      0.102700
     32 H2B        -0.1790   -2.0120    4.9190 ho        1 NHV      0.443000
     33 H8B         1.0830    2.6530    0.9110 h4        1 NHV      0.241000
     34 HC         -1.5250    0.4900    3.5400 hn        1 NHV      0.370700
     35 H7C1       -1.3610    3.8190    1.5070 h1        1 NHV      0.097700
     36 H7C2       -2.5220    2.4210    1.3100 h1        1 NHV      0.097700
     37 H1         -1.9980    4.0360    3.7220 hn        1 NHV      0.419800
     38 H6         -3.6510    1.0020    2.3690 ha        1 NHV      0.139500
     39 H2         -3.0260    3.6320    5.7950 ha        1 NHV      0.139500
     40 H5         -5.0010   -0.4900    3.7860 ha        1 NHV      0.147500
     41 H4         -5.4040    0.0530    6.1910 ha        1 NHV      0.151000
     42 H3         -4.4150    2.1250    7.1730 ha        1 NHV      0.147500
@<TRIPOS>BOND
     1    1    2 1   
     2    1   23 1   
     3    2    3 1   
     4    2   24 1   
     5    2   25 1   
     6    3    4 1   
     7    3    9 1   
     8    3   26 1   
     9    4    5 1   
    10    4    6 1   
    11    4   27 1   
    12    5   28 1   
    13    6    7 1   
    14    6   22 1   
    15    6   29 1   
    16    7   30 1   
    17    8   22 1   
    18    8   32 1   
    19    9   10 1   
    20    9   13 2   
    21   10   11 2   
    22   10   33 1   
    23   11   12 1   
    24   11   14 1   
    25   12   13 1   
    26   12   34 1   
    27   13   22 1   
    28   14   15 1   
    29   14   35 1   
    30   14   36 1   
    31   15   16 1   
    32   15   37 1   
    33   16   17 ar  
    34   16   21 ar  
    35   17   18 ar  
    36   17   38 1   
    37   18   19 ar  
    38   18   40 1   
    39   19   20 ar  
    40   19   41 1   
    41   20   21 ar  
    42   20   42 1   
    43   21   39 1   
    44   22   31 1   
@<TRIPOS>SUBSTRUCTURE
     1 NHV         1 TEMP              0 ****  ****    0 ROOT
