@<TRIPOS>MOLECULE
NHV
   42    44     1     0     0
SMALL
bcc


@<TRIPOS>ATOM
      1 O6B         2.3270    1.1080   -0.6060 oh        1 NHV     -0.589800
      2 C6B         3.2310    1.0010    0.4650 c3        1 NHV      0.122400
      3 C5B         2.6100    0.3200    1.7060 c3        1 NHV     -0.008000
      4 C4B         2.6030   -1.2270    1.5180 c3        1 NHV      0.130100
      5 O4B         3.9150   -1.6140    1.8860 oh        1 NHV     -0.590800
      6 C3B         1.5820   -2.0150    2.3730 c3        1 NHV      0.107100
      7 O3B         0.6000   -2.4690    1.4640 oh        1 NHV     -0.586800
      8 O2B        -0.2010   -1.9030    3.9700 oh        1 NHV     -0.582800
      9 N1B         1.2960    0.8230    2.0540 na        1 NHV     -0.008100
     10 C8B         0.6040    1.9490    1.5950 cc        1 NHV     -0.090300
     11 C7B        -0.6560    1.9400    2.2190 cd        1 NHV     -0.124600
     12 N2B        -0.7080    0.7990    3.0420 na        1 NHV     -0.107100
     13 C1B         0.4800    0.1260    2.9270 cc        1 NHV     -0.015900
     14 C7         -1.7920    2.9120    2.0570 c3        1 NHV      0.263100
     15 N1         -2.4330    3.3500    3.2530 nh        1 NHV     -0.737600
     16 C1         -3.1430    2.4480    4.0670 ca        1 NHV      0.117600
     17 C6         -3.7350    1.2740    3.5500 ca        1 NHV     -0.203000
     18 C5         -4.4980    0.4510    4.3760 ca        1 NHV     -0.087000
     19 C4         -4.6800    0.7620    5.7200 ca        1 NHV     -0.153000
     20 C3         -4.0990    1.9190    6.2420 ca        1 NHV     -0.087000
     21 C2         -3.3330    2.7530    5.4370 ca        1 NHV     -0.203000
     22 C20         0.9260   -1.1910    3.5100 c3        1 NHV      0.176400
     23 H6B         2.3340    0.2760   -1.0980 ho        1 NHV      0.423000
     24 H6B1        4.1530    0.4200    0.1940 h1        1 NHV      0.087200
     25 H6B2        3.5110    2.0620    0.7160 h1        1 NHV      0.087200
     26 H5B         3.2980    0.5490    2.5830 h1        1 NHV      0.114700
     27 H4B         2.3980   -1.4630    0.4340 h1        1 NHV      0.088700
     28 HA          4.0850   -2.4780    1.4870 ho        1 NHV      0.437000
     29 H3B         2.1020   -2.8910    2.8580 h1        1 NHV      0.084700
     30 HB         -0.0190   -3.0280    1.9570 ho        1 NHV      0.441000
     31 H20         1.6780   -0.9920    4.3250 h1        1 NHV      0.102700
     32 H2B        -0.1260   -2.0000    4.9300 ho        1 NHV      0.443000
     33 H8B         1.0340    2.6310    0.8520 h4        1 NHV      0.241000
     34 HC         -1.4990    0.5050    3.5830 hn        1 NHV      0.370700
     35 H7C1       -1.3790    3.8210    1.5270 h1        1 NHV      0.097700
     36 H7C2       -2.5570    2.4310    1.3760 h1        1 NHV      0.097700
     37 H1         -1.9390    4.0550    3.7600 hn        1 NHV      0.419800
     38 H6         -3.6590    1.0260    2.4810 ha        1 NHV      0.139500
     39 H2         -2.8990    3.6690    5.8690 ha        1 NHV      0.139500
     40 H5         -4.9720   -0.4480    3.9500 ha        1 NHV      0.147500
     41 H4         -5.2900    0.1100    6.3640 ha        1 NHV      0.151000
     42 H3         -4.2530    2.1800    7.3010 ha        1 NHV      0.147500
@<TRIPOS>BOND
     1    1    2 1   
     2    1   23 1   
     3    2    3 1   
     4    2   24 1   
     5    2   25 1   
     6    3    4 1   
     7    3    9 1   
     8    3   26 1   
     9    4    5 1   
    10    4    6 1   
    11    4   27 1   
    12    5   28 1   
    13    6    7 1   
    14    6   22 1   
    15    6   29 1   
    16    7   30 1   
    17    8   22 1   
    18    8   32 1   
    19    9   10 1   
    20    9   13 2   
    21   10   11 2   
    22   10   33 1   
    23   11   12 1   
    24   11   14 1   
    25   12   13 1   
    26   12   34 1   
    27   13   22 1   
    28   14   15 1   
    29   14   35 1   
    30   14   36 1   
    31   15   16 1   
    32   15   37 1   
    33   16   17 ar  
    34   16   21 ar  
    35   17   18 ar  
    36   17   38 1   
    37   18   19 ar  
    38   18   40 1   
    39   19   20 ar  
    40   19   41 1   
    41   20   21 ar  
    42   20   42 1   
    43   21   39 1   
    44   22   31 1   
@<TRIPOS>SUBSTRUCTURE
     1 NHV         1 TEMP              0 ****  ****    0 ROOT
