@<TRIPOS>MOLECULE
NHV
   43    45     1     0     0
SMALL
bcc


@<TRIPOS>ATOM
      1 O6B        -0.4390   -1.8340    2.1320 oh        1 NHV     -0.599800
      2 C6B         0.3500   -1.4810    1.0270 c3        1 NHV      0.126400
      3 C5B         1.5180   -0.5250    1.3940 c3        1 NHV     -0.021000
      4 C4B         2.7850   -1.3020    1.8530 c3        1 NHV      0.132100
      5 O4B         3.8960   -0.5050    1.4820 oh        1 NHV     -0.603800
      6 C3B         2.8750   -1.5230    3.3780 c3        1 NHV      0.109100
      7 O3B         1.7680   -2.3090    3.7560 oh        1 NHV     -0.604800
      8 O2B         2.7290   -0.3320    5.4980 oh        1 NHV     -0.596800
      9 N1B         1.1180    0.4910    2.3650 na        1 NHV      0.004900
     10 C8B         0.0210    1.3510    2.2650 cc        1 NHV     -0.018300
     11 C7B        -0.0980    2.0320    3.4910 cd        1 NHV     -0.193600
     12 N2B         0.9430    1.5640    4.3240 na        1 NHV     -0.126100
     13 C1B         1.6680    0.6270    3.6290 cc        1 NHV      0.086100
     14 C7         -1.0590    3.0950    3.8600 c3        1 NHV      0.190100
     15 N1         -2.3520    2.5700    4.4210 n4        1 NHV     -0.631400
     16 C1         -3.3760    2.3210    3.3980 ca        1 NHV     -0.091400
     17 C6         -3.9970    3.4140    2.7640 ca        1 NHV     -0.105000
     18 C5         -5.0070    3.1710    1.8370 ca        1 NHV     -0.096500
     19 C4         -5.3990    1.8630    1.5410 ca        1 NHV     -0.056000
     20 C3         -4.7750    0.7850    2.1730 ca        1 NHV     -0.096500
     21 C2         -3.7610    1.0010    3.1040 ca        1 NHV     -0.105000
     22 C20         2.8710   -0.1580    4.1040 c3        1 NHV      0.169400
     23 H6B        -0.0210   -2.5820    2.5830 ho        1 NHV      0.444000
     24 H6B1       -0.3500   -0.9460    0.3260 h1        1 NHV      0.083700
     25 H6B2        0.7810   -2.3780    0.5070 h1        1 NHV      0.083700
     26 H5B         1.8080    0.0380    0.4490 h1        1 NHV      0.126700
     27 H4B         2.7850   -2.3040    1.3410 h1        1 NHV      0.109700
     28 HA          4.5110   -1.0530    0.9740 ho        1 NHV      0.452000
     29 H3B         3.8440   -2.0440    3.6220 h1        1 NHV      0.100700
     30 HB          1.9150   -2.5980    4.6700 ho        1 NHV      0.453000
     31 H20         3.8030    0.4190    3.8250 h1        1 NHV      0.131700
     32 H2B         3.6180   -0.3450    5.8860 ho        1 NHV      0.462000
     33 H8B        -0.5860    1.4190    1.3530 h4        1 NHV      0.240000
     34 HC          1.1450    1.8530    5.2570 hn        1 NHV      0.365700
     35 H7C1       -0.6110    3.7910    4.6330 hx        1 NHV      0.135700
     36 H7C2       -1.3060    3.7050    2.9360 hx        1 NHV      0.135700
     37 H1         -2.7300    3.2740    5.0740 hn        1 NHV      0.466300
     38 H6         -3.7140    4.4540    2.9960 ha        1 NHV      0.159000
     39 H2         -3.2920    0.1350    3.6000 ha        1 NHV      0.159000
     40 H5         -5.5060    4.0240    1.3420 ha        1 NHV      0.183500
     41 H4         -6.2100    1.6820    0.8120 ha        1 NHV      0.186000
     42 H3         -5.0920   -0.2480    1.9460 ha        1 NHV      0.183500
     43 H12        -2.1850    1.6990    4.9410 hn        1 NHV      0.466300
@<TRIPOS>BOND
     1    1    2 1   
     2    1   23 1   
     3    2    3 1   
     4    2   24 1   
     5    2   25 1   
     6    3    4 1   
     7    3    9 1   
     8    3   26 1   
     9    4    5 1   
    10    4    6 1   
    11    4   27 1   
    12    5   28 1   
    13    6    7 1   
    14    6   22 1   
    15    6   29 1   
    16    7   30 1   
    17    8   22 1   
    18    8   32 1   
    19    9   10 1   
    20    9   13 2   
    21   10   11 2   
    22   10   33 1   
    23   11   12 1   
    24   11   14 1   
    25   12   13 1   
    26   12   34 1   
    27   13   22 1   
    28   14   15 1   
    29   14   35 1   
    30   14   36 1   
    31   15   16 1   
    32   15   37 1   
    33   15   43 1   
    34   16   17 ar  
    35   16   21 ar  
    36   17   18 ar  
    37   17   38 1   
    38   18   19 ar  
    39   18   40 1   
    40   19   20 ar  
    41   19   41 1   
    42   20   21 ar  
    43   20   42 1   
    44   21   39 1   
    45   22   31 1   
@<TRIPOS>SUBSTRUCTURE
     1 NHV         1 TEMP              0 ****  ****    0 ROOT
