@<TRIPOS>MOLECULE
NHX
   65    66     1     0     0
SMALL
bcc


@<TRIPOS>ATOM
      1 C          -5.2220    2.8230   -0.7270 c         1 NHX      0.635100
      2 N          -2.9110    2.0480   -0.2490 n         1 NHX     -0.555900
      3 O          -5.6730    3.4510   -1.7050 o         1 NHX     -0.619100
      4 CA         -3.8320    3.1510   -0.1220 c3        1 NHX      0.038700
      5 CB         -3.3110    4.4280   -0.7770 c3        1 NHX     -0.097100
      6 CAA         3.1460    4.3910    1.6830 c3        1 NHX     -0.095100
      7 CAB         3.6560    2.0030    2.1550 c3        1 NHX     -0.095100
      8 NAD        -5.9430    1.8240   -0.1340 n         1 NHX     -0.669000
      9 OAF         4.2260    0.1940   -0.6430 o         1 NHX     -0.568100
     10 OAG        -0.3370    1.2580   -1.5480 o         1 NHX     -0.633100
     11 OAH        -3.6740    0.9350    1.6060 o         1 NHX     -0.637100
     12 OAI         5.7940    0.7590   -2.7090 oh        1 NHX     -0.435100
     13 CAJ         1.4160   -6.4920   -0.3130 ca        1 NHX     -0.124000
     14 CAK         0.3340   -6.3580   -1.2170 ca        1 NHX     -0.124000
     15 CAL        -0.0890   -2.5380    2.0660 ca        1 NHX     -0.134000
     16 CAM         1.5790   -5.5920    0.7110 ca        1 NHX     -0.116000
     17 CAN        -0.5630   -5.3280   -1.0800 ca        1 NHX     -0.118000
     18 CAO         0.8050   -3.5700    1.9290 ca        1 NHX     -0.108000
     19 CAP        -1.3300   -3.3050    0.1350 ca        1 NHX     -0.107000
     20 CAQ         2.4080    1.5440   -1.5290 c3        1 NHX     -0.152400
     21 CAR        -2.1300   -1.2710    1.3360 c3        1 NHX     -0.043100
     22 CAS         1.7340    2.6240    0.6590 c3        1 NHX     -0.074400
     23 NAT         4.7250    1.5230   -2.4710 n         1 NHX     -0.352400
     24 NAV        -0.4760    0.4190    0.5730 n         1 NHX     -0.556900
     25 CAX         3.8150    0.9920   -1.5020 c         1 NHX      0.591100
     26 CAY         0.2250    1.0080   -0.4600 c         1 NHX      0.664100
     27 CAZ        -2.8790    1.0090    0.6450 c         1 NHX      0.645100
     28 CBA        -1.1730   -2.3950    1.1580 ca        1 NHX     -0.092300
     29 CBB         0.6650   -4.5160    0.8770 ca        1 NHX     -0.036000
     30 CBC        -0.4180   -4.3810   -0.0290 ca        1 NHX     -0.034000
     31 CBD         3.1390    2.9830    1.1230 c3        1 NHX     -0.067700
     32 CBF         1.6890    1.3650   -0.1980 c3        1 NHX     -0.125700
     33 CBG        -1.8120   -0.0920    0.4010 c3        1 NHX      0.045700
     34 HN         -2.2970    2.0460   -1.0360 hn        1 NHX      0.348500
     35 HA         -3.9900    3.3480    0.9840 h1        1 NHX      0.081700
     36 HB         -4.0640    5.2380   -0.6230 hc        1 NHX      0.055367
     37 HBA        -2.3400    4.7360   -0.3210 hc        1 NHX      0.055367
     38 HBB        -3.1750    4.2860   -1.8760 hc        1 NHX      0.055367
     39 HAA         4.1760    4.6700    2.0110 hc        1 NHX      0.038533
     40 HAAA        2.8100    5.1240    0.9110 hc        1 NHX      0.038533
     41 HAAB        2.4630    4.4650    2.5630 hc        1 NHX      0.038533
     42 HAB         4.6360    2.3540    2.5590 hc        1 NHX      0.038533
     43 HABA        2.9390    1.9070    3.0050 hc        1 NHX      0.038533
     44 HABB        3.8090    0.9960    1.6930 hc        1 NHX      0.038533
     45 HNAD       -6.8470    1.6070   -0.4720 hn        1 NHX      0.321000
     46 HNAA       -5.6030    1.3570    0.6710 hn        1 NHX      0.321000
     47 HOAI        6.3580    0.8330   -1.9140 ho        1 NHX      0.435000
     48 HAJ         2.1220   -7.3250   -0.4450 ha        1 NHX      0.134000
     49 HAK         0.2240   -7.0920   -2.0300 ha        1 NHX      0.134000
     50 HAL         0.0150   -1.8140    2.8880 ha        1 NHX      0.129000
     51 HAM         2.4170   -5.6860    1.4180 ha        1 NHX      0.135000
     52 HAN        -1.4070   -5.2160   -1.7780 ha        1 NHX      0.134000
     53 HAO         1.6450   -3.6830    2.6310 ha        1 NHX      0.136000
     54 HAP        -2.1680   -3.2120   -0.5730 ha        1 NHX      0.135000
     55 HAQ         2.4170    2.6310   -1.8090 hc        1 NHX      0.091200
     56 HAQA        1.8520    0.9970   -2.3420 hc        1 NHX      0.091200
     57 HAR        -3.1760   -1.6070    1.1030 hc        1 NHX      0.077200
     58 HARA       -2.1320   -0.9160    2.4020 hc        1 NHX      0.077200
     59 HAS         1.0820    2.4830    1.5620 hc        1 NHX      0.051200
     60 HASA        1.3100    3.4810    0.0710 hc        1 NHX      0.051200
     61 HNAT        4.2800    1.7120   -3.3620 hn        1 NHX      0.299500
     62 HNAV        0.0030    0.1590    1.4040 hn        1 NHX      0.324500
     63 HBD         3.8280    2.9500    0.2290 hc        1 NHX      0.050700
     64 HBF         2.1790    0.5180    0.3660 hc        1 NHX      0.101700
     65 HBG        -1.9270   -0.4420   -0.6730 h1        1 NHX      0.089700
@<TRIPOS>BOND
     1    1    3 2   
     2    1    4 1   
     3    1    8 1   
     4    2    4 1   
     5    2   27 1   
     6    2   34 1   
     7    4    5 1   
     8    4   35 1   
     9    5   36 1   
    10    5   37 1   
    11    5   38 1   
    12    6   31 1   
    13    6   39 1   
    14    6   40 1   
    15    6   41 1   
    16    7   31 1   
    17    7   42 1   
    18    7   43 1   
    19    7   44 1   
    20    8   45 1   
    21    8   46 1   
    22    9   25 2   
    23   10   26 2   
    24   11   27 2   
    25   12   23 1   
    26   12   47 1   
    27   13   14 ar  
    28   13   16 ar  
    29   13   48 1   
    30   14   17 ar  
    31   14   49 1   
    32   15   18 ar  
    33   15   28 ar  
    34   15   50 1   
    35   16   29 ar  
    36   16   51 1   
    37   17   30 ar  
    38   17   52 1   
    39   18   29 ar  
    40   18   53 1   
    41   19   28 ar  
    42   19   30 ar  
    43   19   54 1   
    44   20   25 1   
    45   20   32 1   
    46   20   55 1   
    47   20   56 1   
    48   21   28 1   
    49   21   33 1   
    50   21   57 1   
    51   21   58 1   
    52   22   31 1   
    53   22   32 1   
    54   22   59 1   
    55   22   60 1   
    56   23   25 1   
    57   23   61 1   
    58   24   26 1   
    59   24   33 1   
    60   24   62 1   
    61   26   32 1   
    62   27   33 1   
    63   29   30 ar  
    64   31   63 1   
    65   32   64 1   
    66   33   65 1   
@<TRIPOS>SUBSTRUCTURE
     1 NHX         1 TEMP              0 ****  ****    0 ROOT
