@<TRIPOS>MOLECULE
NHX
   69    70     1     0     0
SMALL
bcc


@<TRIPOS>ATOM
      1 C          -0.0720   -0.6870   -0.5650 c         1 NHX      0.508100
      2 N           1.6750    1.1050   -0.3760 ny        1 NHX     -0.682800
      3 O          -0.5250   -0.1310   -1.5550 o         1 NHX     -0.356100
      4 CA          1.1890   -0.2210    0.1870 c3        1 NHX      0.074500
      5 CB          0.9170   -0.1260    1.6840 c3        1 NHX     -0.170100
      6 CAA        10.2890    1.0260   -1.8990 c3        1 NHX     -0.112600
      7 CAB         9.5860    3.1190   -3.0440 c3        1 NHX     -0.112600
      8 NAD        -0.7780   -1.9000   -0.0720 nz        1 NHX     -0.732400
      9 OAF         8.9530    5.8230   -1.0260 o         1 NHX     -0.369100
     10 OAG         5.4170    3.1660    0.6320 o         1 NHX     -0.420100
     11 OAH         3.8180    0.1560   -0.5750 o         1 NHX     -0.379100
     12 OAI        10.7680    4.2380    1.2720 oh        1 NHX     -0.373300
     13 CAJ         4.6560    7.7370   -6.4150 ca        1 NHX     -0.057000
     14 CAK         3.7610    8.2170   -5.4300 ca        1 NHX     -0.076000
     15 CAL         4.3910    3.2830   -4.5000 ca        1 NHX     -0.219000
     16 CAM         5.0520    6.4160   -6.4160 ca        1 NHX     -0.119000
     17 CAN         3.2720    7.3710   -4.4600 ca        1 NHX     -0.116000
     18 CAO         4.9090    4.1420   -5.4360 ca        1 NHX     -0.047000
     19 CAP         3.1200    5.0960   -3.4940 ca        1 NHX     -0.031000
     20 CAQ         8.1230    3.9980    0.3940 c3        1 NHX     -0.146400
     21 CAR         2.8160    2.7790   -2.6250 c3        1 NHX     -0.024100
     22 CAS         8.1370    2.0830   -1.2620 c3        1 NHX     -0.101400
     23 NAT        10.2560    5.4150    0.8490 ny        1 NHX     -0.453300
     24 NAV         5.1120    2.4920   -1.5760 ny        1 NHX     -0.694800
     25 CAX         9.0400    5.1020   -0.0510 c         1 NHX      0.575100
     26 CAY         5.9790    3.0400   -0.4430 c         1 NHX      0.562100
     27 CAZ         3.1500    1.1620   -0.7360 c         1 NHX      0.529100
     28 CBA         3.4780    3.7600   -3.5110 ca        1 NHX     -0.250300
     29 CBB         4.5590    5.5220   -5.4340 ca        1 NHX     -0.021000
     30 CBC         3.6540    6.0030   -4.4430 ca        1 NHX     -0.059000
     31 CBD         9.5640    2.3490   -1.7410 c3        1 NHX     -0.057700
     32 CBF         7.4180    3.3560   -0.8120 c3        1 NHX     -0.119700
     33 CBG         3.6320    2.4970   -1.3230 c3        1 NHX      0.057500
     34 HN          1.1380    1.3440   -1.2330 hn        1 NHX      0.496800
     35 HA          2.0060   -0.9960   -0.0020 hx        1 NHX      0.178700
     36 HB          1.7850    0.3320    2.2300 hc        1 NHX      0.119033
     37 HBA         0.0010    0.4760    1.9130 hc        1 NHX      0.119033
     38 HBB         0.8000   -1.1560    2.1140 hc        1 NHX      0.119033
     39 HAA        11.3440    1.2080   -2.2260 hc        1 NHX      0.062533
     40 HAAA       10.3140    0.4670   -0.9330 hc        1 NHX      0.062533
     41 HAAB        9.7920    0.3910   -2.6710 hc        1 NHX      0.062533
     42 HAB         9.1510    4.1410   -2.9190 hc        1 NHX      0.062533
     43 HABA       10.6410    3.2310   -3.4020 hc        1 NHX      0.062533
     44 HABB        9.0180    2.5770   -3.8390 hc        1 NHX      0.062533
     45 HNAD       -1.1050   -1.7660    0.8990 hn        1 NHX      0.512467
     46 HNAA       -0.1640   -2.7300   -0.1070 hn        1 NHX      0.512467
     47 HOAI       11.6410    4.3960    1.7140 ho        1 NHX      0.511000
     48 HAJ         5.0260    8.4320   -7.1910 ha        1 NHX      0.185000
     49 HAK         3.4520    9.2780   -5.4560 ha        1 NHX      0.182000
     50 HAL         4.5970    2.2040   -4.5730 ha        1 NHX      0.123000
     51 HAM         5.7410    6.0390   -7.1900 ha        1 NHX      0.169000
     52 HAN         2.5650    7.7420   -3.7000 ha        1 NHX      0.154000
     53 HAO         5.5840    3.7720   -6.2280 ha        1 NHX      0.173000
     54 HAP         2.3880    5.4790   -2.7640 ha        1 NHX      0.139000
     55 HAQ         8.6970    3.2070    0.9600 hc        1 NHX      0.142700
     56 HAQA        7.3800    4.4520    1.1130 hc        1 NHX      0.142700
     57 HAR         1.8160    3.1780   -2.2990 hc        1 NHX      0.085700
     58 HARA        2.6670    1.8140   -3.1820 hc        1 NHX      0.085700
     59 HAS         7.5830    1.6070   -2.1130 hc        1 NHX      0.067200
     60 HASA        8.1710    1.3510   -0.4100 hc        1 NHX      0.067200
     61 HNAT        9.9470    5.9890    1.6600 hn        1 NHX      0.493300
     62 HNAV        5.2780    3.0850   -2.4300 hn        1 NHX      0.503300
     63 HBD        10.0970    2.9530   -0.9500 hc        1 NHX      0.028700
     64 HBF         7.3990    4.0920   -1.6750 hc        1 NHX      0.138700
     65 HBG         3.4250    3.3260   -0.5740 hx        1 NHX      0.161700
     66 H2          1.4890    1.8400    0.3280 hn        1 NHX      0.496800
     67 HAD3       -1.6090   -2.0870   -0.6740 hn        1 NHX      0.512467
     68 HAT2       10.9510    5.9610    0.2930 hn        1 NHX      0.493300
     69 HAV2        5.4370    1.5380   -1.7960 hn        1 NHX      0.503300
@<TRIPOS>BOND
     1    1    3 2   
     2    1    4 1   
     3    1    8 1   
     4    2    4 1   
     5    2   27 1   
     6    2   34 1   
     7    2   66 1   
     8    4    5 1   
     9    4   35 1   
    10    5   36 1   
    11    5   37 1   
    12    5   38 1   
    13    6   31 1   
    14    6   39 1   
    15    6   40 1   
    16    6   41 1   
    17    7   31 1   
    18    7   42 1   
    19    7   43 1   
    20    7   44 1   
    21    8   45 1   
    22    8   46 1   
    23    8   67 1   
    24    9   25 2   
    25   10   26 2   
    26   11   27 2   
    27   12   23 1   
    28   12   47 1   
    29   13   14 ar  
    30   13   16 ar  
    31   13   48 1   
    32   14   17 ar  
    33   14   49 1   
    34   15   18 ar  
    35   15   28 ar  
    36   15   50 1   
    37   16   29 ar  
    38   16   51 1   
    39   17   30 ar  
    40   17   52 1   
    41   18   29 ar  
    42   18   53 1   
    43   19   28 ar  
    44   19   30 ar  
    45   19   54 1   
    46   20   25 1   
    47   20   32 1   
    48   20   55 1   
    49   20   56 1   
    50   21   28 1   
    51   21   33 1   
    52   21   57 1   
    53   21   58 1   
    54   22   31 1   
    55   22   32 1   
    56   22   59 1   
    57   22   60 1   
    58   23   25 1   
    59   23   61 1   
    60   23   68 1   
    61   24   26 1   
    62   24   33 1   
    63   24   62 1   
    64   24   69 1   
    65   26   32 1   
    66   27   33 1   
    67   29   30 ar  
    68   31   63 1   
    69   32   64 1   
    70   33   65 1   
@<TRIPOS>SUBSTRUCTURE
     1 NHX         1 TEMP              0 ****  ****    0 ROOT
