@<TRIPOS>MOLECULE
NHX
   65    60     1     0     0
SMALL
bcc


@<TRIPOS>ATOM
      1 C          -4.2590   -2.7850    0.8640 c1        1 NHX      0.508500
      2 N          -2.4130   -1.3600    1.4540 n         1 NHX     -0.499500
      3 O          -4.9630   -1.8620    0.5220 o         1 NHX     -0.621500
      4 CA         -3.1010   -2.5440    1.8270 c2        1 NHX      0.209500
      5 CB         -3.6340   -2.3940    3.2220 c3        1 NHX     -0.176400
      6 CAA         5.8760   -2.4110    2.1460 c3        1 NHX     -0.093100
      7 CAB         5.2460   -2.8110   -0.2440 c3        1 NHX     -0.093100
      8 NAD        -4.5500   -4.1220    0.4070 n3        1 NHX     -0.523400
      9 OAF         3.4150    2.2830   -0.1820 o         1 NHX     -0.568100
     10 OAG         1.2120    0.3310    2.0270 o         1 NHX     -0.625100
     11 OAH        -0.5160   -2.4760    0.7900 o         1 NHX     -0.616100
     12 OAI         5.1510    4.2840    0.5320 oh        1 NHX     -0.438100
     13 CAJ        -4.9500    4.4570   -3.9740 c1        1 NHX     -0.065250
     14 CAK        -3.7750    4.3160   -4.7150 c1        1 NHX     -0.065250
     15 CAL        -3.2840    1.2600   -0.7200 c1        1 NHX     -0.076500
     16 CAM        -5.1440    3.6960   -2.8230 c1        1 NHX     -0.065250
     17 CAN        -2.7990    3.4170   -4.3050 c1        1 NHX     -0.065250
     18 CAO        -4.3090    2.0900   -1.1870 c1        1 NHX     -0.056000
     19 CAP        -1.9560    1.8030   -2.6630 c1        1 NHX     -0.056000
     20 CAQ         3.8720    0.8250    1.6660 c3        1 NHX     -0.156400
     21 CAR        -1.2670   -0.1740   -1.3570 c3        1 NHX     -0.087300
     22 CAS         3.6310   -1.6190    1.2990 c3        1 NHX     -0.076400
     23 NAT         5.0240    3.1130    1.2460 n         1 NHX     -0.350400
     24 NAV         0.7970   -0.3770   -0.1340 n         1 NHX     -0.557900
     25 CAX         4.0850    2.1000    0.8120 c         1 NHX      0.592100
     26 CAY         1.6750   -0.0980    0.9950 c         1 NHX      0.666100
     27 CAZ        -1.1600   -1.4490    0.7530 c         1 NHX      0.644100
     28 CBA        -2.1090    1.1180   -1.4600 c1        1 NHX     -0.074100
     29 CBB        -4.1550    2.7840   -2.4060 cg        1 NHX     -0.038000
     30 CBC        -2.9950    2.6440   -3.1360 cg        1 NHX     -0.038000
     31 CBD         5.1360   -1.8330    0.9370 c3        1 NHX     -0.068700
     32 CBF         3.1850   -0.2290    0.8340 c3        1 NHX     -0.124700
     33 CBG        -0.6240   -0.2510    0.0130 c3        1 NHX      0.041700
     34 HN         -2.7240   -0.5460    1.7310 hn        1 NHX      0.331500
     35 HA         -2.4850   -3.3040    1.7930 h4        1 NHX      0.006800
     36 HB         -3.3460   -1.5320    3.5910 hc        1 NHX      0.053367
     37 HBA        -4.6150   -2.4290    3.2020 hc        1 NHX      0.053367
     38 HBB        -3.2920   -3.1210    3.7830 hc        1 NHX      0.053367
     39 HAA         5.9660   -1.7210    2.8340 hc        1 NHX      0.037033
     40 HAAA        5.3690   -3.1700    2.5080 hc        1 NHX      0.037033
     41 HAAB        6.7720   -2.7170    1.8670 hc        1 NHX      0.037033
     42 HAB         6.1960   -2.9170   -0.4960 hc        1 NHX      0.037033
     43 HABA        4.8770   -3.6850    0.0180 hc        1 NHX      0.037033
     44 HABB        4.7420   -2.4590   -1.0080 hc        1 NHX      0.037033
     45 HNAD       -5.2190   -4.2620   -0.2040 hn        1 NHX      0.277200
     46 HNAA       -4.0830   -4.8370    0.7500 hn        1 NHX      0.277200
     47 HOAI        5.2900    4.9740    1.1050 ho        1 NHX      0.437000
     48 HAJ        -5.6380    5.0910   -4.2630 ha        1 NHX      0.075500
     49 HAK        -3.6390    4.8490   -5.5210 ha        1 NHX      0.075500
     50 HAL        -3.3910    0.7800    0.1240 ha        1 NHX      0.103500
     51 HAM        -5.9660    3.7950   -2.3050 ha        1 NHX      0.075500
     52 HAN        -1.9790    3.3190   -4.8210 ha        1 NHX      0.075500
     53 HAO        -5.1270    2.1890   -0.6720 ha        1 NHX      0.090000
     54 HAP        -1.1400    1.7040   -3.1770 ha        1 NHX      0.090000
     55 HAQ         3.3120    1.0430    2.4460 hc        1 NHX      0.089700
     56 HAQA        4.7360    0.4890    1.9690 hc        1 NHX      0.089700
     57 HAR        -0.5690   -0.1640   -2.0450 hc        1 NHX      0.070200
     58 HARA       -1.8480   -0.9560   -1.4910 hc        1 NHX      0.070200
     59 HAS         3.5150   -1.6920    2.2700 hc        1 NHX      0.056200
     60 HASA        3.0900   -2.3010    0.8540 hc        1 NHX      0.056200
     61 HNAT        5.5680    2.9550    1.9680 hn        1 NHX      0.297500
     62 HNAV        1.1560   -0.5810   -0.9510 hn        1 NHX      0.335500
     63 HBD         5.5350   -0.9790    0.6890 hc        1 NHX      0.046700
     64 HBF         3.4250   -0.1070   -0.1070 hc        1 NHX      0.096700
     65 HBG        -0.8300    0.5650    0.5170 h1        1 NHX      0.105700
@<TRIPOS>BOND
     1    1    3 2   
     2    1    8 2   
     3    2    4 2   
     4    2   27 1   
     5    2   34 1   
     6    4    5 1   
     7    4   35 1   
     8    5   36 1   
     9    5   37 1   
    10    5   38 1   
    11    6   31 1   
    12    6   39 1   
    13    6   40 1   
    14    6   41 1   
    15    7   31 1   
    16    7   42 1   
    17    7   43 1   
    18    7   44 1   
    19    8   45 1   
    20    8   46 1   
    21    9   25 2   
    22   10   26 2   
    23   11   27 2   
    24   12   23 1   
    25   12   47 1   
    26   13   16 3   
    27   13   48 1   
    28   14   17 3   
    29   14   49 1   
    30   15   28 3   
    31   15   50 1   
    32   16   51 1   
    33   17   52 1   
    34   18   29 3   
    35   18   53 1   
    36   19   30 3   
    37   19   54 1   
    38   20   25 1   
    39   20   32 1   
    40   20   55 1   
    41   20   56 1   
    42   21   28 1   
    43   21   33 1   
    44   21   57 1   
    45   21   58 1   
    46   22   31 1   
    47   22   32 1   
    48   22   59 1   
    49   22   60 1   
    50   23   25 1   
    51   23   61 1   
    52   24   26 1   
    53   24   33 1   
    54   24   62 1   
    55   26   32 1   
    56   27   33 1   
    57   29   30 1   
    58   31   63 1   
    59   32   64 1   
    60   33   65 1   
@<TRIPOS>SUBSTRUCTURE
     1 NHX         1 TEMP              0 ****  ****    0 ROOT
