@<TRIPOS>MOLECULE
NHX
   69    70     1     0     0
SMALL
bcc


@<TRIPOS>ATOM
      1 C          -0.0610   -0.6460   -0.5170 c         1 NHX      0.508100
      2 N           1.7170    1.1170   -0.3440 n4        1 NHX     -0.682800
      3 O          -0.5310   -0.0670   -1.4850 o         1 NHX     -0.356100
      4 CA          1.2260   -0.2110    0.2100 c3        1 NHX      0.074500
      5 CB          0.9940   -0.1360    1.7150 c3        1 NHX     -0.170100
      6 CAA        10.3090    0.9150   -2.0030 c3        1 NHX     -0.113600
      7 CAB         9.5480    2.9540   -3.2080 c3        1 NHX     -0.113600
      8 NAD        -0.7720   -1.8570   -0.0250 n4        1 NHX     -0.732400
      9 OAF         9.1170    5.6510   -1.1660 o         1 NHX     -0.372100
     10 OAG         5.5060    3.0970    0.6050 o         1 NHX     -0.419100
     11 OAH         3.8410    0.1400   -0.6120 o         1 NHX     -0.379100
     12 OAI         9.8380    5.0830    2.1030 oh        1 NHX     -0.376300
     13 CAJ         4.6460    7.7800   -6.3780 ca        1 NHX     -0.057000
     14 CAK         3.7770    8.2590   -5.3690 ca        1 NHX     -0.076000
     15 CAL         4.3700    3.3080   -4.5040 ca        1 NHX     -0.219000
     16 CAM         5.0280    6.4540   -6.4000 ca        1 NHX     -0.119000
     17 CAN         3.2990    7.4080   -4.3970 ca        1 NHX     -0.116000
     18 CAO         4.8780    4.1710   -5.4410 ca        1 NHX     -0.047000
     19 CAP         3.1410    5.1250   -3.4530 ca        1 NHX     -0.031000
     20 CAQ         8.2140    3.9080    0.3170 c3        1 NHX     -0.144400
     21 CAR         2.8280    2.8020   -2.6020 c3        1 NHX     -0.024100
     22 CAS         8.1740    1.9880   -1.3300 c3        1 NHX     -0.102400
     23 NAT        10.2260    5.4500    0.8620 n4        1 NHX     -0.454300
     24 NAV         5.1430    2.4730   -1.6090 n4        1 NHX     -0.694800
     25 CAX         9.1260    5.0130   -0.1300 c         1 NHX      0.575100
     26 CAY         6.0440    2.9810   -0.4830 c         1 NHX      0.562100
     27 CAZ         3.1830    1.1580   -0.7410 c         1 NHX      0.529100
     28 CBA         3.4840    3.7850   -3.4910 ca        1 NHX     -0.250300
     29 CBB         4.5440    5.5560   -5.4180 ca        1 NHX     -0.021000
     30 CBC         3.6650    6.0370   -4.4030 ca        1 NHX     -0.059000
     31 CBD         9.5800    2.2390   -1.8750 c3        1 NHX     -0.050700
     32 CBF         7.4820    3.2740   -0.8750 c3        1 NHX     -0.121700
     33 CBG         3.6700    2.4940   -1.3220 c3        1 NHX      0.057500
     34 HN          1.1620    1.3770   -1.1840 hn        1 NHX      0.496800
     35 HA          2.0260   -0.9950   -0.0120 hx        1 NHX      0.178700
     36 HB          1.8830    0.3000    2.2450 hc        1 NHX      0.119033
     37 HBA         0.8720   -1.1710    2.1310 hc        1 NHX      0.119033
     38 HBB         0.0930    0.4750    1.9770 hc        1 NHX      0.119033
     39 HAA        10.3750    0.3980   -1.0150 hc        1 NHX      0.064033
     40 HAAA       11.3490    1.0890   -2.3780 hc        1 NHX      0.064033
     41 HAAB        9.7880    0.2440   -2.7280 hc        1 NHX      0.064033
     42 HAB         8.9530    2.3780   -3.9580 hc        1 NHX      0.064033
     43 HABA       10.5890    3.0550   -3.6100 hc        1 NHX      0.064033
     44 HABB        9.1150    3.9790   -3.1080 hc        1 NHX      0.064033
     45 HNAD       -1.0720   -1.7340    0.9560 hn        1 NHX      0.512467
     46 HNAA       -0.1720   -2.6950   -0.0890 hn        1 NHX      0.512467
     47 HOAI       10.4820    5.4390    2.7690 ho        1 NHX      0.511000
     48 HAJ         5.0080    8.4790   -7.1540 ha        1 NHX      0.185000
     49 HAK         3.4800    9.3230   -5.3780 ha        1 NHX      0.182000
     50 HAL         4.5610    2.2280   -4.5920 ha        1 NHX      0.123000
     51 HAM         5.6960    6.0780   -7.1920 ha        1 NHX      0.170000
     52 HAN         2.6120    7.7790   -3.6200 ha        1 NHX      0.154000
     53 HAO         5.5320    3.8020   -6.2500 ha        1 NHX      0.173000
     54 HAP         2.4290    5.5080   -2.7030 ha        1 NHX      0.139000
     55 HAQ         7.4950    4.3580    1.0640 hc        1 NHX      0.144200
     56 HAQA        8.7990    3.1180    0.8730 hc        1 NHX      0.144200
     57 HAR         1.8410    3.2110   -2.2480 hc        1 NHX      0.085700
     58 HARA        2.6530    1.8470   -3.1660 hc        1 NHX      0.085700
     59 HAS         7.5830    1.4950   -2.1460 hc        1 NHX      0.067700
     60 HASA        8.2400    1.2720   -0.4670 hc        1 NHX      0.067700
     61 HNAT       10.3580    6.4820    0.7890 hn        1 NHX      0.494800
     62 HNAV        5.4470    1.5200   -1.8590 hn        1 NHX      0.502800
     63 HBD        10.1350    2.8810   -1.1330 hc        1 NHX      0.014700
     64 HBF         7.4650    4.0060   -1.7420 hc        1 NHX      0.138700
     65 HBG         3.4910    3.3160   -0.5580 hx        1 NHX      0.161700
     66 H2          1.5610    1.8430    0.3760 hn        1 NHX      0.496800
     67 HAD3       -1.6210   -2.0220   -0.6080 hn        1 NHX      0.512467
     68 HAT2       11.1190    4.9810    0.6020 hn        1 NHX      0.494800
     69 HAV2        5.2980    3.0830   -2.4530 hn        1 NHX      0.502800
@<TRIPOS>BOND
     1    1    3 2   
     2    1    4 1   
     3    1    8 1   
     4    2    4 1   
     5    2   27 1   
     6    2   34 1   
     7    2   66 1   
     8    4    5 1   
     9    4   35 1   
    10    5   36 1   
    11    5   37 1   
    12    5   38 1   
    13    6   31 1   
    14    6   39 1   
    15    6   40 1   
    16    6   41 1   
    17    7   31 1   
    18    7   42 1   
    19    7   43 1   
    20    7   44 1   
    21    8   45 1   
    22    8   46 1   
    23    8   67 1   
    24    9   25 2   
    25   10   26 2   
    26   11   27 2   
    27   12   23 1   
    28   12   47 1   
    29   13   14 ar  
    30   13   16 ar  
    31   13   48 1   
    32   14   17 ar  
    33   14   49 1   
    34   15   18 ar  
    35   15   28 ar  
    36   15   50 1   
    37   16   29 ar  
    38   16   51 1   
    39   17   30 ar  
    40   17   52 1   
    41   18   29 ar  
    42   18   53 1   
    43   19   28 ar  
    44   19   30 ar  
    45   19   54 1   
    46   20   25 1   
    47   20   32 1   
    48   20   55 1   
    49   20   56 1   
    50   21   28 1   
    51   21   33 1   
    52   21   57 1   
    53   21   58 1   
    54   22   31 1   
    55   22   32 1   
    56   22   59 1   
    57   22   60 1   
    58   23   25 1   
    59   23   61 1   
    60   23   68 1   
    61   24   26 1   
    62   24   33 1   
    63   24   62 1   
    64   24   69 1   
    65   26   32 1   
    66   27   33 1   
    67   29   30 ar  
    68   31   63 1   
    69   32   64 1   
    70   33   65 1   
@<TRIPOS>SUBSTRUCTURE
     1 NHX         1 TEMP              0 ****  ****    0 ROOT
