@<TRIPOS>MOLECULE
NHX
   69    70     1     0     0
SMALL
bcc


@<TRIPOS>ATOM
      1 C          -0.0850   -0.6690   -0.5680 c         1 NHX      0.508100
      2 N           1.6670    1.1190   -0.3790 n4        1 NHX     -0.682800
      3 O          -0.5360   -0.1120   -1.5580 o         1 NHX     -0.356100
      4 CA          1.1770   -0.2050    0.1860 c3        1 NHX      0.074500
      5 CB          0.9040   -0.1070    1.6820 c3        1 NHX     -0.170100
      6 CAA        10.2850    1.0220   -1.8910 c3        1 NHX     -0.112600
      7 CAB         9.5860    3.1160   -3.0380 c3        1 NHX     -0.112600
      8 NAD        -0.7940   -1.8790   -0.0730 n4        1 NHX     -0.732400
      9 OAF         8.9550    5.8210   -1.0200 o         1 NHX     -0.369100
     10 OAG         5.4120    3.1720    0.6320 o         1 NHX     -0.420100
     11 OAH         3.8090    0.1640   -0.5730 o         1 NHX     -0.379100
     12 OAI        10.7640    4.2320    1.2800 oh        1 NHX     -0.373300
     13 CAJ         4.6750    7.7290   -6.4290 ca        1 NHX     -0.057000
     14 CAK         3.7790    8.2130   -5.4470 ca        1 NHX     -0.076000
     15 CAL         4.3970    3.2800   -4.5030 ca        1 NHX     -0.219000
     16 CAM         5.0690    6.4070   -6.4250 ca        1 NHX     -0.119000
     17 CAN         3.2850    7.3710   -4.4750 ca        1 NHX     -0.116000
     18 CAO         4.9180    4.1360   -5.4390 ca        1 NHX     -0.047000
     19 CAP         3.1270    5.0980   -3.5050 ca        1 NHX     -0.031000
     20 CAQ         8.1200    3.9970    0.3980 c3        1 NHX     -0.146400
     21 CAR         2.8160    2.7840   -2.6300 c3        1 NHX     -0.024100
     22 CAS         8.1340    2.0830   -1.2580 c3        1 NHX     -0.101400
     23 NAT        10.2540    5.4110    0.8570 n4        1 NHX     -0.453300
     24 NAV         5.1100    2.4950   -1.5750 n4        1 NHX     -0.694800
     25 CAX         9.0390    5.1000   -0.0450 c         1 NHX      0.575100
     26 CAY         5.9750    3.0430   -0.4420 c         1 NHX      0.562100
     27 CAZ         3.1420    1.1710   -0.7360 c         1 NHX      0.529100
     28 CBA         3.4830    3.7610   -3.5170 ca        1 NHX     -0.250300
     29 CBB         4.5710    5.5170   -5.4430 ca        1 NHX     -0.021000
     30 CBC         3.6650    6.0030   -4.4550 ca        1 NHX     -0.059000
     31 CBD         9.5610    2.3470   -1.7350 c3        1 NHX     -0.057700
     32 CBF         7.4160    3.3570   -0.8090 c3        1 NHX     -0.119700
     33 CBG         3.6290    2.5030   -1.3260 c3        1 NHX      0.057500
     34 HN          1.4820    1.8560    0.3240 hn        1 NHX      0.496800
     35 HA          1.9920   -0.9830   -0.0020 hx        1 NHX      0.178700
     36 HB          1.7730    0.3490    2.2280 hc        1 NHX      0.119033
     37 HBA         0.7840   -1.1370    2.1140 hc        1 NHX      0.119033
     38 HBB        -0.0100    0.4970    1.9100 hc        1 NHX      0.119033
     39 HAA         9.7880    0.3890   -2.6650 hc        1 NHX      0.062533
     40 HAAA       11.3400    1.2030   -2.2170 hc        1 NHX      0.062533
     41 HAAB       10.3070    0.4630   -0.9250 hc        1 NHX      0.062533
     42 HAB         9.0190    2.5760   -3.8330 hc        1 NHX      0.062533
     43 HABA       10.6430    3.2270   -3.3930 hc        1 NHX      0.062533
     44 HABB        9.1540    4.1390   -2.9130 hc        1 NHX      0.062533
     45 HNAD       -1.6260   -2.0640   -0.6750 hn        1 NHX      0.512467
     46 HNAA       -0.1830   -2.7110   -0.1060 hn        1 NHX      0.512467
     47 HOAI       11.6370    4.3900    1.7230 ho        1 NHX      0.511000
     48 HAJ         5.0480    8.4220   -7.2050 ha        1 NHX      0.185000
     49 HAK         3.4720    9.2740   -5.4760 ha        1 NHX      0.182000
     50 HAL         4.6000    2.2010   -4.5730 ha        1 NHX      0.123000
     51 HAM         5.7590    6.0270   -7.1970 ha        1 NHX      0.169000
     52 HAN         2.5780    7.7450   -3.7180 ha        1 NHX      0.154000
     53 HAO         5.5950    3.7620   -6.2290 ha        1 NHX      0.173000
     54 HAP         2.3950    5.4850   -2.7770 ha        1 NHX      0.139000
     55 HAQ         7.3770    4.4530    1.1160 hc        1 NHX      0.142700
     56 HAQA        8.6920    3.2050    0.9650 hc        1 NHX      0.142700
     57 HAR         1.8170    3.1860   -2.3070 hc        1 NHX      0.085700
     58 HARA        2.6670    1.8180   -3.1850 hc        1 NHX      0.085700
     59 HAS         7.5790    1.6070   -2.1100 hc        1 NHX      0.067200
     60 HASA        8.1650    1.3510   -0.4060 hc        1 NHX      0.067200
     61 HNAT       10.9510    5.9560    0.3010 hn        1 NHX      0.493300
     62 HNAV        5.2790    3.0860   -2.4310 hn        1 NHX      0.503300
     63 HBD        10.0940    2.9490   -0.9430 hc        1 NHX      0.028700
     64 HBF         7.3990    4.0920   -1.6720 hc        1 NHX      0.138700
     65 HBG         3.4220    3.3350   -0.5790 hx        1 NHX      0.161700
     66 H2          1.1320    1.3570   -1.2370 hn        1 NHX      0.496800
     67 HAD3       -1.1220   -1.7430    0.8970 hn        1 NHX      0.512467
     68 HAT2        9.9460    5.9850    1.6670 hn        1 NHX      0.493300
     69 HAV2        5.4330    1.5400   -1.7930 hn        1 NHX      0.503300
@<TRIPOS>BOND
     1    1    3 2   
     2    1    4 1   
     3    1    8 1   
     4    2    4 1   
     5    2   27 1   
     6    2   34 1   
     7    2   66 1   
     8    4    5 1   
     9    4   35 1   
    10    5   36 1   
    11    5   37 1   
    12    5   38 1   
    13    6   31 1   
    14    6   39 1   
    15    6   40 1   
    16    6   41 1   
    17    7   31 1   
    18    7   42 1   
    19    7   43 1   
    20    7   44 1   
    21    8   45 1   
    22    8   46 1   
    23    8   67 1   
    24    9   25 2   
    25   10   26 2   
    26   11   27 2   
    27   12   23 1   
    28   12   47 1   
    29   13   14 ar  
    30   13   16 ar  
    31   13   48 1   
    32   14   17 ar  
    33   14   49 1   
    34   15   18 ar  
    35   15   28 ar  
    36   15   50 1   
    37   16   29 ar  
    38   16   51 1   
    39   17   30 ar  
    40   17   52 1   
    41   18   29 ar  
    42   18   53 1   
    43   19   28 ar  
    44   19   30 ar  
    45   19   54 1   
    46   20   25 1   
    47   20   32 1   
    48   20   55 1   
    49   20   56 1   
    50   21   28 1   
    51   21   33 1   
    52   21   57 1   
    53   21   58 1   
    54   22   31 1   
    55   22   32 1   
    56   22   59 1   
    57   22   60 1   
    58   23   25 1   
    59   23   61 1   
    60   23   68 1   
    61   24   26 1   
    62   24   33 1   
    63   24   62 1   
    64   24   69 1   
    65   26   32 1   
    66   27   33 1   
    67   29   30 ar  
    68   31   63 1   
    69   32   64 1   
    70   33   65 1   
@<TRIPOS>SUBSTRUCTURE
     1 NHX         1 TEMP              0 ****  ****    0 ROOT
