@<TRIPOS>MOLECULE
NHY
   11    10     1     0     0
SMALL
bcc


@<TRIPOS>ATOM
      1 O2          1.3250    1.8790    0.2980 o         1 NHY     -0.227100
      2 C           1.5500    0.7120    0.0500 c         1 NHY      0.511100
      3 N2          1.4720   -0.3570    1.0740 n4        1 NHY     -0.701400
      4 N1          1.9280    0.3360   -1.3820 n4        1 NHY     -0.416300
      5 O1          2.1360   -0.9970   -1.4520 oh        1 NHY     -0.389300
      6 HN21        1.2040    0.0780    1.9860 hn        1 NHY      0.533800
      7 HN22        2.3890   -0.8350    1.1840 hn        1 NHY      0.533800
      8 HN1         1.1390    0.6350   -2.0120 hn        1 NHY      0.535800
      9 HO1         2.3850   -1.2560   -2.3840 ho        1 NHY      0.550000
     10 H23         0.7610   -1.0700    0.8160 hn        1 NHY      0.533800
     11 H12         2.7950    0.8750   -1.6370 hn        1 NHY      0.535800
@<TRIPOS>BOND
     1    1    2 2   
     2    2    3 1   
     3    2    4 1   
     4    3    6 1   
     5    3    7 1   
     6    3   10 1   
     7    4    5 1   
     8    4    8 1   
     9    4   11 1   
    10    5    9 1   
@<TRIPOS>SUBSTRUCTURE
     1 NHY         1 TEMP              0 ****  ****    0 ROOT
