@<TRIPOS>MOLECULE
NHY
   11    10     1     0     0
SMALL
bcc


@<TRIPOS>ATOM
      1 O2          1.1330   -1.8140    0.3330 o         1 NHY     -0.227100
      2 C           1.4800   -0.6820    0.0640 c         1 NHY      0.511100
      3 N2          1.5360    0.4030    1.0720 n4        1 NHY     -0.701400
      4 N1          1.8750   -0.3710   -1.3790 n4        1 NHY     -0.416300
      5 O1          2.2180    0.9320   -1.4740 oh        1 NHY     -0.389300
      6 HN21        1.2280    0.0140    1.9930 hn        1 NHY      0.533800
      7 HN22        2.5010    0.7740    1.1670 hn        1 NHY      0.533800
      8 HN1         1.0500   -0.5970   -1.9940 hn        1 NHY      0.535800
      9 HO1         2.4760    1.1510   -2.4140 ho        1 NHY      0.550000
     10 H23         0.9080    1.1880    0.8100 hn        1 NHY      0.533800
     11 H12         2.6790   -1.0000   -1.6360 hn        1 NHY      0.535800
@<TRIPOS>BOND
     1    1    2 2   
     2    2    3 1   
     3    2    4 1   
     4    3    6 1   
     5    3    7 1   
     6    3   10 1   
     7    4    5 1   
     8    4    8 1   
     9    4   11 1   
    10    5    9 1   
@<TRIPOS>SUBSTRUCTURE
     1 NHY         1 TEMP              0 ****  ****    0 ROOT
