@<TRIPOS>MOLECULE
NHY
    9     8     1     0     0
SMALL
bcc


@<TRIPOS>ATOM
      1 O2          0.1770    1.1560   -0.1730 o         1 NHY     -0.615100
      2 C           0.3890   -0.0710   -0.0430 c         1 NHY      0.664100
      3 N2          1.6840   -0.5610    0.0620 n         1 NHY     -0.645000
      4 N1         -0.7400   -0.9990   -0.0740 n         1 NHY     -0.309400
      5 O1         -1.8760   -0.4050    0.3020 oh        1 NHY     -0.441100
      6 HN21        2.4090    0.0810   -0.1580 hn        1 NHY      0.310500
      7 HN22        1.8670   -1.5190   -0.1030 hn        1 NHY      0.310500
      8 HN1        -0.5990   -1.7740    0.5730 hn        1 NHY      0.282500
      9 HO1        -2.0720    0.2670   -0.3830 ho        1 NHY      0.443000
@<TRIPOS>BOND
     1    1    2 2   
     2    2    3 1   
     3    2    4 1   
     4    3    6 1   
     5    3    7 1   
     6    4    5 1   
     7    4    8 1   
     8    5    9 1   
@<TRIPOS>SUBSTRUCTURE
     1 NHY         1 TEMP              0 ****  ****    0 ROOT
