@<TRIPOS>MOLECULE
NHY
   11    10     1     0     0
SMALL
bcc


@<TRIPOS>ATOM
      1 O2          1.2470    1.8420    0.3500 o         1 NHY     -0.227100
      2 C           1.5150    0.6920    0.0680 c         1 NHY      0.511100
      3 N2          1.4220   -0.4180    1.0460 nz        1 NHY     -0.701400
      4 N1          1.9660    0.3830   -1.3590 ny        1 NHY     -0.416300
      5 O1          2.2100   -0.9410   -1.4710 oh        1 NHY     -0.389300
      6 HN21        1.0980   -0.0260    1.9600 hn        1 NHY      0.533800
      7 HN22        2.3460   -0.8730    1.1830 hn        1 NHY      0.533800
      8 HN1         1.1990    0.6890   -2.0120 hn        1 NHY      0.535800
      9 HO1         2.5040   -1.1580   -2.4010 ho        1 NHY      0.550000
     10 H23         0.7460   -1.1400    0.7280 hn        1 NHY      0.533800
     11 H12         2.8310    0.9510   -1.5530 hn        1 NHY      0.535800
@<TRIPOS>BOND
     1    1    2 2   
     2    2    3 1   
     3    2    4 1   
     4    3    6 1   
     5    3    7 1   
     6    3   10 1   
     7    4    5 1   
     8    4    8 1   
     9    4   11 1   
    10    5    9 1   
@<TRIPOS>SUBSTRUCTURE
     1 NHY         1 TEMP              0 ****  ****    0 ROOT
