@<TRIPOS>MOLECULE
NHY
    9     7     1     0     0
SMALL
bcc


@<TRIPOS>ATOM
      1 O2         -1.6890   -0.2030    0.3590 o         1 NHY     -0.376000
      2 C          -0.4900   -0.0270    0.3800 c1        1 NHY      0.291000
      3 N2          0.1540    0.3450    1.5970 n2        1 NHY     -0.405000
      4 N1          0.2680   -0.1380   -0.8230 n3        1 NHY     -0.150000
      5 O1         -0.3650   -0.4320   -2.0090 oh        1 NHY     -0.246000
      6 HN21       -0.3380    0.4770    2.3490 hn        1 NHY      0.224000
      7 HN22        1.0480    0.4860    1.6110 hn        1 NHY      0.224000
      8 HN1         1.1710    0.0250   -0.8130 hn        1 NHY      0.196000
      9 HO1         0.2420   -0.5350   -2.6520 ho        1 NHY      0.242000
@<TRIPOS>BOND
     1    1    2 1   
     2    2    4 1   
     3    3    6 1   
     4    3    7 1   
     5    4    5 1   
     6    4    8 1   
     7    5    9 1   
@<TRIPOS>SUBSTRUCTURE
     1 NHY         1 TEMP              0 ****  ****    0 ROOT
