@<TRIPOS>MOLECULE
NI0
   63    65     1     0     0
SMALL
bcc


@<TRIPOS>ATOM
      1 CAQ        -4.3830    1.0280   -1.0120 c3        1 NI0      0.222300
      2 CAO        -5.5660    0.4800   -1.8390 c3        1 NI0      0.156800
      3 NBC        -5.1620   -0.5320   -2.8040 n3        1 NI0     -0.730600
      4 CAD        -6.2810   -1.0600   -3.5510 c3        1 NI0      0.156100
      5 CAP        -4.3500   -1.5820   -2.2060 c3        1 NI0      0.156800
      6 CAR        -3.1700   -1.0300   -1.3770 c3        1 NI0      0.222300
      7 NBD        -3.5590   -0.0060   -0.4410 n3        1 NI0     -0.818500
      8 SBE        -3.1140   -0.0250    1.1200 sy        1 NI0      1.515200
      9 OAF        -4.0000    0.7720    1.8820 o         1 NI0     -0.653300
     10 OAG        -2.9240   -1.3570    1.5480 o         1 NI0     -0.653300
     11 CAV        -1.6070    0.7410    1.1140 ca        1 NI0     -0.419500
     12 CAJ        -0.4420    0.0240    0.8210 ca        1 NI0      0.064000
     13 CAH        -1.4940    2.0990    1.4350 ca        1 NI0      0.037000
     14 CAI        -0.2600    2.7340    1.4570 ca        1 NI0     -0.241000
     15 CAX         0.9030    2.0070    1.1550 ca        1 NI0      0.215100
     16 OAU         2.1600    2.5540    1.1530 os        1 NI0     -0.334900
     17 CAN         2.2540    3.9690    1.3930 c3        1 NI0      0.129400
     18 CAK         3.7300    4.3050    1.2650 c3        1 NI0     -0.089400
     19 CAA         3.9540    5.7730    1.5150 c3        1 NI0     -0.095100
     20 CAY         0.8140    0.6310    0.8360 ca        1 NI0     -0.208900
     21 CAZ         2.0080   -0.1860    0.4880 cc        1 NI0      0.558500
     22 NAS         1.9410   -0.9980   -0.5670 nd        1 NI0     -0.642300
     23 NAT         3.1250   -0.0830    1.3100 n         1 NI0     -0.461400
     24 CBB         4.2880   -0.8320    1.0330 c         1 NI0      0.691700
     25 OAE         5.2710   -0.6810    1.7820 o         1 NI0     -0.635500
     26 CBA         4.2140   -1.7350   -0.1250 cc        1 NI0     -0.232400
     27 CAM         5.4210   -2.5550   -0.3970 c3        1 NI0     -0.026200
     28 CAC         6.3660   -1.8840   -1.3660 c3        1 NI0     -0.089100
     29 CAW         3.0560   -1.7740   -0.8720 cd        1 NI0      0.182400
     30 CAL         2.9260   -2.6700   -2.0730 c3        1 NI0     -0.036200
     31 CAB         2.3190   -4.0000   -1.6970 c3        1 NI0     -0.090100
     32 H1         -3.7500    1.6800   -1.6810 h1        1 NI0      0.059200
     33 H2         -4.8080    1.6660   -0.1840 h1        1 NI0      0.059200
     34 H3         -6.3550    0.0920   -1.1310 h1        1 NI0      0.041700
     35 H4         -6.0090    1.3420   -2.4120 h1        1 NI0      0.041700
     36 H6         -6.8080   -0.2100   -4.0580 h1        1 NI0      0.034367
     37 H7         -5.8920   -1.7620   -4.3340 h1        1 NI0      0.034367
     38 H8         -7.0240   -1.6110   -2.9120 h1        1 NI0      0.034367
     39 H9         -4.9650   -2.2650   -1.5500 h1        1 NI0      0.041700
     40 H10        -3.9180   -2.2000   -3.0420 h1        1 NI0      0.041700
     41 H11        -2.7110   -1.8920   -0.8130 h1        1 NI0      0.059200
     42 H12        -2.3980   -0.6100   -2.0860 h1        1 NI0      0.059200
     43 H13        -0.5220   -1.0550    0.5840 ha        1 NI0      0.170000
     44 H14        -2.4060    2.6690    1.6920 ha        1 NI0      0.162000
     45 H15        -0.2050    3.8020    1.7140 ha        1 NI0      0.151000
     46 H16         1.6440    4.5170    0.6290 h1        1 NI0      0.048200
     47 H17         4.3160    3.6910    1.9990 hc        1 NI0      0.062700
     48 H18         5.0400    6.0130    1.4190 hc        1 NI0      0.040700
     49 H19         3.3890    6.3930    0.7770 hc        1 NI0      0.040700
     50 H20         3.6200    6.0570    2.5430 hc        1 NI0      0.040700
     51 H21         3.1420    0.5920    2.0440 hn        1 NI0      0.343500
     52 H22         5.9630   -2.7370    0.5730 hc        1 NI0      0.058200
     53 H23         5.1130   -3.5580   -0.7990 hc        1 NI0      0.058200
     54 H24         6.7190   -0.9090   -0.9520 hc        1 NI0      0.036367
     55 H25         7.2550   -2.5370   -1.5430 hc        1 NI0      0.036367
     56 H26         5.8660   -1.6910   -2.3460 hc        1 NI0      0.036367
     57 H27         2.2890   -2.1760   -2.8560 hc        1 NI0      0.061700
     58 H28         3.9420   -2.8240   -2.5240 hc        1 NI0      0.061700
     59 H29         2.9520   -4.5250   -0.9410 hc        1 NI0      0.041033
     60 H30         1.2980   -3.8610   -1.2670 hc        1 NI0      0.041033
     61 H31         2.2380   -4.6480   -2.6030 hc        1 NI0      0.041033
     62 H5          1.8730    4.1940    2.4240 h1        1 NI0      0.048200
     63 H32         4.0860    4.0250    0.2390 hc        1 NI0      0.062700
@<TRIPOS>BOND
     1    1    2 1   
     2    1    7 1   
     3    1   32 1   
     4    1   33 1   
     5    2    3 1   
     6    2   34 1   
     7    2   35 1   
     8    3    4 1   
     9    3    5 1   
    10    4   36 1   
    11    4   37 1   
    12    4   38 1   
    13    5    6 1   
    14    5   39 1   
    15    5   40 1   
    16    6    7 1   
    17    6   41 1   
    18    6   42 1   
    19    7    8 1   
    20    8    9 2   
    21    8   10 2   
    22    8   11 1   
    23   11   12 ar  
    24   11   13 ar  
    25   12   20 ar  
    26   12   43 1   
    27   13   14 ar  
    28   13   44 1   
    29   14   15 ar  
    30   14   45 1   
    31   15   16 1   
    32   15   20 ar  
    33   16   17 1   
    34   17   18 1   
    35   17   46 1   
    36   17   62 1   
    37   18   19 1   
    38   18   47 1   
    39   18   63 1   
    40   19   48 1   
    41   19   49 1   
    42   19   50 1   
    43   20   21 1   
    44   21   22 2   
    45   21   23 1   
    46   22   29 1   
    47   23   24 1   
    48   23   51 1   
    49   24   25 2   
    50   24   26 1   
    51   26   27 1   
    52   26   29 2   
    53   27   28 1   
    54   27   52 1   
    55   27   53 1   
    56   28   54 1   
    57   28   55 1   
    58   28   56 1   
    59   29   30 1   
    60   30   31 1   
    61   30   57 1   
    62   30   58 1   
    63   31   59 1   
    64   31   60 1   
    65   31   61 1   
@<TRIPOS>SUBSTRUCTURE
     1 NI0         1 TEMP              0 ****  ****    0 ROOT
