@<TRIPOS>MOLECULE
NI0
   63    65     1     0     0
SMALL
bcc


@<TRIPOS>ATOM
      1 CAQ        -0.3120    0.2900    0.2380 c3        1 NI0      0.222300
      2 CAO         1.1270    0.7470    0.5610 c3        1 NI0      0.156800
      3 NBC         1.3320    1.0160    1.9780 n3        1 NI0     -0.730600
      4 CAD         2.6890    1.4140    2.2730 c3        1 NI0      0.156100
      5 CAP         0.8770   -0.0770    2.8250 c3        1 NI0      0.156800
      6 CAR        -0.5600   -0.5340    2.4970 c3        1 NI0      0.222300
      7 NBD        -0.7780   -0.7730    1.0920 n3        1 NI0     -0.818500
      8 SBE        -1.4760   -2.1240    0.5270 sy        1 NI0      1.515200
      9 OAF        -1.1240   -2.3150   -0.8300 o         1 NI0     -0.653300
     10 OAG        -1.2280   -3.1980    1.4090 o         1 NI0     -0.653300
     11 CAV        -3.1290   -1.7720    0.5860 ca        1 NI0     -0.419500
     12 CAJ        -3.8550   -1.9470    1.7700 ca        1 NI0      0.064000
     13 CAH        -3.8080   -1.3330   -0.5570 ca        1 NI0      0.037000
     14 CAI        -5.1690   -1.0630   -0.5280 ca        1 NI0     -0.241000
     15 CAX        -5.8880   -1.2350    0.6670 ca        1 NI0      0.215100
     16 OAU        -7.2320   -0.9930    0.7850 os        1 NI0     -0.334900
     17 CAN        -7.8990   -0.4530   -0.3700 c3        1 NI0      0.129400
     18 CAK        -9.3370   -0.2240    0.0630 c3        1 NI0     -0.089400
     19 CAA       -10.1440    0.3310   -1.0810 c3        1 NI0     -0.095100
     20 CAY        -5.2250   -1.6870    1.8330 ca        1 NI0     -0.208900
     21 CAZ        -5.9280   -1.8690    3.1310 cc        1 NI0      0.558500
     22 NAS        -5.3550   -1.4000    4.2390 nd        1 NI0     -0.642300
     23 NAT        -7.1380   -2.5540    3.1220 ns        1 NI0     -0.461400
     24 CBB        -7.8530   -2.7590    4.3200 c         1 NI0      0.691700
     25 OAE        -8.9450   -3.3530    4.2540 o         1 NI0     -0.635500
     26 CBA        -7.2190   -2.2510    5.5460 cc        1 NI0     -0.232400
     27 CAM        -7.9480   -2.4990    6.8150 c3        1 NI0     -0.026200
     28 CAC        -8.8690   -1.3590    7.1810 c3        1 NI0     -0.089100
     29 CAW        -6.0110   -1.5930    5.4510 cd        1 NI0      0.182400
     30 CAL        -5.3200   -1.0420    6.6690 c3        1 NI0     -0.036200
     31 CAB        -4.3410   -2.0400    7.2390 c3        1 NI0     -0.090100
     32 H1         -1.0010    1.1770    0.3410 h1        1 NI0      0.059200
     33 H2         -0.3290   -0.0590   -0.8340 h1        1 NI0      0.059200
     34 H3          1.8500   -0.0280    0.1730 h1        1 NI0      0.041700
     35 H4          1.3140    1.7050    0.0010 h1        1 NI0      0.041700
     36 H6          3.4470    0.6090    2.0630 h1        1 NI0      0.034367
     37 H7          2.7560    1.6920    3.3570 h1        1 NI0      0.034367
     38 H8          2.9440    2.3130    1.6530 h1        1 NI0      0.034367
     39 H9          0.8830    0.2890    3.8890 h1        1 NI0      0.041700
     40 H10         1.5650   -0.9710    2.7610 h1        1 NI0      0.041700
     41 H11        -0.7600   -1.4850    3.0700 h1        1 NI0      0.059200
     42 H12        -1.2800    0.2590    2.8540 h1        1 NI0      0.059200
     43 H13        -3.3280   -2.3120    2.6720 ha        1 NI0      0.170000
     44 H14        -3.2480   -1.2140   -1.5030 ha        1 NI0      0.162000
     45 H15        -5.6730   -0.7200   -1.4420 ha        1 NI0      0.151000
     46 H16        -7.8400   -1.1940   -1.2090 h1        1 NI0      0.048200
     47 H17        -9.3540    0.4850    0.9320 hc        1 NI0      0.062700
     48 H18       -11.1990    0.4970   -0.7560 hc        1 NI0      0.040700
     49 H19       -10.1490   -0.3780   -1.9450 hc        1 NI0      0.040700
     50 H20        -9.7240    1.3060   -1.4290 hc        1 NI0      0.040700
     51 H21        -7.5510   -2.8220    2.2540 hn        1 NI0      0.343500
     52 H22        -8.5580   -3.4390    6.7050 hc        1 NI0      0.058200
     53 H23        -7.2110   -2.6750    7.6440 hc        1 NI0      0.058200
     54 H24        -9.6380   -1.2100    6.3850 hc        1 NI0      0.036367
     55 H25        -8.2990   -0.4070    7.3050 hc        1 NI0      0.036367
     56 H26        -9.3920   -1.5870    8.1410 hc        1 NI0      0.036367
     57 H27        -4.7780   -0.0920    6.4090 hc        1 NI0      0.061700
     58 H28        -6.0950   -0.7790    7.4390 hc        1 NI0      0.061700
     59 H29        -3.8460   -1.6110    8.1430 hc        1 NI0      0.041033
     60 H30        -3.5540   -2.2920    6.4890 hc        1 NI0      0.041033
     61 H31        -4.8630   -2.9830    7.5340 hc        1 NI0      0.041033
     62 H5         -7.4060    0.5080   -0.6700 h1        1 NI0      0.048200
     63 H32        -9.7770   -1.1930    0.4170 hc        1 NI0      0.062700
@<TRIPOS>BOND
     1    1    2 1   
     2    1    7 1   
     3    1   32 1   
     4    1   33 1   
     5    2    3 1   
     6    2   34 1   
     7    2   35 1   
     8    3    4 1   
     9    3    5 1   
    10    4   36 1   
    11    4   37 1   
    12    4   38 1   
    13    5    6 1   
    14    5   39 1   
    15    5   40 1   
    16    6    7 1   
    17    6   41 1   
    18    6   42 1   
    19    7    8 1   
    20    8    9 2   
    21    8   10 2   
    22    8   11 1   
    23   11   12 ar  
    24   11   13 ar  
    25   12   20 ar  
    26   12   43 1   
    27   13   14 ar  
    28   13   44 1   
    29   14   15 ar  
    30   14   45 1   
    31   15   16 1   
    32   15   20 ar  
    33   16   17 1   
    34   17   18 1   
    35   17   46 1   
    36   17   62 1   
    37   18   19 1   
    38   18   47 1   
    39   18   63 1   
    40   19   48 1   
    41   19   49 1   
    42   19   50 1   
    43   20   21 1   
    44   21   22 2   
    45   21   23 1   
    46   22   29 1   
    47   23   24 1   
    48   23   51 1   
    49   24   25 2   
    50   24   26 1   
    51   26   27 1   
    52   26   29 2   
    53   27   28 1   
    54   27   52 1   
    55   27   53 1   
    56   28   54 1   
    57   28   55 1   
    58   28   56 1   
    59   29   30 1   
    60   30   31 1   
    61   30   57 1   
    62   30   58 1   
    63   31   59 1   
    64   31   60 1   
    65   31   61 1   
@<TRIPOS>SUBSTRUCTURE
     1 NI0         1 TEMP              0 ****  ****    0 ROOT
