@<TRIPOS>MOLECULE
NI0
   63    55     1     0     0
SMALL
bcc


@<TRIPOS>ATOM
      1 CAQ         1.6210   -3.8530    2.3490 c3        1 NI0     -0.038000
      2 CAO         2.8580   -4.3670    3.0510 c3        1 NI0     -0.076500
      3 NBC         3.2440   -3.5300    4.2800 n3        1 NI0     -0.253000
      4 CAD         4.4760   -4.0060    4.8110 c3        1 NI0     -0.124000
      5 CAP         3.4900   -2.2260    3.5060 c3        1 NI0     -0.076500
      6 CAR         2.2530   -1.7110    2.8040 c3        1 NI0     -0.038000
      7 NBD         1.3790   -2.6340    2.6550 n3        1 NI0     -0.836000
      8 SBE        -0.1920   -2.2180    2.8790 s4        1 NI0      2.069800
      9 OAF        -0.3290   -1.2370    3.9200 o         1 NI0     -0.538400
     10 OAG        -0.9480   -3.3110    3.4250 o         1 NI0     -0.538400
     11 CAV        -0.8980   -1.6440    1.3590 c1        1 NI0     -0.495000
     12 CAJ        -0.7760   -0.3110    1.0000 c1        1 NI0      0.048000
     13 CAH        -1.4990   -2.5430    0.4930 c1        1 NI0      0.048000
     14 CAI        -1.9790   -2.1090   -0.7330 c1        1 NI0     -0.240000
     15 CAX        -1.8570   -0.7760   -1.0920 c1        1 NI0      0.170000
     16 OAU        -2.2700   -0.3530   -2.3680 os        1 NI0     -0.216000
     17 CAN        -3.5090   -0.8850   -2.7720 c3        1 NI0     -0.022000
     18 CAK        -3.3390   -1.6190   -4.0840 c3        1 NI0     -0.196000
     19 CAA        -4.6780   -2.1610   -4.5360 c3        1 NI0     -0.212000
     20 CAY        -1.2560    0.1230   -0.2250 c1        1 NI0     -0.495000
     21 CAZ        -1.0560    1.5600   -0.6480 c1        1 NI0      0.179000
     22 NAS         0.1170    1.9320   -1.4340 n1        1 NI0     -0.216000
     23 NAT        -1.9940    2.5880   -0.2030 n2        1 NI0     -0.300000
     24 CBB        -1.6760    3.9590   -0.3740 c1        1 NI0      0.330000
     25 OAE        -2.4500    4.8140    0.0080 o         1 NI0     -0.359000
     26 CBA        -0.4480    4.3430   -1.0840 c1        1 NI0     -0.081000
     27 CAM        -0.0370    5.7980   -1.1540 c2        1 NI0     -0.114000
     28 CAC         0.1450    6.3380    0.2480 c3        1 NI0     -0.207500
     29 CAW         0.4470    3.3000   -1.6120 c1        1 NI0     -0.081000
     30 CAL         1.6600    3.6870   -2.4300 c2        1 NI0     -0.114000
     31 CAB         1.2370    3.9720   -3.8540 c3        1 NI0     -0.207500
     32 H1          0.8540   -4.4060    2.6060 h1        1 NI0      0.094750
     33 H2          1.7520   -3.9190    1.3800 h1        1 NI0      0.094750
     34 H3          2.6970   -5.2890    3.3360 h1        1 NI0      0.094000
     35 H4          3.6040   -4.3600    2.4180 h1        1 NI0      0.094000
     36 H6          5.1910   -3.8650    4.1540 h1        1 NI0      0.074000
     37 H7          4.6870   -3.5180    5.6350 h1        1 NI0      0.074000
     38 H8          4.3980   -4.9650    5.0090 h1        1 NI0      0.074000
     39 H9          3.8030   -1.5430    4.1330 h1        1 NI0      0.094000
     40 H10         4.1880   -2.3830    2.8390 h1        1 NI0      0.094000
     41 H11         1.8640   -0.9840    3.3340 h1        1 NI0      0.094750
     42 H12         2.5060   -1.3650    1.9230 h1        1 NI0      0.094750
     43 H13        -0.3530    0.3220    1.6100 ha        1 NI0      0.166500
     44 H14        -1.5850   -3.4820    0.7460 ha        1 NI0      0.166500
     45 H15        -2.4020   -2.7420   -1.3430 ha        1 NI0      0.152000
     46 H16        -3.8360   -1.5070   -2.0900 h1        1 NI0      0.106000
     47 H17        -2.9920   -1.0030   -4.7600 hc        1 NI0      0.097000
     48 H18        -5.0250   -2.7800   -3.8600 hc        1 NI0      0.080000
     49 H19        -4.5680   -2.6350   -5.3870 hc        1 NI0      0.080000
     50 H20        -5.3080   -1.4190   -4.6540 hc        1 NI0      0.080000
     51 H21        -2.7790    2.3470    0.1960 hn        1 NI0      0.258000
     52 H22        -0.7320    6.3110   -1.6130 ha        1 NI0      0.098750
     53 H23         0.8040    5.8760   -1.6450 ha        1 NI0      0.098750
     54 H24        -0.6900    6.7550    0.5480 hc        1 NI0      0.078167
     55 H25         0.8620    7.0060    0.2500 hc        1 NI0      0.078167
     56 H26         0.3800    5.6040    0.8530 hc        1 NI0      0.078167
     57 H27         2.0710    4.4860   -2.0460 ha        1 NI0      0.098750
     58 H28         2.3050    2.9520   -2.4230 ha        1 NI0      0.098750
     59 H29         1.4240    4.9100   -4.0680 hc        1 NI0      0.078167
     60 H30         0.2770    3.8000   -3.9510 hc        1 NI0      0.078167
     61 H31         1.7360    3.3910   -4.4660 hc        1 NI0      0.078167
     62 H5         -4.1550   -0.1570   -2.8860 h1        1 NI0      0.106000
     63 H32        -2.7110   -2.3590   -3.9640 hc        1 NI0      0.097000
@<TRIPOS>BOND
     1    1    2 1   
     2    1    7 1   
     3    1   32 1   
     4    1   33 1   
     5    2    3 1   
     6    2   34 1   
     7    2   35 1   
     8    3    4 1   
     9    3    5 1   
    10    4   36 1   
    11    4   37 1   
    12    4   38 1   
    13    5    6 1   
    14    5   39 1   
    15    5   40 1   
    16    6    7 1   
    17    6   41 1   
    18    6   42 1   
    19    7    8 1   
    20    8    9 1   
    21    8   10 1   
    22   11   13 1   
    23   12   20 1   
    24   12   43 1   
    25   13   44 1   
    26   14   15 1   
    27   14   45 1   
    28   15   16 1   
    29   16   17 1   
    30   17   18 1   
    31   17   46 1   
    32   17   62 1   
    33   18   19 1   
    34   18   47 1   
    35   18   63 1   
    36   19   48 1   
    37   19   49 1   
    38   19   50 1   
    39   21   22 1   
    40   23   24 1   
    41   23   51 1   
    42   24   25 1   
    43   26   29 1   
    44   27   28 1   
    45   27   52 1   
    46   27   53 1   
    47   28   54 1   
    48   28   55 1   
    49   28   56 1   
    50   30   31 1   
    51   30   57 1   
    52   30   58 1   
    53   31   59 1   
    54   31   60 1   
    55   31   61 1   
@<TRIPOS>SUBSTRUCTURE
     1 NI0         1 TEMP              0 ****  ****    0 ROOT
