@<TRIPOS>MOLECULE
NI0
   63    65     1     0     0
SMALL
bcc


@<TRIPOS>ATOM
      1 CAQ        -0.3010    0.3160    0.2720 c3        1 NI0      0.222300
      2 CAO         1.1390    0.7630    0.6070 c3        1 NI0      0.156800
      3 NBC         1.3400    1.0060    2.0280 n3        1 NI0     -0.730600
      4 CAD         2.6980    1.3940    2.3330 c3        1 NI0      0.156100
      5 CAP         0.8790   -0.1000    2.8550 c3        1 NI0      0.156800
      6 CAR        -0.5590   -0.5460    2.5140 c3        1 NI0      0.222300
      7 NBD        -0.7730   -0.7590    1.1050 n3        1 NI0     -0.818500
      8 SBE        -1.4740   -2.0980    0.5140 sy        1 NI0      1.515200
      9 OAF        -1.1190   -2.2670   -0.8440 o         1 NI0     -0.653300
     10 OAG        -1.2320   -3.1880    1.3790 o         1 NI0     -0.653300
     11 CAV        -3.1260   -1.7420    0.5750 ca        1 NI0     -0.419500
     12 CAJ        -3.8560   -1.9340    1.7530 ca        1 NI0      0.064000
     13 CAH        -3.8000   -1.2800   -0.5620 ca        1 NI0      0.037000
     14 CAI        -5.1600   -1.0060   -0.5320 ca        1 NI0     -0.241000
     15 CAX        -5.8830   -1.1960    0.6580 ca        1 NI0      0.215100
     16 OAU        -7.2270   -0.9520    0.7750 os        1 NI0     -0.334900
     17 CAN        -7.8890   -0.3900   -0.3720 c3        1 NI0      0.129400
     18 CAK        -9.3270   -0.1630    0.0610 c3        1 NI0     -0.089400
     19 CAA       -10.1290    0.4140   -1.0760 c3        1 NI0     -0.095100
     20 CAY        -5.2250   -1.6710    1.8170 ca        1 NI0     -0.208900
     21 CAZ        -5.9330   -1.8730    3.1100 cc        1 NI0      0.558500
     22 NAS        -5.3620   -1.4250    4.2270 nd        1 NI0     -0.642300
     23 NAT        -7.1450   -2.5540    3.0850 n         1 NI0     -0.461400
     24 CBB        -7.8640   -2.7770    4.2780 c         1 NI0      0.691700
     25 OAE        -8.9590   -3.3660    4.1970 o         1 NI0     -0.635500
     26 CBA        -7.2320   -2.2930    5.5140 cc        1 NI0     -0.232400
     27 CAM        -7.9660   -2.5600    6.7760 c3        1 NI0     -0.026200
     28 CAC        -8.8840   -1.4230    7.1600 c3        1 NI0     -0.089100
     29 CAW        -6.0220   -1.6370    5.4340 cd        1 NI0      0.182400
     30 CAL        -5.3330   -1.1100    6.6640 c3        1 NI0     -0.036200
     31 CAB        -4.3590   -2.1210    7.2180 c3        1 NI0     -0.090100
     32 H1         -0.3170   -0.0140   -0.8070 h1        1 NI0      0.059200
     33 H2         -0.9880    1.2040    0.3880 h1        1 NI0      0.059200
     34 H3          1.8600   -0.0080    0.2070 h1        1 NI0      0.041700
     35 H4          1.3300    1.7300    0.0630 h1        1 NI0      0.041700
     36 H6          2.7620    1.6530    3.4230 h1        1 NI0      0.034367
     37 H7          2.9580    2.3030    1.7300 h1        1 NI0      0.034367
     38 H8          3.4530    0.5900    2.1110 h1        1 NI0      0.034367
     39 H9          0.8830    0.2480    3.9250 h1        1 NI0      0.041700
     40 H10         1.5650   -0.9940    2.7770 h1        1 NI0      0.041700
     41 H11        -0.7630   -1.5060    3.0700 h1        1 NI0      0.059200
     42 H12        -1.2760    0.2430    2.8840 h1        1 NI0      0.059200
     43 H13        -3.3330   -2.3170    2.6510 ha        1 NI0      0.170000
     44 H14        -3.2370   -1.1470   -1.5050 ha        1 NI0      0.162000
     45 H15        -5.6600   -0.6450   -1.4420 ha        1 NI0      0.151000
     46 H16        -7.8300   -1.1160   -1.2240 h1        1 NI0      0.048200
     47 H17        -9.7720   -1.1360    0.3970 hc        1 NI0      0.062700
     48 H18       -11.1840    0.5790   -0.7500 hc        1 NI0      0.040700
     49 H19       -10.1340   -0.2800   -1.9510 hc        1 NI0      0.040700
     50 H20        -9.7040    1.3940   -1.4050 hc        1 NI0      0.040700
     51 H21        -7.5560   -2.8050    2.2120 hn        1 NI0      0.343500
     52 H22        -8.5790   -3.4960    6.6480 hc        1 NI0      0.058200
     53 H23        -7.2320   -2.7540    7.6050 hc        1 NI0      0.058200
     54 H24        -9.4100   -1.6660    8.1140 hc        1 NI0      0.036367
     55 H25        -9.6500   -1.2570    6.3640 hc        1 NI0      0.036367
     56 H26        -8.3110   -0.4750    7.3020 hc        1 NI0      0.036367
     57 H27        -6.1090   -0.8580    7.4350 hc        1 NI0      0.061700
     58 H28        -4.7870   -0.1580    6.4220 hc        1 NI0      0.061700
     59 H29        -3.8650   -1.7090    8.1310 hc        1 NI0      0.041033
     60 H30        -3.5700   -2.3630    6.4660 hc        1 NI0      0.041033
     61 H31        -4.8840   -3.0670    7.4950 hc        1 NI0      0.041033
     62 H5         -7.3910    0.5750   -0.6530 h1        1 NI0      0.048200
     63 H32        -9.3440    0.5310    0.9420 hc        1 NI0      0.062700
@<TRIPOS>BOND
     1    1    2 1   
     2    1    7 1   
     3    1   32 1   
     4    1   33 1   
     5    2    3 1   
     6    2   34 1   
     7    2   35 1   
     8    3    4 1   
     9    3    5 1   
    10    4   36 1   
    11    4   37 1   
    12    4   38 1   
    13    5    6 1   
    14    5   39 1   
    15    5   40 1   
    16    6    7 1   
    17    6   41 1   
    18    6   42 1   
    19    7    8 1   
    20    8    9 2   
    21    8   10 2   
    22    8   11 1   
    23   11   12 ar  
    24   11   13 ar  
    25   12   20 ar  
    26   12   43 1   
    27   13   14 ar  
    28   13   44 1   
    29   14   15 ar  
    30   14   45 1   
    31   15   16 1   
    32   15   20 ar  
    33   16   17 1   
    34   17   18 1   
    35   17   46 1   
    36   17   62 1   
    37   18   19 1   
    38   18   47 1   
    39   18   63 1   
    40   19   48 1   
    41   19   49 1   
    42   19   50 1   
    43   20   21 1   
    44   21   22 2   
    45   21   23 1   
    46   22   29 1   
    47   23   24 1   
    48   23   51 1   
    49   24   25 2   
    50   24   26 1   
    51   26   27 1   
    52   26   29 2   
    53   27   28 1   
    54   27   52 1   
    55   27   53 1   
    56   28   54 1   
    57   28   55 1   
    58   28   56 1   
    59   29   30 1   
    60   30   31 1   
    61   30   57 1   
    62   30   58 1   
    63   31   59 1   
    64   31   60 1   
    65   31   61 1   
@<TRIPOS>SUBSTRUCTURE
     1 NI0         1 TEMP              0 ****  ****    0 ROOT
