@<TRIPOS>MOLECULE
NI0
   63    65     1     0     0
SMALL
bcc


@<TRIPOS>ATOM
      1 CAQ        -0.2990    0.3170    0.2810 c3        1 NI0      0.222800
      2 CAO         1.1330    0.7890    0.6160 c3        1 NI0      0.156800
      3 NBC         1.3210    1.0630    2.0340 n3        1 NI0     -0.730600
      4 CAD         2.6720    1.4740    2.3400 c3        1 NI0      0.156100
      5 CAP         0.8690   -0.0330    2.8800 c3        1 NI0      0.156800
      6 CAR        -0.5610   -0.5030    2.5390 c3        1 NI0      0.222800
      7 NBD        -0.7630   -0.7480    1.1330 n3        1 NI0     -0.818500
      8 SBE        -1.4430   -2.1070    0.5650 sy        1 NI0      1.515200
      9 OAF        -1.0740   -2.3000   -0.7870 o         1 NI0     -0.653300
     10 OAG        -1.1950   -3.1760    1.4540 o         1 NI0     -0.653300
     11 CAV        -3.0990   -1.7700    0.6040 ca        1 NI0     -0.419500
     12 CAJ        -3.8370   -1.9460    1.7800 ca        1 NI0      0.064000
     13 CAH        -3.7690   -1.3420   -0.5480 ca        1 NI0      0.037000
     14 CAI        -5.1330   -1.0840   -0.5360 ca        1 NI0     -0.241000
     15 CAX        -5.8630   -1.2570    0.6520 ca        1 NI0      0.215100
     16 OAU        -7.2110   -1.0270    0.7530 os        1 NI0     -0.334900
     17 CAN        -7.8700   -0.4990   -0.4110 c3        1 NI0      0.129400
     18 CAK        -9.3150   -0.2810    0.0040 c3        1 NI0     -0.089400
     19 CAA       -10.1130    0.2610   -1.1520 c3        1 NI0     -0.095100
     20 CAY        -5.2090   -1.6980    1.8270 ca        1 NI0     -0.208900
     21 CAZ        -5.9260   -1.8800    3.1180 cc        1 NI0      0.558500
     22 NAS        -5.3690   -1.4000    4.2300 nd        1 NI0     -0.642300
     23 NAT        -7.1290   -2.5770    3.0990 n         1 NI0     -0.461400
     24 CBB        -7.8550   -2.7820    4.2900 c         1 NI0      0.691700
     25 OAE        -8.9420   -3.3870    4.2140 o         1 NI0     -0.635500
     26 CBA        -7.2400   -2.2620    5.5200 cc        1 NI0     -0.232400
     27 CAM        -7.9810   -2.5100    6.7820 c3        1 NI0     -0.026200
     28 CAC        -8.9160   -1.3760    7.1320 c3        1 NI0     -0.089100
     29 CAW        -6.0370   -1.5930    5.4360 cd        1 NI0      0.182400
     30 CAL        -5.3650   -1.0300    6.6590 c3        1 NI0     -0.036200
     31 CAB        -4.3840   -2.0170    7.2440 c3        1 NI0     -0.090100
     32 H1         -0.9980    1.1980    0.3750 h1        1 NI0      0.059200
     33 H2         -0.3030   -0.0350   -0.7910 h1        1 NI0      0.059200
     34 H3          1.8670    0.0190    0.2370 h1        1 NI0      0.041700
     35 H4          1.3150    1.7470    0.0550 h1        1 NI0      0.041700
     36 H6          2.9240    2.3740    1.7200 h1        1 NI0      0.034367
     37 H7          3.4390    0.6760    2.1390 h1        1 NI0      0.034367
     38 H8          2.7260    1.7550    3.4250 h1        1 NI0      0.034367
     39 H9          0.8620    0.3370    3.9430 h1        1 NI0      0.041700
     40 H10         1.5660   -0.9190    2.8250 h1        1 NI0      0.041700
     41 H11        -0.7560   -1.4550    3.1130 h1        1 NI0      0.059200
     42 H12        -1.2910    0.2830    2.8870 h1        1 NI0      0.059200
     43 H13        -3.3170   -2.3020    2.6900 ha        1 NI0      0.170000
     44 H14        -3.2000   -1.2220   -1.4890 ha        1 NI0      0.162000
     45 H15        -5.6290   -0.7500   -1.4580 ha        1 NI0      0.151000
     46 H16        -7.3820    0.4660   -0.7100 h1        1 NI0      0.048200
     47 H17        -9.3480    0.4310    0.8700 hc        1 NI0      0.062700
     48 H18       -10.1020   -0.4510   -2.0120 hc        1 NI0      0.040700
     49 H19        -9.6990    1.2390   -1.4980 hc        1 NI0      0.040700
     50 H20       -11.1740    0.4190   -0.8390 hc        1 NI0      0.040700
     51 H21        -7.5300   -2.8520    2.2280 hn        1 NI0      0.343500
     52 H22        -7.2520   -2.6760    7.6210 hc        1 NI0      0.058200
     53 H23        -8.5820   -3.4560    6.6700 hc        1 NI0      0.058200
     54 H24        -8.3560   -0.4190    7.2580 hc        1 NI0      0.036367
     55 H25        -9.6780   -1.2380    6.3270 hc        1 NI0      0.036367
     56 H26        -9.4480   -1.6040    8.0870 hc        1 NI0      0.036367
     57 H27        -6.1510   -0.7700    7.4180 hc        1 NI0      0.061700
     58 H28        -4.8290   -0.0770    6.4000 hc        1 NI0      0.061700
     59 H29        -3.9040   -1.5780    8.1520 hc        1 NI0      0.041033
     60 H30        -4.9010   -2.9620    7.5380 hc        1 NI0      0.041033
     61 H31        -3.5860   -2.2650    6.5050 hc        1 NI0      0.041033
     62 H5         -7.7940   -1.2430   -1.2470 h1        1 NI0      0.048200
     63 H32        -9.7500   -1.2530    0.3570 hc        1 NI0      0.062700
@<TRIPOS>BOND
     1    1    2 1   
     2    1    7 1   
     3    1   32 1   
     4    1   33 1   
     5    2    3 1   
     6    2   34 1   
     7    2   35 1   
     8    3    4 1   
     9    3    5 1   
    10    4   36 1   
    11    4   37 1   
    12    4   38 1   
    13    5    6 1   
    14    5   39 1   
    15    5   40 1   
    16    6    7 1   
    17    6   41 1   
    18    6   42 1   
    19    7    8 1   
    20    8    9 2   
    21    8   10 2   
    22    8   11 1   
    23   11   12 ar  
    24   11   13 ar  
    25   12   20 ar  
    26   12   43 1   
    27   13   14 ar  
    28   13   44 1   
    29   14   15 ar  
    30   14   45 1   
    31   15   16 1   
    32   15   20 ar  
    33   16   17 1   
    34   17   18 1   
    35   17   46 1   
    36   17   62 1   
    37   18   19 1   
    38   18   47 1   
    39   18   63 1   
    40   19   48 1   
    41   19   49 1   
    42   19   50 1   
    43   20   21 1   
    44   21   22 2   
    45   21   23 1   
    46   22   29 1   
    47   23   24 1   
    48   23   51 1   
    49   24   25 2   
    50   24   26 1   
    51   26   27 1   
    52   26   29 2   
    53   27   28 1   
    54   27   52 1   
    55   27   53 1   
    56   28   54 1   
    57   28   55 1   
    58   28   56 1   
    59   29   30 1   
    60   30   31 1   
    61   30   57 1   
    62   30   58 1   
    63   31   59 1   
    64   31   60 1   
    65   31   61 1   
@<TRIPOS>SUBSTRUCTURE
     1 NI0         1 TEMP              0 ****  ****    0 ROOT
