@<TRIPOS>MOLECULE
NI5
   58    61     1     0     0
SMALL
bcc


@<TRIPOS>ATOM
      1 CAP         0.5040   -0.2140    0.2710 c3        1 NI5      0.226300
      2 CAN         2.0110   -0.3540   -0.0330 c3        1 NI5      0.151300
      3 NBB         2.8000   -0.6730    1.1480 n3        1 NI5     -0.728600
      4 CAB         4.2030   -0.8410    0.8460 c3        1 NI5      0.156100
      5 CAO         2.2580   -1.7940    1.9040 c3        1 NI5      0.151300
      6 CAQ         0.7490   -1.6470    2.1970 c3        1 NI5      0.226300
      7 NBC        -0.0320   -1.3120    1.0330 n3        1 NI5     -0.814500
      8 SBD        -1.3540   -2.1400    0.5860 sy        1 NI5      1.511200
      9 OAD        -1.9420   -2.7440    1.7180 o         1 NI5     -0.650300
     10 OAE        -2.1820   -1.3220   -0.2150 o         1 NI5     -0.650300
     11 CAU        -0.7460   -3.3730   -0.4030 ca        1 NI5     -0.420500
     12 CAH        -0.2190   -4.5430    0.1530 ca        1 NI5      0.064000
     13 CAF        -0.7950   -3.2570   -1.7980 ca        1 NI5      0.036000
     14 CAG        -0.3260   -4.2700   -2.6220 ca        1 NI5     -0.241000
     15 CAW         0.2080   -5.4390   -2.0540 ca        1 NI5      0.214100
     16 OAT         0.6920   -6.4890   -2.7910 os        1 NI5     -0.334900
     17 CAK         0.7030   -6.3290   -4.2210 c3        1 NI5      0.129400
     18 CAI         1.3290   -7.6010   -4.7660 c3        1 NI5     -0.089400
     19 CAA         1.3800   -7.5540   -6.2710 c3        1 NI5     -0.095100
     20 CAX         0.2610   -5.5810   -0.6470 ca        1 NI5     -0.211900
     21 CAY         0.8370   -6.7840    0.0120 cc        1 NI5      0.559500
     22 NAR         1.6890   -6.6000    1.0320 nd        1 NI5     -0.627300
     23 CAV         2.1750   -7.7470    1.6220 cd        1 NI5      0.168400
     24 CAL         3.1390   -7.7830    2.7760 c3        1 NI5     -0.034200
     25 CAJ         3.3620   -9.2800    3.0470 c3        1 NI5     -0.084400
     26 CAM         2.5140  -10.0720    2.0380 c3        1 NI5     -0.013200
     27 CAZ         1.8360   -9.0300    1.2230 cc        1 NI5     -0.259400
     28 CBA         0.9230   -9.2330    0.1150 c         1 NI5      0.709700
     29 OAC         0.5420  -10.3140   -0.3690 o         1 NI5     -0.631500
     30 NAS         0.4270   -8.0300   -0.4520 ns        1 NI5     -0.458400
     31 H1         -0.0500   -0.1330   -0.7070 h1        1 NI5      0.061200
     32 H2          0.3410    0.7430    0.8470 h1        1 NI5      0.061200
     33 H3          2.1500   -1.1230   -0.8490 h1        1 NI5      0.040200
     34 H4          2.3740    0.6360   -0.4280 h1        1 NI5      0.040200
     35 H6          4.4130   -1.7150    0.1690 h1        1 NI5      0.034033
     36 H7          4.5790    0.0920    0.3500 h1        1 NI5      0.034033
     37 H8          4.7630   -0.9910    1.8060 h1        1 NI5      0.034033
     38 H9          2.4340   -2.7780    1.3780 h1        1 NI5      0.040200
     39 H10         2.7950   -1.8300    2.8920 h1        1 NI5      0.040200
     40 H11         0.3760   -2.6190    2.6290 h1        1 NI5      0.061200
     41 H12         0.6090   -0.8400    2.9730 h1        1 NI5      0.061200
     42 H13        -0.1960   -4.6500    1.2540 ha        1 NI5      0.170000
     43 H14        -1.2300   -2.3440   -2.2470 ha        1 NI5      0.163000
     44 H15        -0.3800   -4.1500   -3.7140 ha        1 NI5      0.151000
     45 H16        -0.3500   -6.2050   -4.5860 h1        1 NI5      0.048200
     46 H17         1.3120   -5.4270   -4.4900 h1        1 NI5      0.048200
     47 H18         2.3620   -7.7150   -4.3450 hc        1 NI5      0.063200
     48 H19         0.7320   -8.4860   -4.4240 hc        1 NI5      0.063200
     49 H20         0.3530   -7.4600   -6.7000 hc        1 NI5      0.041033
     50 H21         1.9900   -6.6860   -6.6210 hc        1 NI5      0.041033
     51 H22         1.8420   -8.4920   -6.6640 hc        1 NI5      0.041033
     52 H23         4.0950   -7.2690    2.5080 hc        1 NI5      0.068200
     53 H24         2.7050   -7.2660    3.6680 hc        1 NI5      0.068200
     54 H25         3.0580   -9.5330    4.0920 hc        1 NI5      0.049200
     55 H26         4.4430   -9.5370    2.9330 hc        1 NI5      0.049200
     56 H27         3.1520  -10.7310    1.3970 hc        1 NI5      0.062200
     57 H28         1.7660  -10.7240    2.5560 hc        1 NI5      0.062200
     58 H29        -0.1590   -8.0840   -1.2580 hn        1 NI5      0.343500
@<TRIPOS>BOND
     1    1    2 1   
     2    1    7 1   
     3    1   31 1   
     4    1   32 1   
     5    2    3 1   
     6    2   33 1   
     7    2   34 1   
     8    3    4 1   
     9    3    5 1   
    10    4   35 1   
    11    4   36 1   
    12    4   37 1   
    13    5    6 1   
    14    5   38 1   
    15    5   39 1   
    16    6    7 1   
    17    6   40 1   
    18    6   41 1   
    19    7    8 1   
    20    8    9 2   
    21    8   10 2   
    22    8   11 1   
    23   11   12 ar  
    24   11   13 ar  
    25   12   20 ar  
    26   12   42 1   
    27   13   14 ar  
    28   13   43 1   
    29   14   15 ar  
    30   14   44 1   
    31   15   16 1   
    32   15   20 ar  
    33   16   17 1   
    34   17   18 1   
    35   17   45 1   
    36   17   46 1   
    37   18   19 1   
    38   18   47 1   
    39   18   48 1   
    40   19   49 1   
    41   19   50 1   
    42   19   51 1   
    43   20   21 1   
    44   21   22 2   
    45   21   30 1   
    46   22   23 1   
    47   23   24 1   
    48   23   27 2   
    49   24   25 1   
    50   24   52 1   
    51   24   53 1   
    52   25   26 1   
    53   25   54 1   
    54   25   55 1   
    55   26   27 1   
    56   26   56 1   
    57   26   57 1   
    58   27   28 1   
    59   28   29 2   
    60   28   30 1   
    61   30   58 1   
@<TRIPOS>SUBSTRUCTURE
     1 NI5         1 TEMP              0 ****  ****    0 ROOT
