@<TRIPOS>MOLECULE
NI5
   58    61     1     0     0
SMALL
bcc


@<TRIPOS>ATOM
      1 CAP        -4.6000    0.1920    0.8060 c3        1 NI5      0.226300
      2 CAN        -4.0870    0.5640    2.2130 c3        1 NI5      0.151300
      3 NBB        -3.7100   -0.5990    3.0040 n3        1 NI5     -0.728600
      4 CAB        -3.1950   -0.2370    4.3050 c3        1 NI5      0.156100
      5 CAO        -2.8240   -1.5050    2.2880 c3        1 NI5      0.151300
      6 CAQ        -3.3430   -1.8660    0.8800 c3        1 NI5      0.226300
      7 NBC        -3.7350   -0.7180    0.1010 n3        1 NI5     -0.814500
      8 SBD        -3.1950   -0.4440   -1.4040 sy        1 NI5      1.511200
      9 OAD        -2.8560   -1.6680   -2.0180 o         1 NI5     -0.650300
     10 OAE        -4.1010    0.3960   -2.0910 o         1 NI5     -0.650300
     11 CAU        -1.7660    0.4330   -1.1690 ca        1 NI5     -0.420500
     12 CAH        -0.5650   -0.2210   -0.8750 ca        1 NI5      0.064000
     13 CAF        -1.7540    1.8270   -1.3040 ca        1 NI5      0.036000
     14 CAG        -0.5850    2.5570   -1.1420 ca        1 NI5     -0.241000
     15 CAW         0.6150    1.8920   -0.8390 ca        1 NI5      0.214100
     16 OAT         1.8150    2.5320   -0.6630 os        1 NI5     -0.334900
     17 CAK         1.8010    3.9690   -0.7330 c3        1 NI5      0.129400
     18 CAI         3.2300    4.4020   -0.4520 c3        1 NI5     -0.089400
     19 CAA         3.3410    5.9030   -0.5130 c3        1 NI5     -0.095100
     20 CAX         0.6290    0.4830   -0.7050 ca        1 NI5     -0.211900
     21 CAY         1.8630   -0.2740   -0.3610 cc        1 NI5      0.559500
     22 NAR         1.7830   -1.2160    0.5900 nd        1 NI5     -0.627300
     23 CAV         2.9480   -1.9030    0.8530 cd        1 NI5      0.168400
     24 CAL         3.0940   -2.9980    1.8760 c3        1 NI5     -0.034200
     25 CAJ         4.5670   -3.4230    1.7800 c3        1 NI5     -0.084400
     26 CAM         5.2360   -2.5590    0.6970 c3        1 NI5     -0.013200
     27 CAZ         4.1500   -1.6720    0.2050 cc        1 NI5     -0.259400
     28 CBA         4.2430   -0.6480   -0.8170 c         1 NI5      0.709700
     29 OAC         5.2490   -0.3110   -1.4680 o         1 NI5     -0.631500
     30 NAS         3.0190    0.0230   -1.0750 n         1 NI5     -0.458400
     31 H1         -5.6200   -0.2810    0.9080 h1        1 NI5      0.061200
     32 H2         -4.7120    1.1400    0.2060 h1        1 NI5      0.061200
     33 H3         -3.2320    1.2940    2.1090 h1        1 NI5      0.040200
     34 H4         -4.9240    1.0880    2.7540 h1        1 NI5      0.040200
     35 H6         -3.9630    0.3810    4.8380 h1        1 NI5      0.034033
     36 H7         -3.0130   -1.1740    4.8930 h1        1 NI5      0.034033
     37 H8         -2.2350    0.3480    4.2580 h1        1 NI5      0.034033
     38 H9         -1.7800   -1.0850    2.1960 h1        1 NI5      0.040200
     39 H10        -2.7600   -2.4590    2.8820 h1        1 NI5      0.040200
     40 H11        -2.5290   -2.4250    0.3350 h1        1 NI5      0.061200
     41 H12        -4.2310   -2.5530    0.9870 h1        1 NI5      0.061200
     42 H13        -0.5620   -1.3240   -0.7870 ha        1 NI5      0.170000
     43 H14        -2.6940    2.3500   -1.5590 ha        1 NI5      0.163000
     44 H15        -0.6080    3.6500   -1.2570 ha        1 NI5      0.151000
     45 H16         1.4730    4.2860   -1.7570 h1        1 NI5      0.048200
     46 H17         1.0940    4.3720    0.0390 h1        1 NI5      0.048200
     47 H18         3.5380    4.0290    0.5600 hc        1 NI5      0.063200
     48 H19         3.9160    3.9290   -1.2030 hc        1 NI5      0.063200
     49 H20         4.3940    6.2140   -0.3060 hc        1 NI5      0.041033
     50 H21         3.0550    6.2820   -1.5240 hc        1 NI5      0.041033
     51 H22         2.6760    6.3820    0.2450 hc        1 NI5      0.041033
     52 H23         2.8420   -2.6190    2.8980 hc        1 NI5      0.068200
     53 H24         2.4060   -3.8490    1.6430 hc        1 NI5      0.068200
     54 H25         5.0770   -3.2770    2.7630 hc        1 NI5      0.049200
     55 H26         4.6410   -4.5050    1.5130 hc        1 NI5      0.049200
     56 H27         6.0840   -1.9620    1.1170 hc        1 NI5      0.062200
     57 H28         5.6450   -3.1890   -0.1330 hc        1 NI5      0.062200
     58 H29         3.0140    0.7820   -1.7220 hn        1 NI5      0.343500
@<TRIPOS>BOND
     1    1    2 1   
     2    1    7 1   
     3    1   31 1   
     4    1   32 1   
     5    2    3 1   
     6    2   33 1   
     7    2   34 1   
     8    3    4 1   
     9    3    5 1   
    10    4   35 1   
    11    4   36 1   
    12    4   37 1   
    13    5    6 1   
    14    5   38 1   
    15    5   39 1   
    16    6    7 1   
    17    6   40 1   
    18    6   41 1   
    19    7    8 1   
    20    8    9 2   
    21    8   10 2   
    22    8   11 1   
    23   11   12 ar  
    24   11   13 ar  
    25   12   20 ar  
    26   12   42 1   
    27   13   14 ar  
    28   13   43 1   
    29   14   15 ar  
    30   14   44 1   
    31   15   16 1   
    32   15   20 ar  
    33   16   17 1   
    34   17   18 1   
    35   17   45 1   
    36   17   46 1   
    37   18   19 1   
    38   18   47 1   
    39   18   48 1   
    40   19   49 1   
    41   19   50 1   
    42   19   51 1   
    43   20   21 1   
    44   21   22 2   
    45   21   30 1   
    46   22   23 1   
    47   23   24 1   
    48   23   27 2   
    49   24   25 1   
    50   24   52 1   
    51   24   53 1   
    52   25   26 1   
    53   25   54 1   
    54   25   55 1   
    55   26   27 1   
    56   26   56 1   
    57   26   57 1   
    58   27   28 1   
    59   28   29 2   
    60   28   30 1   
    61   30   58 1   
@<TRIPOS>SUBSTRUCTURE
     1 NI5         1 TEMP              0 ****  ****    0 ROOT
