@<TRIPOS>MOLECULE
NI5
   58    55     1     0     0
SMALL
bcc


@<TRIPOS>ATOM
      1 CAP        -1.4920    4.0500    1.2400 c3        1 NI5     -0.010500
      2 CAN        -2.7630    4.4080    0.4930 c3        1 NI5     -0.085500
      3 NBB        -2.6540    5.6670   -0.2100 n3        1 NI5     -0.254000
      4 CAB        -3.8240    5.8750   -0.9980 c3        1 NI5     -0.120000
      5 CAO        -1.4950    5.7320   -1.0480 c3        1 NI5     -0.085500
      6 CAQ        -0.2120    5.3700   -0.2980 c3        1 NI5     -0.010500
      7 NBC        -0.3220    4.1170    0.3980 n3        1 NI5     -0.834000
      8 SBD         1.0470    3.2740    0.8090 s4        1 NI5      2.066800
      9 OAD         2.2600    4.0280    0.4680 o         1 NI5     -0.537900
     10 OAE         1.1800    3.1600    2.2460 o         1 NI5     -0.537900
     11 CAU         1.0410    1.7050    0.0490 c1        1 NI5     -0.865000
     12 CAH         1.2040    0.5460    0.8330 c2        1 NI5      0.064000
     13 CAF         0.9850    1.6040   -1.3320 c1        1 NI5      0.036000
     14 CAG         1.0920    0.3480   -1.9470 c1        1 NI5     -0.241000
     15 CAW         1.2530   -0.8010   -1.1650 c1        1 NI5      0.169000
     16 OAT         1.2430   -2.0940   -1.7840 o         1 NI5     -0.218000
     17 CAK         0.3840   -2.1880   -2.9230 c3        1 NI5     -0.021000
     18 CAI         0.3020   -3.6230   -3.3740 c3        1 NI5     -0.168000
     19 CAA        -0.8080   -3.7690   -4.3830 c3        1 NI5     -0.213000
     20 CAX         1.3090   -0.6980    0.2220 c2        1 NI5     -0.128000
     21 CAY         1.5250   -1.9420    1.0670 c2        1 NI5      0.181000
     22 NAR         0.3970   -2.5380    1.7970 n1        1 NI5     -0.199000
     23 CAV         0.5640   -3.7950    2.4790 c1        1 NI5     -0.102000
     24 CAL        -0.4770   -4.6370    2.8450 c3        1 NI5     -0.106500
     25 CAJ         0.3710   -5.8000    3.7250 c3        1 NI5     -0.163000
     26 CAM         1.9750   -5.4060    3.5210 c3        1 NI5     -0.106500
     27 CAZ         1.8740   -4.3830    2.5870 c1        1 NI5     -0.102000
     28 CBA         3.0420   -3.7300    1.9070 c1        1 NI5      0.348000
     29 OAC         4.1550   -4.1730    2.0640 o         1 NI5     -0.356000
     30 NAS         2.8550   -2.5140    1.1910 n2        1 NI5     -0.298000
     31 H1         -1.5800    3.1220    1.5980 h1        1 NI5      0.100500
     32 H2         -1.3790    4.6710    1.9900 h1        1 NI5      0.100500
     33 H3         -3.5090    4.4670    1.1410 h1        1 NI5      0.079500
     34 H4         -2.9700    3.6610   -0.1890 h1        1 NI5      0.079500
     35 H6         -3.9300    5.1430   -1.6100 h1        1 NI5      0.073333
     36 H7         -4.6090    5.9270   -0.4100 h1        1 NI5      0.073333
     37 H8         -3.7350    6.7180   -1.5040 h1        1 NI5      0.073333
     38 H9         -1.6120    5.1030   -1.8040 h1        1 NI5      0.079500
     39 H10        -1.4090    6.6480   -1.4050 h1        1 NI5      0.079500
     40 H11         0.5410    5.3070   -0.9580 h1        1 NI5      0.100500
     41 H12        -0.0070    6.0930    0.3620 h1        1 NI5      0.100500
     42 H13         1.2430    0.6200    1.8560 ha        1 NI5      0.170000
     43 H14         0.8710    2.4050   -1.8750 ha        1 NI5      0.163000
     44 H15         1.0520    0.2740   -2.9270 ha        1 NI5      0.151000
     45 H16        -0.5100   -1.8690   -2.6860 h1        1 NI5      0.087500
     46 H17         0.7490   -1.6350   -3.6550 h1        1 NI5      0.087500
     47 H18         1.1590   -3.8870   -3.7870 hc        1 NI5      0.102500
     48 H19         0.1240   -4.1830   -2.6230 hc        1 NI5      0.102500
     49 H20        -0.6240   -3.1820   -5.1670 hc        1 NI5      0.080333
     50 H21        -1.6910   -3.4980   -3.9570 hc        1 NI5      0.080333
     51 H22        -0.8590   -4.7000   -4.6790 hc        1 NI5      0.080333
     52 H23        -1.2540   -4.1430    3.2080 hc        1 NI5      0.104500
     53 H24        -0.8850   -5.0990    2.0760 hc        1 NI5      0.104500
     54 H25         0.1980   -6.6920    3.3510 hc        1 NI5      0.088500
     55 H26         0.1250   -5.7320    4.7050 hc        1 NI5      0.088500
     56 H27         2.5040   -6.2180    3.3000 hc        1 NI5      0.104500
     57 H28         2.3950   -5.0580    4.3150 hc        1 NI5      0.104500
     58 H29         3.5930   -2.0550    0.8510 hn        1 NI5      0.257000
@<TRIPOS>BOND
     1    1    2 1   
     2    1    7 1   
     3    1   31 1   
     4    1   32 1   
     5    2    3 1   
     6    2   33 1   
     7    2   34 1   
     8    3    4 1   
     9    3    5 1   
    10    4   35 1   
    11    4   36 1   
    12    4   37 1   
    13    5    6 1   
    14    5   38 1   
    15    5   39 1   
    16    6    7 1   
    17    6   40 1   
    18    6   41 1   
    19    7    8 1   
    20    8    9 1   
    21    8   10 1   
    22   11   12 1   
    23   11   13 1   
    24   12   20 1   
    25   12   42 1   
    26   13   43 1   
    27   14   15 1   
    28   14   44 1   
    29   15   20 1   
    30   16   17 1   
    31   17   18 1   
    32   17   45 1   
    33   17   46 1   
    34   18   19 1   
    35   18   47 1   
    36   18   48 1   
    37   19   49 1   
    38   19   50 1   
    39   19   51 1   
    40   20   21 1   
    41   21   22 1   
    42   21   30 1   
    43   23   24 1   
    44   23   27 1   
    45   24   25 1   
    46   24   52 1   
    47   24   53 1   
    48   25   26 1   
    49   25   54 1   
    50   25   55 1   
    51   26   27 1   
    52   26   56 1   
    53   26   57 1   
    54   28   29 1   
    55   30   58 1   
@<TRIPOS>SUBSTRUCTURE
     1 NI5         1 TEMP              0 ****  ****    0 ROOT
