@<TRIPOS>MOLECULE
NI5
   58    61     1     0     0
SMALL
bcc


@<TRIPOS>ATOM
      1 CAP         0.4710   -0.2250    0.2950 c3        1 NI5      0.226300
      2 CAN         1.9840   -0.3560    0.0150 c3        1 NI5      0.151300
      3 NBB         2.7540   -0.6810    1.2060 n3        1 NI5     -0.728600
      4 CAB         4.1630   -0.8400    0.9250 c3        1 NI5      0.156100
      5 CAO         2.2040   -1.8100    1.9430 c3        1 NI5      0.151300
      6 CAQ         0.6910   -1.6720    2.2130 c3        1 NI5      0.226300
      7 NBC        -0.0730   -1.3320    1.0390 n3        1 NI5     -0.814500
      8 SBD        -1.3830   -2.1620    0.5640 sy        1 NI5      1.511200
      9 OAD        -1.9870   -2.7780    1.6810 o         1 NI5     -0.650300
     10 OAE        -2.2020   -1.3420   -0.2450 o         1 NI5     -0.650300
     11 CAU        -0.7530   -3.3840   -0.4250 ca        1 NI5     -0.420500
     12 CAH        -0.2300   -4.5560    0.1310 ca        1 NI5      0.064000
     13 CAF        -0.7790   -3.2570   -1.8190 ca        1 NI5      0.036000
     14 CAG        -0.2920   -4.2620   -2.6440 ca        1 NI5     -0.241000
     15 CAW         0.2380   -5.4330   -2.0760 ca        1 NI5      0.214100
     16 OAT         0.7390   -6.4740   -2.8130 os        1 NI5     -0.334900
     17 CAK         0.7730   -6.3020   -4.2420 c3        1 NI5      0.129400
     18 CAI         1.4160   -7.5670   -4.7860 c3        1 NI5     -0.089400
     19 CAA         1.4920   -7.5070   -6.2890 c3        1 NI5     -0.095100
     20 CAX         0.2690   -5.5850   -0.6690 ca        1 NI5     -0.211900
     21 CAY         0.8400   -6.7910   -0.0110 cc        1 NI5      0.559500
     22 NAR         1.6740   -6.6110    1.0250 nd        1 NI5     -0.627300
     23 CAV         2.1550   -7.7600    1.6130 cd        1 NI5      0.168400
     24 CAL         3.1010   -7.8010    2.7840 c3        1 NI5     -0.034200
     25 CAJ         3.3270   -9.2980    3.0470 c3        1 NI5     -0.084400
     26 CAM         2.4990  -10.0860    2.0170 c3        1 NI5     -0.013200
     27 CAZ         1.8300   -9.0410    1.1990 cc        1 NI5     -0.259400
     28 CBA         0.9360   -9.2400    0.0750 c         1 NI5      0.709700
     29 OAC         0.5690  -10.3190   -0.4240 o         1 NI5     -0.631500
     30 NAS         0.4440   -8.0350   -0.4910 n         1 NI5     -0.458400
     31 H1          0.2940    0.7270    0.8760 h1        1 NI5      0.061200
     32 H2         -0.0680   -0.1390   -0.6910 h1        1 NI5      0.061200
     33 H3          2.1390   -1.1170   -0.8050 h1        1 NI5      0.040200
     34 H4          2.3480    0.6390   -0.3660 h1        1 NI5      0.040200
     35 H6          4.5420    0.0990    0.4430 h1        1 NI5      0.034033
     36 H7          4.3880   -1.7080    0.2450 h1        1 NI5      0.034033
     37 H8          4.7070   -0.9960    1.8930 h1        1 NI5      0.034033
     38 H9          2.7260   -1.8520    2.9410 h1        1 NI5      0.040200
     39 H10         2.3930   -2.7890    1.4130 h1        1 NI5      0.040200
     40 H11         0.5340   -0.8720    2.9940 h1        1 NI5      0.061200
     41 H12         0.3150   -2.6500    2.6310 h1        1 NI5      0.061200
     42 H13        -0.2250   -4.6720    1.2320 ha        1 NI5      0.170000
     43 H14        -1.2120   -2.3430   -2.2680 ha        1 NI5      0.163000
     44 H15        -0.3290   -4.1330   -3.7350 ha        1 NI5      0.151000
     45 H16        -0.2740   -6.1810   -4.6230 h1        1 NI5      0.048200
     46 H17         1.3830   -5.3950   -4.4930 h1        1 NI5      0.048200
     47 H18         0.8160   -8.4570   -4.4620 hc        1 NI5      0.063200
     48 H19         2.4420   -7.6800   -4.3470 hc        1 NI5      0.063200
     49 H20         1.9650   -8.4390   -6.6820 hc        1 NI5      0.041033
     50 H21         2.1040   -6.6330   -6.6220 hc        1 NI5      0.041033
     51 H22         0.4730   -7.4140   -6.7360 hc        1 NI5      0.041033
     52 H23         4.0590   -7.2790    2.5350 hc        1 NI5      0.068200
     53 H24         2.6500   -7.2920    3.6720 hc        1 NI5      0.068200
     54 H25         4.4110   -9.5490    2.9470 hc        1 NI5      0.049200
     55 H26         3.0070   -9.5610    4.0840 hc        1 NI5      0.049200
     56 H27         3.1510  -10.7370    1.3810 hc        1 NI5      0.062200
     57 H28         1.7470  -10.7460    2.5180 hc        1 NI5      0.062200
     58 H29        -0.1290   -8.0850   -1.3060 hn        1 NI5      0.343500
@<TRIPOS>BOND
     1    1    2 1   
     2    1    7 1   
     3    1   31 1   
     4    1   32 1   
     5    2    3 1   
     6    2   33 1   
     7    2   34 1   
     8    3    4 1   
     9    3    5 1   
    10    4   35 1   
    11    4   36 1   
    12    4   37 1   
    13    5    6 1   
    14    5   38 1   
    15    5   39 1   
    16    6    7 1   
    17    6   40 1   
    18    6   41 1   
    19    7    8 1   
    20    8    9 2   
    21    8   10 2   
    22    8   11 1   
    23   11   12 ar  
    24   11   13 ar  
    25   12   20 ar  
    26   12   42 1   
    27   13   14 ar  
    28   13   43 1   
    29   14   15 ar  
    30   14   44 1   
    31   15   16 1   
    32   15   20 ar  
    33   16   17 1   
    34   17   18 1   
    35   17   45 1   
    36   17   46 1   
    37   18   19 1   
    38   18   47 1   
    39   18   48 1   
    40   19   49 1   
    41   19   50 1   
    42   19   51 1   
    43   20   21 1   
    44   21   22 2   
    45   21   30 1   
    46   22   23 1   
    47   23   24 1   
    48   23   27 2   
    49   24   25 1   
    50   24   52 1   
    51   24   53 1   
    52   25   26 1   
    53   25   54 1   
    54   25   55 1   
    55   26   27 1   
    56   26   56 1   
    57   26   57 1   
    58   27   28 1   
    59   28   29 2   
    60   28   30 1   
    61   30   58 1   
@<TRIPOS>SUBSTRUCTURE
     1 NI5         1 TEMP              0 ****  ****    0 ROOT
