@<TRIPOS>MOLECULE
NI5
   58    61     1     0     0
SMALL
bcc


@<TRIPOS>ATOM
      1 CAP         0.4600   -0.2220    0.3090 c3        1 NI5      0.226300
      2 CAN         1.9720   -0.3450    0.0220 c3        1 NI5      0.151300
      3 NBB         2.7490   -0.6720    1.2080 n3        1 NI5     -0.728600
      4 CAB         4.1570   -0.8220    0.9200 c3        1 NI5      0.156100
      5 CAO         2.2080   -1.8070    1.9420 c3        1 NI5      0.151300
      6 CAQ         0.6950   -1.6780    2.2190 c3        1 NI5      0.226300
      7 NBC        -0.0750   -1.3360    1.0500 n3        1 NI5     -0.814500
      8 SBD        -1.3840   -2.1700    0.5780 sy        1 NI5      1.511200
      9 OAD        -1.9830   -2.7900    1.6950 o         1 NI5     -0.650300
     10 OAE        -2.2080   -1.3500   -0.2270 o         1 NI5     -0.650300
     11 CAU        -0.7530   -3.3870   -0.4160 ca        1 NI5     -0.420500
     12 CAH        -0.2300   -4.5610    0.1360 ca        1 NI5      0.064000
     13 CAF        -0.7780   -3.2550   -1.8090 ca        1 NI5      0.036000
     14 CAG        -0.2900   -4.2560   -2.6380 ca        1 NI5     -0.241000
     15 CAW         0.2400   -5.4290   -2.0740 ca        1 NI5      0.214100
     16 OAT         0.7430   -6.4670   -2.8150 os        1 NI5     -0.334900
     17 CAK         0.7790   -6.2900   -4.2420 c3        1 NI5      0.129400
     18 CAI         1.4230   -7.5520   -4.7910 c3        1 NI5     -0.089400
     19 CAA         1.5020   -7.4850   -6.2930 c3        1 NI5     -0.095100
     20 CAX         0.2700   -5.5870   -0.6680 ca        1 NI5     -0.211900
     21 CAY         0.8400   -6.7950   -0.0130 cc        1 NI5      0.559500
     22 NAR         1.6730   -6.6190    1.0240 nd        1 NI5     -0.627300
     23 CAV         2.1540   -7.7700    1.6090 cd        1 NI5      0.168400
     24 CAL         3.0980   -7.8160    2.7800 c3        1 NI5     -0.034200
     25 CAJ         3.3240   -9.3140    3.0380 c3        1 NI5     -0.084400
     26 CAM         2.4970  -10.0980    2.0040 c3        1 NI5     -0.013200
     27 CAZ         1.8290   -9.0500    1.1890 cc        1 NI5     -0.259400
     28 CBA         0.9370   -9.2450    0.0630 c         1 NI5      0.709700
     29 OAC         0.5710  -10.3220   -0.4410 o         1 NI5     -0.631500
     30 NAS         0.4460   -8.0380   -0.4990 n         1 NI5     -0.458400
     31 H1         -0.0840   -0.1340   -0.6740 h1        1 NI5      0.061200
     32 H2          0.2810    0.7250    0.8960 h1        1 NI5      0.061200
     33 H3          2.3290    0.6540   -0.3560 h1        1 NI5      0.040200
     34 H4          2.1270   -1.1010   -0.8020 h1        1 NI5      0.040200
     35 H6          4.7070   -0.9800    1.8850 h1        1 NI5      0.034033
     36 H7          4.5300    0.1210    0.4410 h1        1 NI5      0.034033
     37 H8          4.3830   -1.6850    0.2350 h1        1 NI5      0.034033
     38 H9          2.7340   -1.8520    2.9370 h1        1 NI5      0.040200
     39 H10         2.4000   -2.7820    1.4060 h1        1 NI5      0.040200
     40 H11         0.5380   -0.8830    3.0040 h1        1 NI5      0.061200
     41 H12         0.3260   -2.6600    2.6330 h1        1 NI5      0.061200
     42 H13        -0.2260   -4.6810    1.2360 ha        1 NI5      0.170000
     43 H14        -1.2110   -2.3400   -2.2560 ha        1 NI5      0.163000
     44 H15        -0.3260   -4.1230   -3.7280 ha        1 NI5      0.151000
     45 H16         1.3880   -5.3810   -4.4890 h1        1 NI5      0.048200
     46 H17        -0.2680   -6.1670   -4.6250 h1        1 NI5      0.048200
     47 H18         2.4480   -7.6660   -4.3510 hc        1 NI5      0.063200
     48 H19         0.8230   -8.4440   -4.4710 hc        1 NI5      0.063200
     49 H20         2.1150   -6.6100   -6.6210 hc        1 NI5      0.041033
     50 H21         1.9760   -8.4160   -6.6900 hc        1 NI5      0.041033
     51 H22         0.4830   -7.3900   -6.7420 hc        1 NI5      0.041033
     52 H23         2.6460   -7.3110    3.6700 hc        1 NI5      0.068200
     53 H24         4.0560   -7.2930    2.5350 hc        1 NI5      0.068200
     54 H25         3.0030   -9.5810    4.0740 hc        1 NI5      0.049200
     55 H26         4.4080   -9.5640    2.9390 hc        1 NI5      0.049200
     56 H27         3.1510  -10.7470    1.3670 hc        1 NI5      0.062200
     57 H28         1.7440  -10.7600    2.5010 hc        1 NI5      0.062200
     58 H29        -0.1260   -8.0850   -1.3150 hn        1 NI5      0.343500
@<TRIPOS>BOND
     1    1    2 1   
     2    1    7 1   
     3    1   31 1   
     4    1   32 1   
     5    2    3 1   
     6    2   33 1   
     7    2   34 1   
     8    3    4 1   
     9    3    5 1   
    10    4   35 1   
    11    4   36 1   
    12    4   37 1   
    13    5    6 1   
    14    5   38 1   
    15    5   39 1   
    16    6    7 1   
    17    6   40 1   
    18    6   41 1   
    19    7    8 1   
    20    8    9 2   
    21    8   10 2   
    22    8   11 1   
    23   11   12 ar  
    24   11   13 ar  
    25   12   20 ar  
    26   12   42 1   
    27   13   14 ar  
    28   13   43 1   
    29   14   15 ar  
    30   14   44 1   
    31   15   16 1   
    32   15   20 ar  
    33   16   17 1   
    34   17   18 1   
    35   17   45 1   
    36   17   46 1   
    37   18   19 1   
    38   18   47 1   
    39   18   48 1   
    40   19   49 1   
    41   19   50 1   
    42   19   51 1   
    43   20   21 1   
    44   21   22 2   
    45   21   30 1   
    46   22   23 1   
    47   23   24 1   
    48   23   27 2   
    49   24   25 1   
    50   24   52 1   
    51   24   53 1   
    52   25   26 1   
    53   25   54 1   
    54   25   55 1   
    55   26   27 1   
    56   26   56 1   
    57   26   57 1   
    58   27   28 1   
    59   28   29 2   
    60   28   30 1   
    61   30   58 1   
@<TRIPOS>SUBSTRUCTURE
     1 NI5         1 TEMP              0 ****  ****    0 ROOT
