@<TRIPOS>MOLECULE
NI7
   48    51     1     0     0
SMALL
bcc


@<TRIPOS>ATOM
      1 C1          0.0030    0.1480   -0.0070 c3        1 NI7      0.057700
      2 C2          1.5370   -0.1450    0.1830 c3        1 NI7      0.057700
      3 N3          1.8550   -0.1600    1.5890 n         1 NI7     -0.445800
      4 C5          3.0320   -0.8580    2.0530 c3        1 NI7      0.134800
      5 C6          4.3430   -0.1710    1.7860 ca        1 NI7     -0.088800
      6 C7          4.7010    0.9410    2.5540 ca        1 NI7     -0.198000
      7 C8          5.9380    1.5580    2.3270 ca        1 NI7      0.126600
      8 O9          6.3590    2.6550    3.0420 oh        1 NI7     -0.497100
      9 C10         6.8190    1.0740    1.3440 ca        1 NI7     -0.149500
     10 C11         6.4420   -0.0330    0.5910 ca        1 NI7     -0.100500
     11 C12         5.2100   -0.6540    0.8040 ca        1 NI7     -0.157500
     12 C13         1.3030    0.8760    2.3440 c         1 NI7      0.631500
     13 O14         1.5910    1.0440    3.5390 o         1 NI7     -0.581500
     14 C15         0.2580    1.8160    1.6980 c         1 NI7      0.631500
     15 O16        -0.0240    2.8770    2.2770 o         1 NI7     -0.581500
     16 N17        -0.3000    1.4730    0.4680 n         1 NI7     -0.445800
     17 C18        -1.4370    2.1900   -0.0600 c3        1 NI7      0.134800
     18 C19        -2.7790    1.7370    0.4450 ca        1 NI7     -0.088800
     19 C20        -3.1510    2.0290    1.7600 ca        1 NI7     -0.198000
     20 C21        -4.4150    1.6370    2.2170 ca        1 NI7      0.126600
     21 O22        -4.8500    1.8880    3.4980 oh        1 NI7     -0.497100
     22 C23        -5.3120    0.9600    1.3720 ca        1 NI7     -0.149500
     23 C24        -4.9230    0.6800    0.0670 ca        1 NI7     -0.100500
     24 C25        -3.6630    1.0620   -0.3990 ca        1 NI7     -0.157500
     25 C26         1.7090   -1.4270   -0.6730 c3        1 NI7      0.147300
     26 N27         0.7370   -1.3340   -1.7700 n3        1 NI7     -0.794200
     27 C28        -0.1720   -0.2150   -1.5050 c3        1 NI7      0.147300
     28 H1         -0.6020   -0.6010    0.5920 h1        1 NI7      0.065200
     29 H2          2.1390    0.6720   -0.3230 h1        1 NI7      0.065200
     30 H5          2.9220   -0.9970    3.1700 h1        1 NI7      0.074700
     31 H5A         3.0360   -1.8750    1.5650 h1        1 NI7      0.074700
     32 H7          4.0130    1.3210    3.3260 ha        1 NI7      0.159000
     33 HO9         5.6610    2.8890    3.6710 ho        1 NI7      0.425500
     34 H10         7.7850    1.5740    1.1870 ha        1 NI7      0.152000
     35 H11         7.1230   -0.4210   -0.1810 ha        1 NI7      0.135500
     36 H12         4.9270   -1.5270    0.1990 ha        1 NI7      0.129500
     37 H18        -1.4050    2.0920   -1.1830 h1        1 NI7      0.074700
     38 H18A       -1.3040    3.2800    0.2090 h1        1 NI7      0.074700
     39 H20        -2.4520    2.5650    2.4230 ha        1 NI7      0.159000
     40 HO22       -4.1440    2.3560    3.9680 ho        1 NI7      0.425500
     41 H23        -6.3000    0.6650    1.7530 ha        1 NI7      0.152000
     42 H24        -5.6170    0.1530   -0.6050 ha        1 NI7      0.135500
     43 H25        -3.3720    0.8330   -1.4350 ha        1 NI7      0.129500
     44 H26         2.7380   -1.4570   -1.1210 h1        1 NI7      0.060700
     45 H26A        1.5650   -2.3530   -0.0530 h1        1 NI7      0.060700
     46 HN27        0.2250   -2.1920   -1.8480 hn        1 NI7      0.360800
     47 H28        -1.2390   -0.4730   -1.7300 h1        1 NI7      0.060700
     48 H28A        0.1380    0.6400   -2.1650 h1        1 NI7      0.060700
@<TRIPOS>BOND
     1    1    2 1   
     2    1   16 1   
     3    1   27 1   
     4    1   28 1   
     5    2    3 1   
     6    2   25 1   
     7    2   29 1   
     8    3    4 1   
     9    3   12 1   
    10    4    5 1   
    11    4   30 1   
    12    4   31 1   
    13    5    6 ar  
    14    5   11 ar  
    15    6    7 ar  
    16    6   32 1   
    17    7    8 1   
    18    7    9 ar  
    19    8   33 1   
    20    9   10 ar  
    21    9   34 1   
    22   10   11 ar  
    23   10   35 1   
    24   11   36 1   
    25   12   13 2   
    26   12   14 1   
    27   14   15 2   
    28   14   16 1   
    29   16   17 1   
    30   17   18 1   
    31   17   37 1   
    32   17   38 1   
    33   18   19 ar  
    34   18   24 ar  
    35   19   20 ar  
    36   19   39 1   
    37   20   21 1   
    38   20   22 ar  
    39   21   40 1   
    40   22   23 ar  
    41   22   41 1   
    42   23   24 ar  
    43   23   42 1   
    44   24   43 1   
    45   25   26 1   
    46   25   44 1   
    47   25   45 1   
    48   26   27 1   
    49   26   46 1   
    50   27   47 1   
    51   27   48 1   
@<TRIPOS>SUBSTRUCTURE
     1 NI7         1 TEMP              0 ****  ****    0 ROOT
