@<TRIPOS>MOLECULE
NI7
   48    51     1     0     0
SMALL
bcc


@<TRIPOS>ATOM
      1 C1          0.7890   -1.3950    0.1040 c3        1 NI7      0.057700
      2 C2         -0.7770   -1.3790   -0.0480 c3        1 NI7      0.057700
      3 N3         -1.1790   -0.2260   -0.8110 n         1 NI7     -0.445800
      4 C5         -2.4190   -0.2430   -1.5500 c3        1 NI7      0.134800
      5 C6         -3.6670   -0.0910   -0.7240 ca        1 NI7     -0.088800
      6 C7         -3.9690    1.1520   -0.1620 ca        1 NI7     -0.198000
      7 C8         -5.1490    1.3000    0.5770 ca        1 NI7      0.126600
      8 O9         -5.5120    2.4910    1.1620 oh        1 NI7     -0.497100
      9 C10        -6.0310    0.2200    0.7560 ca        1 NI7     -0.149500
     10 C11        -5.7120   -1.0080    0.1860 ca        1 NI7     -0.100500
     11 C12        -4.5360   -1.1700   -0.5490 ca        1 NI7     -0.157500
     12 C13        -0.5700    0.9760   -0.4550 c         1 NI7      0.631500
     13 O14        -0.9160    2.0610   -0.9470 o         1 NI7     -0.581500
     14 C15         0.6110    0.9600    0.5450 c         1 NI7      0.631500
     15 O16         0.9670    2.0320    1.0560 o         1 NI7     -0.581500
     16 N17         1.2090   -0.2550    0.8820 n         1 NI7     -0.445800
     17 C18         2.4830   -0.2800    1.5640 c3        1 NI7      0.134800
     18 C19         3.6930   -0.1020    0.6890 ca        1 NI7     -0.088800
     19 C20         3.9910    1.1650    0.1820 ca        1 NI7     -0.198000
     20 C21         5.1370    1.3360   -0.6040 ca        1 NI7      0.126600
     21 O22         5.4950    2.5530   -1.1370 oh        1 NI7     -0.497100
     22 C23         5.9890    0.2530   -0.8860 ca        1 NI7     -0.149500
     23 C24         5.6730   -1.0000   -0.3730 ca        1 NI7     -0.100500
     24 C25         4.5310   -1.1840    0.4090 ca        1 NI7     -0.157500
     25 C26        -1.0230   -2.8120   -0.5880 c3        1 NI7      0.147300
     26 N27        -0.0250   -3.6750    0.0510 n3        1 NI7     -0.794200
     27 C28         1.0280   -2.8340    0.6320 c3        1 NI7      0.147300
     28 H1          1.2650   -1.3370   -0.9230 h1        1 NI7      0.065200
     29 H2         -1.2560   -1.3220    0.9780 h1        1 NI7      0.065200
     30 H5         -2.3790    0.6060   -2.2960 h1        1 NI7      0.074700
     31 H5A        -2.4600   -1.2170   -2.1170 h1        1 NI7      0.074700
     32 H7         -3.2810    2.0020   -0.3050 ha        1 NI7      0.159000
     33 HO9        -4.8250    3.1440    0.9620 ho        1 NI7      0.425500
     34 H10        -6.9530    0.3610    1.3370 ha        1 NI7      0.152000
     35 H11        -6.3960   -1.8610    0.3170 ha        1 NI7      0.135500
     36 H12        -4.2990   -2.1470   -0.9930 ha        1 NI7      0.129500
     37 H18         2.4700    0.5510    2.3300 h1        1 NI7      0.074700
     38 H18A        2.5560   -1.2660    2.1080 h1        1 NI7      0.074700
     39 H20         3.3260    2.0170    0.4040 ha        1 NI7      0.159000
     40 HO22        4.8240    3.2020   -0.8770 ho        1 NI7      0.425500
     41 H23         6.8840    0.4130   -1.5030 ha        1 NI7      0.152000
     42 H24         6.3320   -1.8560   -0.5860 ha        1 NI7      0.135500
     43 H25         4.2950   -2.1820    0.8050 ha        1 NI7      0.129500
     44 H26        -2.0720   -3.1440   -0.3740 h1        1 NI7      0.060700
     45 H26A       -0.8520   -2.8580   -1.6980 h1        1 NI7      0.060700
     46 HN27       -0.4510   -4.2340    0.7660 hn        1 NI7      0.360800
     47 H28         2.0190   -3.2180    0.2690 h1        1 NI7      0.060700
     48 H28A        1.0270   -2.8620    1.7550 h1        1 NI7      0.060700
@<TRIPOS>BOND
     1    1    2 1   
     2    1   16 1   
     3    1   27 1   
     4    1   28 1   
     5    2    3 1   
     6    2   25 1   
     7    2   29 1   
     8    3    4 1   
     9    3   12 1   
    10    4    5 1   
    11    4   30 1   
    12    4   31 1   
    13    5    6 ar  
    14    5   11 ar  
    15    6    7 ar  
    16    6   32 1   
    17    7    8 1   
    18    7    9 ar  
    19    8   33 1   
    20    9   10 ar  
    21    9   34 1   
    22   10   11 ar  
    23   10   35 1   
    24   11   36 1   
    25   12   13 2   
    26   12   14 1   
    27   14   15 2   
    28   14   16 1   
    29   16   17 1   
    30   17   18 1   
    31   17   37 1   
    32   17   38 1   
    33   18   19 ar  
    34   18   24 ar  
    35   19   20 ar  
    36   19   39 1   
    37   20   21 1   
    38   20   22 ar  
    39   21   40 1   
    40   22   23 ar  
    41   22   41 1   
    42   23   24 ar  
    43   23   42 1   
    44   24   43 1   
    45   25   26 1   
    46   25   44 1   
    47   25   45 1   
    48   26   27 1   
    49   26   46 1   
    50   27   47 1   
    51   27   48 1   
@<TRIPOS>SUBSTRUCTURE
     1 NI7         1 TEMP              0 ****  ****    0 ROOT
