@<TRIPOS>MOLECULE
NI7
   48    47     1     0     0
SMALL
bcc


@<TRIPOS>ATOM
      1 C1         -0.6350   -1.1160   -1.7420 c3        1 NI7     -0.018000
      2 C2          0.8350   -0.7210   -1.9670 c3        1 NI7     -0.018000
      3 N3          1.6790   -0.5560   -0.6550 n         1 NI7     -0.307000
      4 C5          2.6570   -1.5560   -0.2890 c3        1 NI7      0.011000
      5 C6          3.3140   -1.1610    1.0360 c2        1 NI7     -0.086000
      6 C7          3.2860   -2.0320    2.1120 c2        1 NI7     -0.138500
      7 C8          3.9540   -1.6980    3.3040 c1        1 NI7      0.080500
      8 O9          3.9500   -2.5970    4.3910 o         1 NI7     -0.245000
      9 C10         4.6460   -0.4870    3.4030 c2        1 NI7     -0.207500
     10 C11         4.6740    0.3870    2.3210 c1        1 NI7     -0.094000
     11 C12         4.0090    0.0550    1.1350 c1        1 NI7     -0.158500
     12 C13         1.0560    0.3090    0.4010 c2        1 NI7      0.288500
     13 O14         1.6300    0.5270    1.3790 o         1 NI7     -0.295500
     14 C15        -0.8610    0.3370    0.3860 c2        1 NI7      0.288500
     15 O16        -1.4760    0.9980    1.1840 o         1 NI7     -0.295500
     16 N17        -1.4820   -0.0810   -0.8860 n         1 NI7     -0.307000
     17 C18        -2.5060    0.8010   -1.5610 c3        1 NI7      0.011000
     18 C19        -3.3440    1.5370   -0.4850 c2        1 NI7     -0.086000
     19 C20        -3.5180    2.9220   -0.5570 c2        1 NI7     -0.138500
     20 C21        -4.2860    3.5730    0.3950 c1        1 NI7      0.080500
     21 O22        -4.5140    4.9630    0.2890 o         1 NI7     -0.245000
     22 C23        -4.8790    2.8500    1.4160 c2        1 NI7     -0.207500
     23 C24        -4.7040    1.4710    1.4850 c1        1 NI7     -0.094000
     24 C25        -3.9370    0.8190    0.5350 c1        1 NI7     -0.158500
     25 C26         1.3230   -1.5660   -2.8450 c3        1 NI7     -0.090000
     26 N27         0.1180   -1.9460   -3.6890 n3        1 NI7     -0.273000
     27 C28        -1.1200   -1.4010   -2.8770 c3        1 NI7     -0.090000
     28 H1         -0.6210   -1.9820   -1.2080 h1        1 NI7      0.103500
     29 H2          0.8260    0.2160   -2.4290 h1        1 NI7      0.103500
     30 H5          3.3500   -1.6180   -0.9960 h1        1 NI7      0.114250
     31 H5A         2.2090   -2.4360   -0.1880 h1        1 NI7      0.114250
     32 H7          2.7700   -2.8120    2.0680 ha        1 NI7      0.173000
     33 HO9         4.6980   -3.0700    4.3850 ho        1 NI7      0.218000
     34 H10         5.1280   -0.2460    4.2630 ha        1 NI7      0.135000
     35 H11         5.1760    1.2640    2.3910 ha        1 NI7      0.134000
     36 H12         4.0290    0.6920    0.3510 ha        1 NI7      0.130000
     37 H18        -2.0370    1.4790   -2.1470 h1        1 NI7      0.114250
     38 H18A       -3.0870    0.2600   -2.1000 h1        1 NI7      0.114250
     39 H20        -3.0820    3.4390   -1.2760 ha        1 NI7      0.173000
     40 HO22       -5.3100    5.1000    0.0430 ho        1 NI7      0.218000
     41 H23        -5.4280    3.3120    2.0960 ha        1 NI7      0.135000
     42 H24        -5.1100    0.9770    2.1850 ha        1 NI7      0.134000
     43 H25        -3.8130   -0.1910    0.5860 ha        1 NI7      0.130000
     44 H26         2.0070   -1.1320   -3.3970 h1        1 NI7      0.099250
     45 H26A        1.6730   -2.3190   -2.4150 h1        1 NI7      0.099250
     46 HN27        0.0660   -2.8300   -3.7490 hn        1 NI7      0.154000
     47 H28        -1.8370   -2.1190   -2.7900 h1        1 NI7      0.099250
     48 H28A       -1.4760   -0.6160   -3.2950 h1        1 NI7      0.099250
@<TRIPOS>BOND
     1    1    2 1   
     2    1   16 1   
     3    1   27 1   
     4    1   28 1   
     5    2    3 1   
     6    2   25 1   
     7    2   29 1   
     8    3    4 1   
     9    3   12 1   
    10    4    5 1   
    11    4   30 1   
    12    4   31 1   
    13    5    6 1   
    14    5   11 1   
    15    6    7 1   
    16    6   32 1   
    17    7    9 1   
    18    8   33 1   
    19    9   10 1   
    20    9   34 1   
    21   10   35 1   
    22   11   36 1   
    23   12   13 1   
    24   12   14 1   
    25   14   15 1   
    26   14   16 1   
    27   16   17 1   
    28   17   18 1   
    29   17   37 1   
    30   17   38 1   
    31   18   19 1   
    32   18   24 1   
    33   19   20 1   
    34   19   39 1   
    35   20   22 1   
    36   21   40 1   
    37   22   23 1   
    38   22   41 1   
    39   23   42 1   
    40   24   43 1   
    41   25   26 1   
    42   25   44 1   
    43   25   45 1   
    44   26   27 1   
    45   26   46 1   
    46   27   47 1   
    47   27   48 1   
@<TRIPOS>SUBSTRUCTURE
     1 NI7         1 TEMP              0 ****  ****    0 ROOT
