@<TRIPOS>MOLECULE
NI7
   48    51     1     0     0
SMALL
bcc


@<TRIPOS>ATOM
      1 C1          0.0100    0.2210   -0.0700 c3        1 NI7      0.057700
      2 C2          1.5430   -0.0610    0.1470 c3        1 NI7      0.057700
      3 N3          1.8380   -0.0780    1.5560 n         1 NI7     -0.445800
      4 C5          2.9710   -0.8250    2.0500 c3        1 NI7      0.134800
      5 C6          4.3160   -0.1950    1.8120 ca        1 NI7     -0.088800
      6 C7          4.6830    0.9340    2.5480 ca        1 NI7     -0.198000
      7 C8          5.9500    1.4980    2.3490 ca        1 NI7      0.126600
      8 O9          6.3820    2.6090    3.0350 oh        1 NI7     -0.497100
      9 C10         6.8520    0.9430    1.4250 ca        1 NI7     -0.149500
     10 C11         6.4660   -0.1820    0.7030 ca        1 NI7     -0.100500
     11 C12         5.2050   -0.7500    0.8890 ca        1 NI7     -0.157500
     12 C13         1.2770    0.9550    2.3040 c         1 NI7      0.631500
     13 O14         1.5520    1.1270    3.5010 o         1 NI7     -0.581500
     14 C15         0.2370    1.8900    1.6410 c         1 NI7      0.631500
     15 O16        -0.0530    2.9520    2.2140 o         1 NI7     -0.581500
     16 N17        -0.3090    1.5440    0.4050 n         1 NI7     -0.445800
     17 C18        -1.4830    2.2230   -0.0940 c3        1 NI7      0.134800
     18 C19        -2.7970    1.7360    0.4510 ca        1 NI7     -0.088800
     19 C20        -3.1620    2.0710    1.7580 ca        1 NI7     -0.198000
     20 C21        -4.4020    1.6450    2.2520 ca        1 NI7      0.126600
     21 O22        -4.8300    1.9360    3.5260 oh        1 NI7     -0.497100
     22 C23        -5.2790    0.8920    1.4530 ca        1 NI7     -0.149500
     23 C24        -4.8960    0.5690    0.1550 ca        1 NI7     -0.100500
     24 C25        -3.6610    0.9840   -0.3470 ca        1 NI7     -0.157500
     25 C26         1.7210   -1.3380   -0.7160 c3        1 NI7      0.147300
     26 N27         0.8180   -1.1960   -1.8610 n3        1 NI7     -0.794200
     27 C28        -0.1540   -0.1340   -1.5720 c3        1 NI7      0.147300
     28 H1         -0.5960   -0.5380    0.5150 h1        1 NI7      0.065200
     29 H2          2.1510    0.7610   -0.3430 h1        1 NI7      0.065200
     30 H5          2.9410   -1.8430    1.5650 h1        1 NI7      0.074700
     31 H5A         2.8300   -0.9540    3.1640 h1        1 NI7      0.074700
     32 H7          3.9800    1.3680    3.2770 ha        1 NI7      0.159000
     33 HO9         5.6710    2.8860    3.6340 ho        1 NI7      0.425500
     34 H10         7.8410    1.4010    1.2890 ha        1 NI7      0.152000
     35 H11         7.1650   -0.6280   -0.0210 ha        1 NI7      0.135500
     36 H12         4.9160   -1.6400    0.3110 ha        1 NI7      0.129500
     37 H18        -1.3730    3.3180    0.1640 h1        1 NI7      0.074700
     38 H18A       -1.4820    2.1190   -1.2170 h1        1 NI7      0.074700
     39 H20        -2.4770    2.6630    2.3860 ha        1 NI7      0.159000
     40 HO22       -4.1330    2.4440    3.9680 ho        1 NI7      0.425500
     41 H23        -6.2470    0.5720    1.8620 ha        1 NI7      0.152000
     42 H24        -5.5740   -0.0200   -0.4800 ha        1 NI7      0.135500
     43 H25        -3.3720    0.7180   -1.3750 ha        1 NI7      0.129500
     44 H26         1.4070   -2.2550   -0.1460 h1        1 NI7      0.060700
     45 H26A        2.7900   -1.4600   -1.0300 h1        1 NI7      0.060700
     46 HN27        1.3350   -0.9700   -2.6900 hn        1 NI7      0.359800
     47 H28        -1.1820   -0.5430   -1.7610 h1        1 NI7      0.060700
     48 H28A       -0.0060    0.7700   -2.2230 h1        1 NI7      0.060700
@<TRIPOS>BOND
     1    1    2 1   
     2    1   16 1   
     3    1   27 1   
     4    1   28 1   
     5    2    3 1   
     6    2   25 1   
     7    2   29 1   
     8    3    4 1   
     9    3   12 1   
    10    4    5 1   
    11    4   30 1   
    12    4   31 1   
    13    5    6 ar  
    14    5   11 ar  
    15    6    7 ar  
    16    6   32 1   
    17    7    8 1   
    18    7    9 ar  
    19    8   33 1   
    20    9   10 ar  
    21    9   34 1   
    22   10   11 ar  
    23   10   35 1   
    24   11   36 1   
    25   12   13 2   
    26   12   14 1   
    27   14   15 2   
    28   14   16 1   
    29   16   17 1   
    30   17   18 1   
    31   17   37 1   
    32   17   38 1   
    33   18   19 ar  
    34   18   24 ar  
    35   19   20 ar  
    36   19   39 1   
    37   20   21 1   
    38   20   22 ar  
    39   21   40 1   
    40   22   23 ar  
    41   22   41 1   
    42   23   24 ar  
    43   23   42 1   
    44   24   43 1   
    45   25   26 1   
    46   25   44 1   
    47   25   45 1   
    48   26   27 1   
    49   26   46 1   
    50   27   47 1   
    51   27   48 1   
@<TRIPOS>SUBSTRUCTURE
     1 NI7         1 TEMP              0 ****  ****    0 ROOT
