@<TRIPOS>MOLECULE
NI7
   48    51     1     0     0
SMALL
bcc


@<TRIPOS>ATOM
      1 C1          0.0030    0.1490   -0.0080 c3        1 NI7      0.057700
      2 C2          1.5370   -0.1460    0.1840 c3        1 NI7      0.057700
      3 N3          1.8530   -0.1610    1.5910 n         1 NI7     -0.445800
      4 C5          3.0300   -0.8600    2.0550 c3        1 NI7      0.134800
      5 C6          4.3410   -0.1730    1.7890 ca        1 NI7     -0.088800
      6 C7          4.7000    0.9380    2.5570 ca        1 NI7     -0.198000
      7 C8          5.9370    1.5540    2.3310 ca        1 NI7      0.126600
      8 O9          6.3590    2.6510    3.0460 oh        1 NI7     -0.497100
      9 C10         6.8190    1.0690    1.3490 ca        1 NI7     -0.149500
     10 C11         6.4420   -0.0370    0.5960 ca        1 NI7     -0.100500
     11 C12         5.2090   -0.6580    0.8090 ca        1 NI7     -0.157500
     12 C13         1.3020    0.8760    2.3450 c         1 NI7      0.631500
     13 O14         1.5890    1.0440    3.5400 o         1 NI7     -0.581500
     14 C15         0.2580    1.8170    1.6980 c         1 NI7      0.631500
     15 O16        -0.0240    2.8780    2.2760 o         1 NI7     -0.581500
     16 N17        -0.2990    1.4740    0.4670 n         1 NI7     -0.445800
     17 C18        -1.4350    2.1910   -0.0620 c3        1 NI7      0.134800
     18 C19        -2.7780    1.7400    0.4420 ca        1 NI7     -0.088800
     19 C20        -3.1500    2.0330    1.7560 ca        1 NI7     -0.198000
     20 C21        -4.4150    1.6420    2.2120 ca        1 NI7      0.126600
     21 O22        -4.8510    1.8940    3.4920 oh        1 NI7     -0.497100
     22 C23        -5.3120    0.9650    1.3670 ca        1 NI7     -0.149500
     23 C24        -4.9220    0.6850    0.0620 ca        1 NI7     -0.100500
     24 C25        -3.6620    1.0650   -0.4030 ca        1 NI7     -0.157500
     25 C26         1.7080   -1.4290   -0.6710 c3        1 NI7      0.147300
     26 N27         0.7380   -1.3350   -1.7700 n7        1 NI7     -0.794200
     27 C28        -0.1700   -0.2150   -1.5050 c3        1 NI7      0.147300
     28 H1         -0.6020   -0.6000    0.5910 h1        1 NI7      0.065200
     29 H2          2.1400    0.6700   -0.3220 h1        1 NI7      0.065200
     30 H5          3.0340   -1.8770    1.5670 h1        1 NI7      0.074700
     31 H5A         2.9190   -0.9980    3.1720 h1        1 NI7      0.074700
     32 H7          4.0120    1.3190    3.3290 ha        1 NI7      0.159000
     33 HO9         5.6600    2.8860    3.6750 ho        1 NI7      0.425500
     34 H10         7.7850    1.5690    1.1920 ha        1 NI7      0.152000
     35 H11         7.1230   -0.4270   -0.1750 ha        1 NI7      0.135500
     36 H12         4.9250   -1.5310    0.2030 ha        1 NI7      0.129500
     37 H18        -1.3010    3.2810    0.2070 h1        1 NI7      0.074700
     38 H18A       -1.4020    2.0930   -1.1860 h1        1 NI7      0.074700
     39 H20        -2.4510    2.5690    2.4190 ha        1 NI7      0.159000
     40 HO22       -4.1450    2.3610    3.9630 ho        1 NI7      0.425500
     41 H23        -6.3000    0.6720    1.7470 ha        1 NI7      0.152000
     42 H24        -5.6160    0.1580   -0.6100 ha        1 NI7      0.135500
     43 H25        -3.3690    0.8360   -1.4380 ha        1 NI7      0.129500
     44 H26         1.5630   -2.3540   -0.0520 h1        1 NI7      0.060700
     45 H26A        2.7380   -1.4590   -1.1190 h1        1 NI7      0.060700
     46 HN27        0.2250   -2.1930   -1.8480 hn        1 NI7      0.360800
     47 H28        -1.2380   -0.4720   -1.7320 h1        1 NI7      0.060700
     48 H28A        0.1410    0.6390   -2.1660 h1        1 NI7      0.060700
@<TRIPOS>BOND
     1    1    2 1   
     2    1   16 1   
     3    1   27 1   
     4    1   28 1   
     5    2    3 1   
     6    2   25 1   
     7    2   29 1   
     8    3    4 1   
     9    3   12 1   
    10    4    5 1   
    11    4   30 1   
    12    4   31 1   
    13    5    6 ar  
    14    5   11 ar  
    15    6    7 ar  
    16    6   32 1   
    17    7    8 1   
    18    7    9 ar  
    19    8   33 1   
    20    9   10 ar  
    21    9   34 1   
    22   10   11 ar  
    23   10   35 1   
    24   11   36 1   
    25   12   13 2   
    26   12   14 1   
    27   14   15 2   
    28   14   16 1   
    29   16   17 1   
    30   17   18 1   
    31   17   37 1   
    32   17   38 1   
    33   18   19 ar  
    34   18   24 ar  
    35   19   20 ar  
    36   19   39 1   
    37   20   21 1   
    38   20   22 ar  
    39   21   40 1   
    40   22   23 ar  
    41   22   41 1   
    42   23   24 ar  
    43   23   42 1   
    44   24   43 1   
    45   25   26 1   
    46   25   44 1   
    47   25   45 1   
    48   26   27 1   
    49   26   46 1   
    50   27   47 1   
    51   27   48 1   
@<TRIPOS>SUBSTRUCTURE
     1 NI7         1 TEMP              0 ****  ****    0 ROOT
