@<TRIPOS>MOLECULE
NI8
   54    57     1     0     0
SMALL
bcc


@<TRIPOS>ATOM
      1 C1          0.0170    0.2500    0.0200 c3        1 NI8      0.057700
      2 C2          1.5150   -0.1520    0.2830 c3        1 NI8      0.057700
      3 N3          1.7640   -0.1880    1.7030 n         1 NI8     -0.445300
      4 C5          2.8710   -0.9610    2.2190 c3        1 NI8      0.137300
      5 C6          4.2350   -0.3720    1.9950 ca        1 NI8     -0.129300
      6 C7          4.6560    0.7100    2.7720 ca        1 NI8     -0.113000
      7 C8          5.9370    1.2460    2.5960 ca        1 NI8     -0.087800
      8 C9          6.3400    2.4050    3.4470 c3        1 NI8      0.174700
      9 C10         6.7960    0.6930    1.6430 ca        1 NI8     -0.093500
     10 C11         6.3740   -0.3880    0.8690 ca        1 NI8     -0.136500
     11 C12         5.0970   -0.9190    1.0400 ca        1 NI8     -0.120500
     12 C13         1.2510    0.8870    2.4320 c         1 NI8      0.630500
     13 O14         1.4900    1.0340    3.6400 o         1 NI8     -0.581500
     14 C15         0.3110    1.9000    1.7360 c         1 NI8      0.630500
     15 O16         0.0820    2.9810    2.3000 o         1 NI8     -0.581500
     16 N17        -0.2110    1.5950    0.4800 n         1 NI8     -0.445300
     17 C18        -1.2750    2.3840   -0.0950 c3        1 NI8      0.137300
     18 C19        -2.6660    2.0080    0.3330 ca        1 NI8     -0.129300
     19 C20        -3.0960    2.3110    1.6270 ca        1 NI8     -0.113000
     20 C21        -4.4000    1.9950    2.0270 ca        1 NI8     -0.087800
     21 C22        -4.8170    2.3420    3.4180 c3        1 NI8      0.174700
     22 C23        -5.2720    1.3780    1.1250 ca        1 NI8     -0.093500
     23 C24        -4.8400    1.0780   -0.1670 ca        1 NI8     -0.136500
     24 C25        -3.5410    1.3880   -0.5640 ca        1 NI8     -0.120500
     25 C26         1.6350   -1.4460   -0.5650 c3        1 NI8      0.147300
     26 N27         0.7250   -1.2870   -1.7060 n3        1 NI8     -0.794200
     27 C28        -0.1120   -0.1050   -1.4840 c3        1 NI8      0.147300
     28 O29        -6.1310    1.8570    3.6540 oh        1 NI8     -0.601800
     29 O30         7.6690    2.7910    3.1260 oh        1 NI8     -0.601800
     30 H1         -0.6670   -0.4520    0.5890 h1        1 NI8      0.064700
     31 H2          2.1980    0.6180   -0.1930 h1        1 NI8      0.064700
     32 H5          2.8200   -1.9820    1.7410 h1        1 NI8      0.072450
     33 H5A         2.7080   -1.0780    3.3310 h1        1 NI8      0.072450
     34 H7          3.9700    1.1390    3.5220 ha        1 NI8      0.153500
     35 H9          6.2840    2.1160    4.5340 h1        1 NI8      0.037200
     36 H9A         5.6410    3.2690    3.2660 h1        1 NI8      0.037200
     37 H10         7.8040    1.1150    1.5090 ha        1 NI8      0.156000
     38 H11         7.0530   -0.8210    0.1190 ha        1 NI8      0.133500
     39 H12         4.7690   -1.7700    0.4240 ha        1 NI8      0.126500
     40 H18        -1.0900    3.4610    0.1950 h1        1 NI8      0.072450
     41 H18A       -1.1900    2.2960   -1.2170 h1        1 NI8      0.072450
     42 H20        -2.4010    2.8010    2.3300 ha        1 NI8      0.153500
     43 H22        -4.7980    3.4600    3.5510 h1        1 NI8      0.037200
     44 H22A       -4.1040    1.8780    4.1560 h1        1 NI8      0.037200
     45 H23        -6.2980    1.1320    1.4430 ha        1 NI8      0.156000
     46 H24        -5.5300    0.5950   -0.8740 ha        1 NI8      0.133500
     47 H25        -3.2070    1.1500   -1.5850 ha        1 NI8      0.126500
     48 H26         1.3980   -2.3580    0.0470 h1        1 NI8      0.060200
     49 H26A        2.6800   -1.5490   -0.9650 h1        1 NI8      0.060200
     50 HN27        0.1560   -2.1060   -1.8070 hn        1 NI8      0.359800
     51 H28         0.2900    0.7240   -2.1280 h1        1 NI8      0.060200
     52 H28A       -1.1830   -0.2850   -1.7600 h1        1 NI8      0.060200
     53 HO29       -6.3470    2.0990    4.5620 ho        1 NI8      0.405000
     54 HO30        7.8720    3.5480    3.6870 ho        1 NI8      0.405000
@<TRIPOS>BOND
     1    1    2 1   
     2    1   16 1   
     3    1   27 1   
     4    1   30 1   
     5    2    3 1   
     6    2   25 1   
     7    2   31 1   
     8    3    4 1   
     9    3   12 1   
    10    4    5 1   
    11    4   32 1   
    12    4   33 1   
    13    5    6 ar  
    14    5   11 ar  
    15    6    7 ar  
    16    6   34 1   
    17    7    8 1   
    18    7    9 ar  
    19    8   29 1   
    20    8   35 1   
    21    8   36 1   
    22    9   10 ar  
    23    9   37 1   
    24   10   11 ar  
    25   10   38 1   
    26   11   39 1   
    27   12   13 2   
    28   12   14 1   
    29   14   15 2   
    30   14   16 1   
    31   16   17 1   
    32   17   18 1   
    33   17   40 1   
    34   17   41 1   
    35   18   19 ar  
    36   18   24 ar  
    37   19   20 ar  
    38   19   42 1   
    39   20   21 1   
    40   20   22 ar  
    41   21   28 1   
    42   21   43 1   
    43   21   44 1   
    44   22   23 ar  
    45   22   45 1   
    46   23   24 ar  
    47   23   46 1   
    48   24   47 1   
    49   25   26 1   
    50   25   48 1   
    51   25   49 1   
    52   26   27 1   
    53   26   50 1   
    54   27   51 1   
    55   27   52 1   
    56   28   53 1   
    57   29   54 1   
@<TRIPOS>SUBSTRUCTURE
     1 NI8         1 TEMP              0 ****  ****    0 ROOT
