@<TRIPOS>MOLECULE
NI8
   54    57     1     0     0
SMALL
bcc


@<TRIPOS>ATOM
      1 C1          0.7780   -1.5680    0.1570 c3        1 NI8      0.057700
      2 C2         -0.7740   -1.5500   -0.1000 c3        1 NI8      0.057700
      3 N3         -1.1200   -0.4000   -0.8930 n         1 NI8     -0.445300
      4 C5         -2.3150   -0.4150   -1.7050 c3        1 NI8      0.137300
      5 C6         -3.6100   -0.2800   -0.9540 ca        1 NI8     -0.129300
      6 C7         -3.9620    0.9530   -0.4000 ca        1 NI8     -0.113000
      7 C8         -5.1800    1.1010    0.2730 ca        1 NI8     -0.087800
      8 C9         -5.5160    2.4390    0.8450 c3        1 NI8      0.174700
      9 C10        -6.0460    0.0090    0.3860 ca        1 NI8     -0.093500
     10 C11        -5.6930   -1.2210   -0.1690 ca        1 NI8     -0.136500
     11 C12        -4.4790   -1.3690   -0.8360 ca        1 NI8     -0.120500
     12 C13        -0.5330    0.8020   -0.5020 c         1 NI8      0.630500
     13 O14        -0.8400    1.8850   -1.0230 o         1 NI8     -0.581500
     14 C15         0.5760    0.7870    0.5770 c         1 NI8      0.630500
     15 O16         0.8970    1.8600    1.1100 o         1 NI8     -0.581500
     16 N17         1.1480   -0.4270    0.9580 n         1 NI8     -0.445300
     17 C18         2.3790   -0.4520    1.7160 c3        1 NI8      0.137300
     18 C19         3.6400   -0.2980    0.9140 ca        1 NI8     -0.129300
     19 C20         3.9940    0.9600    0.4180 ca        1 NI8     -0.113000
     20 C21         5.1830    1.1230   -0.3020 ca        1 NI8     -0.087800
     21 C22         5.5170    2.4850   -0.8150 c3        1 NI8      0.174700
     22 C23         6.0180    0.0230   -0.5210 ca        1 NI8     -0.093500
     23 C24         5.6620   -1.2310   -0.0250 ca        1 NI8     -0.136500
     24 C25         4.4760   -1.3950    0.6880 ca        1 NI8     -0.120500
     25 C26        -0.9870   -2.9850   -0.6500 c3        1 NI8      0.147300
     26 N27        -0.0380   -3.8480    0.0590 n3        1 NI8     -0.794200
     27 C28         0.9780   -3.0060    0.7050 c3        1 NI8      0.147300
     28 O29         6.7600    2.4420   -1.5020 oh        1 NI8     -0.601800
     29 O30        -6.7390    2.3550    1.5620 oh        1 NI8     -0.601800
     30 H1          1.3220   -1.5160   -0.8360 h1        1 NI8      0.064700
     31 H2         -1.3200   -1.4880    0.8920 h1        1 NI8      0.064700
     32 H5         -2.2350    0.4410   -2.4390 h1        1 NI8      0.072450
     33 H5A        -2.3150   -1.3840   -2.2840 h1        1 NI8      0.072450
     34 H7         -3.2730    1.8090   -0.4980 ha        1 NI8      0.153500
     35 H9         -4.6940    2.7740    1.5360 h1        1 NI8      0.037200
     36 H9A        -5.6180    3.1900    0.0120 h1        1 NI8      0.037200
     37 H10        -7.0050    0.1290    0.9150 ha        1 NI8      0.156000
     38 H11        -6.3780   -2.0770   -0.0800 ha        1 NI8      0.133500
     39 H12        -4.2060   -2.3410   -1.2720 ha        1 NI8      0.126500
     40 H18         2.3260    0.3910    2.4670 h1        1 NI8      0.072450
     41 H18A        2.4090   -1.4290    2.2780 h1        1 NI8      0.072450
     42 H20         3.3290    1.8210    0.5980 ha        1 NI8      0.153500
     43 H22         4.7090    2.8340   -1.5160 h1        1 NI8      0.037200
     44 H22A        5.5870    3.2080    0.0450 h1        1 NI8      0.037200
     45 H23         6.9540    0.1560   -1.0860 ha        1 NI8      0.156000
     46 H24         6.3220   -2.0940   -0.1990 ha        1 NI8      0.133500
     47 H25         4.2000   -2.3880    1.0740 ha        1 NI8      0.126500
     48 H26        -2.0490   -3.3130   -0.5050 h1        1 NI8      0.060200
     49 H26A       -0.7420   -3.0360   -1.7450 h1        1 NI8      0.060200
     50 HN27       -0.5130   -4.4000    0.7480 hn        1 NI8      0.359800
     51 H28         1.9900   -3.3940    0.4090 h1        1 NI8      0.060200
     52 H28A        0.9030   -3.0300    1.8250 h1        1 NI8      0.060200
     53 HO29        6.9190    3.3370   -1.8240 ho        1 NI8      0.405000
     54 HO30       -6.9040    3.2370    1.9150 ho        1 NI8      0.405000
@<TRIPOS>BOND
     1    1    2 1   
     2    1   16 1   
     3    1   27 1   
     4    1   30 1   
     5    2    3 1   
     6    2   25 1   
     7    2   31 1   
     8    3    4 1   
     9    3   12 1   
    10    4    5 1   
    11    4   32 1   
    12    4   33 1   
    13    5    6 ar  
    14    5   11 ar  
    15    6    7 ar  
    16    6   34 1   
    17    7    8 1   
    18    7    9 ar  
    19    8   29 1   
    20    8   35 1   
    21    8   36 1   
    22    9   10 ar  
    23    9   37 1   
    24   10   11 ar  
    25   10   38 1   
    26   11   39 1   
    27   12   13 2   
    28   12   14 1   
    29   14   15 2   
    30   14   16 1   
    31   16   17 1   
    32   17   18 1   
    33   17   40 1   
    34   17   41 1   
    35   18   19 ar  
    36   18   24 ar  
    37   19   20 ar  
    38   19   42 1   
    39   20   21 1   
    40   20   22 ar  
    41   21   28 1   
    42   21   43 1   
    43   21   44 1   
    44   22   23 ar  
    45   22   45 1   
    46   23   24 ar  
    47   23   46 1   
    48   24   47 1   
    49   25   26 1   
    50   25   48 1   
    51   25   49 1   
    52   26   27 1   
    53   26   50 1   
    54   27   51 1   
    55   27   52 1   
    56   28   53 1   
    57   29   54 1   
@<TRIPOS>SUBSTRUCTURE
     1 NI8         1 TEMP              0 ****  ****    0 ROOT
