@<TRIPOS>MOLECULE
NI8
   54    57     1     0     0
SMALL
bcc


@<TRIPOS>ATOM
      1 C1          0.0180    0.2530    0.0180 c3        1 NI8      0.057700
      2 C2          1.5150   -0.1520    0.2820 c3        1 NI8      0.057700
      3 N3          1.7610   -0.1900    1.7030 n         1 NI8     -0.445300
      4 C5          2.8660   -0.9660    2.2190 c3        1 NI8      0.137300
      5 C6          4.2320   -0.3790    1.9990 ca        1 NI8     -0.129300
      6 C7          4.6530    0.7010    2.7780 ca        1 NI8     -0.113000
      7 C8          5.9350    1.2360    2.6060 ca        1 NI8     -0.087800
      8 C9          6.3390    2.3930    3.4590 c3        1 NI8      0.174700
      9 C10         6.7950    0.6820    1.6530 ca        1 NI8     -0.093500
     10 C11         6.3720   -0.3960    0.8760 ca        1 NI8     -0.136500
     11 C12         5.0940   -0.9260    1.0440 ca        1 NI8     -0.120500
     12 C13         1.2500    0.8850    2.4320 c         1 NI8      0.630500
     13 O14         1.4860    1.0300    3.6410 o         1 NI8     -0.581500
     14 C15         0.3120    1.9000    1.7360 c         1 NI8      0.630500
     15 O16         0.0840    2.9810    2.3000 o         1 NI8     -0.581500
     16 N17        -0.2090    1.5980    0.4790 n         1 NI8     -0.445300
     17 C18        -1.2710    2.3890   -0.0970 c3        1 NI8      0.137300
     18 C19        -2.6630    2.0150    0.3290 ca        1 NI8     -0.129300
     19 C20        -3.0940    2.3170    1.6230 ca        1 NI8     -0.113000
     20 C21        -4.3990    2.0040    2.0200 ca        1 NI8     -0.087800
     21 C22        -4.8170    2.3500    3.4120 c3        1 NI8      0.174700
     22 C23        -5.2700    1.3890    1.1170 ca        1 NI8     -0.093500
     23 C24        -4.8380    1.0890   -0.1740 ca        1 NI8     -0.136500
     24 C25        -3.5380    1.3970   -0.5700 ca        1 NI8     -0.120500
     25 C26         1.6340   -1.4460   -0.5670 c3        1 NI8      0.147300
     26 N27         0.7260   -1.2840   -1.7100 n7        1 NI8     -0.794200
     27 C28        -0.1090   -0.1000   -1.4870 c3        1 NI8      0.147300
     28 O29        -6.1330    1.8690    3.6450 oh        1 NI8     -0.601800
     29 O30         7.6700    2.7750    3.1420 oh        1 NI8     -0.601800
     30 H1         -0.6690   -0.4490    0.5850 h1        1 NI8      0.064700
     31 H2          2.2000    0.6170   -0.1920 h1        1 NI8      0.064700
     32 H5          2.7010   -1.0840    3.3310 h1        1 NI8      0.072450
     33 H5A         2.8140   -1.9860    1.7400 h1        1 NI8      0.072450
     34 H7          3.9670    1.1300    3.5280 ha        1 NI8      0.153500
     35 H9          5.6430    3.2580    3.2770 h1        1 NI8      0.037200
     36 H9A         6.2790    2.1020    4.5450 h1        1 NI8      0.037200
     37 H10         7.8040    1.1030    1.5220 ha        1 NI8      0.156000
     38 H11         7.0510   -0.8300    0.1270 ha        1 NI8      0.133500
     39 H12         4.7650   -1.7750    0.4260 ha        1 NI8      0.126500
     40 H18        -1.1840    2.3020   -1.2190 h1        1 NI8      0.072450
     41 H18A       -1.0840    3.4660    0.1940 h1        1 NI8      0.072450
     42 H20        -2.3990    2.8060    2.3270 ha        1 NI8      0.153500
     43 H22        -4.1070    1.8830    4.1500 h1        1 NI8      0.037200
     44 H22A       -4.7950    3.4680    3.5450 h1        1 NI8      0.037200
     45 H23        -6.2970    1.1440    1.4330 ha        1 NI8      0.156000
     46 H24        -5.5270    0.6070   -0.8830 ha        1 NI8      0.133500
     47 H25        -3.2020    1.1590   -1.5910 ha        1 NI8      0.126500
     48 H26         1.3940   -2.3580    0.0430 h1        1 NI8      0.060200
     49 H26A        2.6790   -1.5500   -0.9650 h1        1 NI8      0.060200
     50 HN27        0.1560   -2.1020   -1.8120 hn        1 NI8      0.359800
     51 H28         0.2950    0.7280   -2.1300 h1        1 NI8      0.060200
     52 H28A       -1.1810   -0.2780   -1.7650 h1        1 NI8      0.060200
     53 HO29       -6.3490    2.1110    4.5530 ho        1 NI8      0.405000
     54 HO30        7.8730    3.5300    3.7050 ho        1 NI8      0.405000
@<TRIPOS>BOND
     1    1    2 1   
     2    1   16 1   
     3    1   27 1   
     4    1   30 1   
     5    2    3 1   
     6    2   25 1   
     7    2   31 1   
     8    3    4 1   
     9    3   12 1   
    10    4    5 1   
    11    4   32 1   
    12    4   33 1   
    13    5    6 ar  
    14    5   11 ar  
    15    6    7 ar  
    16    6   34 1   
    17    7    8 1   
    18    7    9 ar  
    19    8   29 1   
    20    8   35 1   
    21    8   36 1   
    22    9   10 ar  
    23    9   37 1   
    24   10   11 ar  
    25   10   38 1   
    26   11   39 1   
    27   12   13 2   
    28   12   14 1   
    29   14   15 2   
    30   14   16 1   
    31   16   17 1   
    32   17   18 1   
    33   17   40 1   
    34   17   41 1   
    35   18   19 ar  
    36   18   24 ar  
    37   19   20 ar  
    38   19   42 1   
    39   20   21 1   
    40   20   22 ar  
    41   21   28 1   
    42   21   43 1   
    43   21   44 1   
    44   22   23 ar  
    45   22   45 1   
    46   23   24 ar  
    47   23   46 1   
    48   24   47 1   
    49   25   26 1   
    50   25   48 1   
    51   25   49 1   
    52   26   27 1   
    53   26   50 1   
    54   27   51 1   
    55   27   52 1   
    56   28   53 1   
    57   29   54 1   
@<TRIPOS>SUBSTRUCTURE
     1 NI8         1 TEMP              0 ****  ****    0 ROOT
