@<TRIPOS>MOLECULE
NI8
   54    57     1     0     0
SMALL
bcc


@<TRIPOS>ATOM
      1 C1          0.0180    0.2530    0.0190 c3        1 NI8      0.057700
      2 C2          1.5100   -0.1630    0.2910 c3        1 NI8      0.057700
      3 N3          1.7510   -0.1950    1.7130 n         1 NI8     -0.445300
      4 C5          2.8470   -0.9770    2.2380 c3        1 NI8      0.137300
      5 C6          4.2180   -0.4040    2.0190 ca        1 NI8     -0.129300
      6 C7          4.6470    0.6770    2.7920 ca        1 NI8     -0.113000
      7 C8          5.9340    1.1990    2.6220 ca        1 NI8     -0.087800
      8 C9          6.3460    2.3580    3.4690 c3        1 NI8      0.174700
      9 C10         6.7920    0.6310    1.6750 ca        1 NI8     -0.093500
     10 C11         6.3630   -0.4480    0.9040 ca        1 NI8     -0.136500
     11 C12         5.0790   -0.9650    1.0700 ca        1 NI8     -0.120500
     12 C13         1.2460    0.8880    2.4340 c         1 NI8      0.630500
     13 O14         1.4800    1.0380    3.6430 o         1 NI8     -0.581500
     14 C15         0.3190    1.9070    1.7300 c         1 NI8      0.630500
     15 O16         0.0980    2.9930    2.2870 o         1 NI8     -0.581500
     16 N17        -0.2000    1.6020    0.4720 n         1 NI8     -0.445300
     17 C18        -1.2530    2.3990   -0.1120 c3        1 NI8      0.137300
     18 C19        -2.6500    2.0390    0.3100 ca        1 NI8     -0.129300
     19 C20        -3.0840    2.3520    1.6010 ca        1 NI8     -0.113000
     20 C21        -4.3930    2.0510    1.9950 ca        1 NI8     -0.087800
     21 C22        -4.8140    2.4090    3.3820 c3        1 NI8      0.174700
     22 C23        -5.2660    1.4380    1.0910 ca        1 NI8     -0.093500
     23 C24        -4.8300    1.1280   -0.1970 ca        1 NI8     -0.136500
     24 C25        -3.5260    1.4230   -0.5890 ca        1 NI8     -0.120500
     25 C26         1.6210   -1.4620   -0.5500 c3        1 NI8      0.147300
     26 N27         0.7190   -1.2990   -1.6970 n3        1 NI8     -0.794200
     27 C28        -0.1070   -0.1070   -1.4840 c3        1 NI8      0.147300
     28 O29        -6.1330    1.9360    3.6140 oh        1 NI8     -0.601800
     29 O30         7.6810    2.7270    3.1530 oh        1 NI8     -0.601800
     30 H1         -0.6770   -0.4400    0.5880 h1        1 NI8      0.064700
     31 H2          2.2030    0.5970   -0.1840 h1        1 NI8      0.064700
     32 H5          2.7880   -2.0000    1.7650 h1        1 NI8      0.072450
     33 H5A         2.6770   -1.0880    3.3500 h1        1 NI8      0.072450
     34 H7          3.9620    1.1170    3.5380 ha        1 NI8      0.153500
     35 H9          5.6570    3.2280    3.2800 h1        1 NI8      0.037200
     36 H9A         6.2800    2.0740    4.5560 h1        1 NI8      0.037200
     37 H10         7.8060    1.0430    1.5450 ha        1 NI8      0.156000
     38 H11         7.0410   -0.8920    0.1600 ha        1 NI8      0.133500
     39 H12         4.7450   -1.8150    0.4570 ha        1 NI8      0.126500
     40 H18        -1.0590    3.4760    0.1740 h1        1 NI8      0.072450
     41 H18A       -1.1630    2.3050   -1.2330 h1        1 NI8      0.072450
     42 H20        -2.3880    2.8380    2.3050 ha        1 NI8      0.153500
     43 H22        -4.1090    1.9430    4.1260 h1        1 NI8      0.037200
     44 H22A       -4.7860    3.5270    3.5080 h1        1 NI8      0.037200
     45 H23        -6.2950    1.2040    1.4050 ha        1 NI8      0.156000
     46 H24        -5.5210    0.6480   -0.9060 ha        1 NI8      0.133500
     47 H25        -3.1890    1.1770   -1.6070 ha        1 NI8      0.126500
     48 H26         1.3710   -2.3690    0.0640 h1        1 NI8      0.060200
     49 H26A        2.6670   -1.5780   -0.9440 h1        1 NI8      0.060200
     50 HN27        0.1420   -2.1130   -1.7970 hn        1 NI8      0.359800
     51 H28        -1.1790   -0.2780   -1.7650 h1        1 NI8      0.060200
     52 H28A        0.3060    0.7140   -2.1300 h1        1 NI8      0.060200
     53 HO29       -6.3510    2.1850    4.5200 ho        1 NI8      0.405000
     54 HO30        7.8880    3.4840    3.7120 ho        1 NI8      0.405000
@<TRIPOS>BOND
     1    1    2 1   
     2    1   16 1   
     3    1   27 1   
     4    1   30 1   
     5    2    3 1   
     6    2   25 1   
     7    2   31 1   
     8    3    4 1   
     9    3   12 1   
    10    4    5 1   
    11    4   32 1   
    12    4   33 1   
    13    5    6 ar  
    14    5   11 ar  
    15    6    7 ar  
    16    6   34 1   
    17    7    8 1   
    18    7    9 ar  
    19    8   29 1   
    20    8   35 1   
    21    8   36 1   
    22    9   10 ar  
    23    9   37 1   
    24   10   11 ar  
    25   10   38 1   
    26   11   39 1   
    27   12   13 2   
    28   12   14 1   
    29   14   15 2   
    30   14   16 1   
    31   16   17 1   
    32   17   18 1   
    33   17   40 1   
    34   17   41 1   
    35   18   19 ar  
    36   18   24 ar  
    37   19   20 ar  
    38   19   42 1   
    39   20   21 1   
    40   20   22 ar  
    41   21   28 1   
    42   21   43 1   
    43   21   44 1   
    44   22   23 ar  
    45   22   45 1   
    46   23   24 ar  
    47   23   46 1   
    48   24   47 1   
    49   25   26 1   
    50   25   48 1   
    51   25   49 1   
    52   26   27 1   
    53   26   50 1   
    54   27   51 1   
    55   27   52 1   
    56   28   53 1   
    57   29   54 1   
@<TRIPOS>SUBSTRUCTURE
     1 NI8         1 TEMP              0 ****  ****    0 ROOT
