@<TRIPOS>MOLECULE
NI8
   54    53     1     0     0
SMALL
bcc


@<TRIPOS>ATOM
      1 C1          0.0510    0.1910   -2.4020 c3        1 NI8     -0.000500
      2 C2          0.9500   -0.6820   -1.7880 c3        1 NI8     -0.000500
      3 N3          1.8330   -0.0480   -0.5040 n         1 NI8     -0.318000
      4 C5          3.1660   -0.6340   -0.1280 c3        1 NI8      0.016000
      5 C6          3.2820   -0.6950    1.3380 c2        1 NI8     -0.113000
      6 C7          2.9720   -1.8950    2.0180 c2        1 NI8     -0.115500
      7 C8          3.2900   -2.0310    3.3670 c1        1 NI8     -0.099500
      8 C9          2.9830   -3.3320    4.0950 c2        1 NI8      0.018000
      9 C10         3.9180   -0.9780    4.0510 c2        1 NI8     -0.100500
     10 C11         4.2230    0.2050    3.3810 c1        1 NI8     -0.132000
     11 C12         3.9040    0.3460    2.0200 c1        1 NI8     -0.118000
     12 C13         1.5540    0.2090   -0.1580 c2        1 NI8      0.293000
     13 O14         1.4060   -0.2470    0.9690 o         1 NI8     -0.312000
     14 C15         0.4090    1.0490   -0.8200 c2        1 NI8      0.293000
     15 O16        -0.3060    1.7020   -0.1270 o         1 NI8     -0.312000
     16 N17        -0.1960    0.3780   -2.1630 n         1 NI8     -0.318000
     17 C18        -1.5480    0.8870   -2.7260 c3        1 NI8      0.016000
     18 C19        -2.5510    1.1080   -1.5630 c2        1 NI8     -0.113000
     19 C20        -2.8570    2.3930   -1.1780 c2        1 NI8     -0.115500
     20 C21        -3.9530    2.6330   -0.3450 c1        1 NI8     -0.099500
     21 C22        -4.4190    4.0640   -0.1080 c2        1 NI8      0.018000
     22 C23        -4.7290    1.5790    0.0920 c2        1 NI8     -0.100500
     23 C24        -4.4200    0.2850   -0.2950 c1        1 NI8     -0.132000
     24 C25        -3.3320    0.0480   -1.1220 c1        1 NI8     -0.118000
     25 C26         0.3920   -1.7440   -1.6860 c3        1 NI8     -0.111500
     26 N27        -0.6060   -1.8010   -2.9480 n3        1 NI8     -0.270000
     27 C28        -1.0300   -0.7780   -3.0440 c3        1 NI8     -0.111500
     28 O29        -5.3040    4.4610   -1.1680 oh        1 NI8     -0.322500
     29 O30         4.0820   -3.6920    4.8890 oh        1 NI8     -0.322500
     30 H1          0.4670    0.7770   -3.0680 h1        1 NI8      0.106500
     31 H2          1.6510   -0.8450   -2.4940 h1        1 NI8      0.106500
     32 H5          3.2420   -1.5250   -0.4930 h1        1 NI8      0.109000
     33 H5A         3.8990   -0.0590   -0.4950 h1        1 NI8      0.109000
     34 H7          2.6270   -2.6490    1.5290 ha        1 NI8      0.142000
     35 H9          2.8020   -4.0510    3.4320 h4        1 NI8      0.082000
     36 H9A         2.1960   -3.2090    4.6650 h4        1 NI8      0.082000
     37 H10         4.1450   -1.0770    5.0140 ha        1 NI8      0.146000
     38 H11         4.6470    0.9140    3.8430 ha        1 NI8      0.136500
     39 H12         4.1280    1.2100    1.5350 ha        1 NI8      0.144000
     40 H18        -1.4010    1.7590   -3.2120 h1        1 NI8      0.109000
     41 H18A       -1.9100    0.2290   -3.3460 h1        1 NI8      0.109000
     42 H20        -2.3240    3.1200   -1.4850 ha        1 NI8      0.142000
     43 H22        -4.8970    4.1180    0.7600 h4        1 NI8      0.082000
     44 H22A       -3.6550    4.6530   -0.0910 h4        1 NI8      0.082000
     45 H23        -5.4990    1.7460    0.6770 ha        1 NI8      0.146000
     46 H24        -4.9760   -0.4680    0.0180 ha        1 NI8      0.136500
     47 H25        -3.1140   -0.8700   -1.3960 ha        1 NI8      0.144000
     48 H26        -0.1140   -1.7880   -0.8410 h1        1 NI8      0.105250
     49 H26A        1.0190   -2.4530   -1.7320 h1        1 NI8      0.105250
     50 HN27       -1.3000   -2.4130   -2.7700 hn        1 NI8      0.161000
     51 H28        -1.8760   -0.7120   -2.5520 h1        1 NI8      0.105250
     52 H28A       -1.1710   -0.5560   -3.9980 h1        1 NI8      0.105250
     53 HO29       -5.5490    5.3150   -1.0480 ho        1 NI8      0.203500
     54 HO30        3.7990   -4.1490    5.6010 ho        1 NI8      0.203500
@<TRIPOS>BOND
     1    1    2 1   
     2    1   16 1   
     3    1   27 1   
     4    1   30 1   
     5    2    3 1   
     6    2   25 1   
     7    2   31 1   
     8    3    4 1   
     9    3   12 1   
    10    4    5 1   
    11    4   32 1   
    12    4   33 1   
    13    5    6 1   
    14    5   11 1   
    15    6    7 1   
    16    6   34 1   
    17    7    9 1   
    18    8   29 1   
    19    8   35 1   
    20    8   36 1   
    21    9   10 1   
    22    9   37 1   
    23   10   38 1   
    24   11   39 1   
    25   12   13 1   
    26   12   14 1   
    27   14   15 1   
    28   14   16 1   
    29   16   17 1   
    30   17   18 1   
    31   17   40 1   
    32   17   41 1   
    33   18   19 1   
    34   18   24 1   
    35   19   20 1   
    36   19   42 1   
    37   20   22 1   
    38   21   28 1   
    39   21   43 1   
    40   21   44 1   
    41   22   23 1   
    42   22   45 1   
    43   23   46 1   
    44   24   47 1   
    45   25   26 1   
    46   25   48 1   
    47   25   49 1   
    48   26   27 1   
    49   26   50 1   
    50   27   51 1   
    51   27   52 1   
    52   28   53 1   
    53   29   54 1   
@<TRIPOS>SUBSTRUCTURE
     1 NI8         1 TEMP              0 ****  ****    0 ROOT
