@<TRIPOS>MOLECULE
NI9
   25    21     1     0     0
SMALL
bcc


@<TRIPOS>ATOM
      1 C1        -49.6610  -85.8600 -116.7850 c1        1 NI9     -0.003000
      2 O1        -52.0990  -87.6050 -115.4980 o         1 NI9     -1.141333
      3 O2        -49.7420  -85.3390 -117.9630 oh        1 NI9     -0.167000
      4 C2        -48.6620  -85.3910 -115.7660 c3        1 NI9     -0.243000
      5 O3        -49.6420  -88.0120 -114.9540 o         1 NI9     -1.141333
      6 C3        -47.4210  -83.4030 -116.4510 c2        1 NI9     -0.096000
      7 P1        -50.8070  -83.2080 -119.0380 p3        1 NI9      2.432000
      8 P2        -50.7600  -88.0470 -115.9320 p3        1 NI9      2.432000
      9 O4        -50.2390  -83.0120 -117.6840 o         1 NI9     -1.141333
     10 O5        -50.5970  -88.8590 -117.1540 o         1 NI9     -1.141333
     11 O6        -49.8740  -83.7430 -120.0440 o         1 NI9     -1.141333
     12 O7        -52.1470  -82.7190 -119.3940 o         1 NI9     -1.141333
     13 N         -47.3890  -84.7940 -116.1690 n3        1 NI9     -0.098000
     14 C4        359.6190  631.6910  867.0430 c1        1 NI9     -0.393000
     15 C5        -46.2520  -85.4480 -116.2210 c1        1 NI9     -0.225000
     16 C6        359.1730  631.0080  866.1350 c1        1 NI9     -0.699000
     17 C7        -46.2920  -82.6610 -116.5630 c2        1 NI9     -0.067000
     18 HO2       -49.0590  -84.6650 -118.2030 ho        1 NI9      0.236000
     19 H21       -48.4430  -86.3140 -115.1300 h1        1 NI9      0.172500
     20 H22       -49.2410  -84.6640 -115.1210 h1        1 NI9      0.172500
     21 H3        -48.4430  -82.9740 -116.5840 h4        1 NI9      0.233000
     22 H4        -45.2710  -83.0660 -116.4740 h4        1 NI9      0.153000
     23 H5        358.7860  630.4150  865.3480 ha        1 NI9      0.092000
     24 H6        -46.3060  -86.5310 -115.9820 ha        1 NI9      0.057000
     25 F         -46.3390  -81.3330 -116.8210 f         1 NI9     -0.140000
@<TRIPOS>BOND
     1    1    3 1   
     2    1    4 1   
     3    2    8 1   
     4    3   18 1   
     5    4   13 1   
     6    4   19 1   
     7    4   20 1   
     8    5    8 1   
     9    6   13 1   
    10    6   17 1   
    11    6   21 1   
    12    7    9 1   
    13    7   11 1   
    14    7   12 1   
    15    8   10 1   
    16   13   15 1   
    17   14   16 1   
    18   15   24 1   
    19   16   23 1   
    20   17   22 1   
    21   17   25 1   
@<TRIPOS>SUBSTRUCTURE
     1 NI9         1 TEMP              0 ****  ****    0 ROOT
