@<TRIPOS>MOLECULE
NI9
   25    23     1     0     0
SMALL
bcc


@<TRIPOS>ATOM
      1 C1         -0.2380   -0.7650   -1.2210 c3        1 NI9     -0.209000
      2 O1         -0.8670   -3.4440   -1.3490 o         1 NI9     -0.828500
      3 O2          0.8770    0.0950   -1.3350 oh        1 NI9     -0.201000
      4 C2         -0.7490   -0.7520    0.2270 c3        1 NI9     -0.119000
      5 O3          1.5040   -2.8770   -0.9090 o         1 NI9     -0.828500
      6 C3         -0.6640    1.4750    1.2150 c1        1 NI9     -0.343000
      7 P1         -1.5680   -0.1920   -2.3410 p5        1 NI9      1.471500
      8 P2          0.2590   -2.4840   -1.6830 p5        1 NI9      1.471500
      9 O4         -2.8540   -0.8950   -1.9950 o         1 NI9     -0.828500
     10 O5          0.5490   -2.5420   -3.1640 o         1 NI9     -0.828500
     11 O6         -1.7530    1.3020   -2.1820 o         1 NI9     -0.828500
     12 O7         -1.1920   -0.5040   -3.7700 o         1 NI9     -0.828500
     13 N          -0.0540    0.2750    0.9740 n3        1 NI9     -0.102000
     14 F          -0.6430    3.5490    2.4000 f         1 NI9     -0.182000
     15 C4          1.1930    2.1620    2.5440 c1        1 NI9     -0.499000
     16 C5          1.1710    0.0130    1.5110 c2        1 NI9     -0.299000
     17 C6          1.8010    0.9640    2.3030 c1        1 NI9     -0.032000
     18 C7         -0.0370    2.4250    2.0050 c1        1 NI9      0.156000
     19 HO2         1.2340    0.0140   -2.1520 ho        1 NI9      0.304000
     20 H21        -1.7110   -0.5660    0.2320 h1        1 NI9      0.104000
     21 H22        -0.5840   -1.6240    0.6400 h1        1 NI9      0.104000
     22 H3         -1.5680    1.6380    0.8800 ha        1 NI9      0.104000
     23 H4          1.6120    2.8100    3.1450 ha        1 NI9      0.086000
     24 H5          1.6060   -0.8490    1.3390 h4        1 NI9      0.094000
     25 H6          2.6770    0.7750    2.6860 ha        1 NI9      0.062000
@<TRIPOS>BOND
     1    1    3 1   
     2    1    4 1   
     3    1    7 1   
     4    1    8 1   
     5    2    8 1   
     6    3   19 1   
     7    4   13 1   
     8    4   20 1   
     9    4   21 1   
    10    5    8 1   
    11    6   13 1   
    12    6   22 1   
    13    7    9 1   
    14    7   11 1   
    15    7   12 1   
    16    8   10 1   
    17   13   16 1   
    18   14   18 1   
    19   15   18 1   
    20   15   23 1   
    21   16   17 1   
    22   16   24 1   
    23   17   25 1   
@<TRIPOS>SUBSTRUCTURE
     1 NI9         1 TEMP              0 ****  ****    0 ROOT
