@<TRIPOS>MOLECULE
NI9
   25    24     1     0     0
SMALL
bcc


@<TRIPOS>ATOM
      1 C1          0.7420   -1.9820   -0.1800 c2        1 NI9     -0.328000
      2 O1          3.2430   -0.7070   -3.4890 o         1 NI9     -1.153000
      3 O2          1.1220   -1.6260   -1.3060 o         1 NI9     -0.352000
      4 C2         -0.0650   -1.1750    0.7960 c3        1 NI9     -0.177000
      5 O3          0.9680   -1.2480   -4.4650 o         1 NI9     -1.153000
      6 C3         -0.6070    0.9260    1.7980 c2        1 NI9     -0.359000
      7 P1          1.0270   -3.5460    0.4820 p5        1 NI9      1.951000
      8 P2          2.1090   -1.6470   -3.6150 p3        1 NI9      2.458000
      9 O4          1.5650   -3.4170    1.8620 o         1 NI9     -0.865500
     10 O5          2.3250   -3.0810   -3.3260 o         1 NI9     -1.153000
     11 O6         -0.1710   -4.3870    0.2240 o         1 NI9     -0.865500
     12 O7          2.2480   -4.1460   -0.4060 oh        1 NI9     -0.843000
     13 N          -0.2310    0.2740    0.5750 na        1 NI9     -0.077000
     14 C4         -2.7730    1.6800    0.9530 c2        1 NI9     -0.525000
     15 C5         -1.1750    0.5340   -0.4750 c2        1 NI9     -0.240000
     16 C6         -2.3680    1.1700   -0.3070 c2        1 NI9     -0.078000
     17 C7         -1.8240    1.5540    1.9900 c2        1 NI9      0.133000
     18 HO2         2.1920   -4.0100   -1.3510 ho        1 NI9      0.276000
     19 H21        -1.0500   -1.7300    0.8630 h1        1 NI9      0.094500
     20 H22         0.4620   -1.3150    1.7890 h1        1 NI9      0.094500
     21 H3          0.1650    0.9040    2.5740 h4        1 NI9      0.101000
     22 H4         -3.7330    2.1670    1.1040 ha        1 NI9      0.070000
     23 H5         -0.8220    0.1670   -1.4510 h4        1 NI9      0.135000
     24 H6         -3.0220    1.3390   -1.1750 ha        1 NI9      0.059000
     25 F          -2.0890    2.1350    3.2040 f         1 NI9     -0.201000
@<TRIPOS>BOND
     1    1    3 1   
     2    1    4 1   
     3    1    7 1   
     4    2    8 1   
     5    4   13 1   
     6    4   19 1   
     7    4   20 1   
     8    5    8 1   
     9    6   13 1   
    10    6   17 1   
    11    6   21 1   
    12    7    9 1   
    13    7   11 1   
    14    7   12 1   
    15    8   10 1   
    16   12   18 1   
    17   13   15 1   
    18   14   16 1   
    19   14   17 1   
    20   14   22 1   
    21   15   16 1   
    22   15   23 1   
    23   16   24 1   
    24   17   25 1   
@<TRIPOS>SUBSTRUCTURE
     1 NI9         1 TEMP              0 ****  ****    0 ROOT
