@<TRIPOS>MOLECULE
NIA
   33    34     1     0     0
SMALL
bcc


@<TRIPOS>ATOM
      1 O8          0.1270    0.8990    1.4230 o         1 NIA     -0.929167
      2 P           1.6170    1.0500    1.3760 p5        1 NIA      1.337900
      3 O6          2.1010    2.4560    1.6860 o         1 NIA     -0.929167
      4 O7          2.4750   -0.0770    1.8550 o         1 NIA     -0.929167
      5 O5'         1.9110    1.0860   -0.3470 os        1 NIA     -0.555200
      6 C5'         1.2200    2.0640   -1.0060 c3        1 NIA      0.239400
      7 C4'         2.1490    3.2720   -1.2880 c3        1 NIA      0.067100
      8 C3'         2.0440    4.3930   -0.2370 c3        1 NIA      0.137100
      9 O3'         3.2630    4.5470    0.4520 oh        1 NIA     -0.693800
     10 C2'         1.7550    5.6860   -1.0300 c3        1 NIA      0.088100
     11 O2'         2.6510    6.7560   -0.8260 oh        1 NIA     -0.646800
     12 O4'         1.8280    3.8330   -2.5910 os        1 NIA     -0.435600
     13 C1'         1.8360    5.2490   -2.5300 c3        1 NIA      0.219800
     14 N1          0.7490    5.7670   -3.3510 na        1 NIA     -0.232900
     15 C5          0.5410    7.1210   -3.6330 cc        1 NIA      0.159000
     16 N6          1.3310    8.1640   -3.2210 nv        1 NIA     -0.819200
     17 C4         -0.6010    7.1470   -4.5250 cd        1 NIA      0.075800
     18 N7         -1.1980    8.3370   -5.0690 no        1 NIA      0.265500
     19 O72        -0.7600    9.4180   -4.7200 o         1 NIA     -0.265500
     20 O71        -2.1130    8.2810   -5.8500 o         1 NIA     -0.265500
     21 N3         -1.0530    5.8240   -4.7680 nd        1 NIA     -0.619000
     22 C2         -0.2370    5.0400   -4.0580 cc        1 NIA      0.440400
     23 H5'1        0.3250    2.4030   -0.4120 h1        1 NIA      0.002700
     24 H5'2        0.8740    1.6790   -2.0100 h1        1 NIA      0.002700
     25 H4'         3.2120    2.9130   -1.3630 h1        1 NIA      0.075700
     26 H3'         1.2180    4.1800    0.4990 h1        1 NIA      0.129700
     27 H1          3.2630    3.8340    1.1400 ho        1 NIA      0.521000
     28 H2'         0.7390    6.0850   -0.7660 h1        1 NIA      0.065700
     29 H2          3.4330    6.4160   -0.3660 ho        1 NIA      0.447000
     30 H1'         2.8000    5.6230   -2.9920 h2        1 NIA      0.058700
     31 HN61        1.9010    8.0150   -2.4140 hn        1 NIA      0.445300
     32 HN62        0.9080    9.0630   -3.3120 hn        1 NIA      0.445300
     33 H3         -0.2730    3.9430   -3.9770 h5        1 NIA      0.099100
@<TRIPOS>BOND
     1    1    2 1   
     2    2    3 1   
     3    2    4 1   
     4    2    5 1   
     5    5    6 1   
     6    6    7 1   
     7    6   23 1   
     8    6   24 1   
     9    7    8 1   
    10    7   12 1   
    11    7   25 1   
    12    8    9 1   
    13    8   10 1   
    14    8   26 1   
    15    9   27 1   
    16   10   11 1   
    17   10   13 1   
    18   10   28 1   
    19   11   29 1   
    20   12   13 1   
    21   13   14 1   
    22   13   30 1   
    23   14   15 1   
    24   14   22 1   
    25   15   16 1   
    26   15   17 2   
    27   16   31 1   
    28   16   32 1   
    29   17   18 1   
    30   17   21 1   
    31   18   19 1   
    32   18   20 1   
    33   21   22 2   
    34   22   33 1   
@<TRIPOS>SUBSTRUCTURE
     1 NIA         1 TEMP              0 ****  ****    0 ROOT
