@<TRIPOS>MOLECULE
NIA
   33    31     1     0     0
SMALL
bcc


@<TRIPOS>ATOM
      1 O8         -5.0260    1.9390    0.2510 o         1 NIA     -0.740500
      2 P          -3.5160    1.9010    0.2340 p5        1 NIA      1.584500
      3 O6         -2.9850    2.4370    1.5420 o         1 NIA     -0.740500
      4 O7         -3.0040    2.7520   -0.9030 o         1 NIA     -0.740500
      5 O5'        -3.0280    0.4110    0.0380 os        1 NIA     -0.750000
      6 C5'        -1.6560    0.1280    0.1890 c3        1 NIA      0.033000
      7 C4'        -1.3850   -1.2580   -0.2610 c3        1 NIA      0.086000
      8 C3'        -1.1400   -2.0360    0.7810 c3        1 NIA     -0.564000
      9 O3'        -1.5890   -3.4120    0.5070 oh        1 NIA     -0.322000
     10 C2'         0.3950   -1.9990    0.9550 c3        1 NIA      0.118000
     11 O2'         0.8740   -3.2310    1.0800 oh        1 NIA     -0.380000
     12 O4'        -0.0430   -1.2950   -1.1830 os        1 NIA     -0.344000
     13 C1'         0.9580   -1.3220   -0.3600 c3        1 NIA      0.085000
     14 N1          1.4040    0.0040   -0.0810 n3        1 NIA     -0.176000
     15 C5          1.9430    0.8510   -0.9620 c1        1 NIA      0.196000
     16 N6          2.1370    0.6050   -2.3460 n2        1 NIA     -0.319000
     17 C4          2.2860    1.9950   -0.2930 c1        1 NIA     -0.341000
     18 N7          2.9350    3.1270   -0.8530 n2        1 NIA      0.521400
     19 O72         3.5990    3.8650   -0.1400 o         1 NIA     -0.374200
     20 O71         2.8480    3.3690   -2.1940 o         1 NIA     -0.374200
     21 N3          1.9530    1.8370    0.9910 n2        1 NIA     -0.099000
     22 C2          1.4060    0.6050    1.1340 c1        1 NIA     -0.086000
     23 H5'1       -1.4060    0.2200    1.1320 h1        1 NIA      0.057000
     24 H5'2       -1.1320    0.7550   -0.3510 h1        1 NIA      0.057000
     25 H4'        -2.1490   -1.6030   -0.7650 h1        1 NIA      0.090000
     26 H3'        -1.5820   -1.6850    1.5790 h1        1 NIA      0.260000
     27 H1         -2.2470   -3.6260    1.0660 ho        1 NIA      0.174000
     28 H2'         0.6320   -1.4640    1.7380 h1        1 NIA      0.084000
     29 H2          1.3580   -3.2870    1.8240 ho        1 NIA      0.214000
     30 H1'         1.6890   -1.8570   -0.7310 h2        1 NIA      0.084000
     31 HN61        1.5410    0.9320   -2.9570 hn        1 NIA      0.245000
     32 HN62        2.8620    0.1240   -2.6270 hn        1 NIA      0.245000
     33 H3          1.0690    0.2200    1.9640 DU        1 NIA      0.213000
@<TRIPOS>BOND
     1    1    2 1   
     2    2    3 1   
     3    2    4 1   
     4    2    5 1   
     5    5    6 1   
     6    6    7 1   
     7    6   23 1   
     8    6   24 1   
     9    7    8 1   
    10    7   12 1   
    11    7   25 1   
    12    8    9 1   
    13    8   10 1   
    14    8   26 1   
    15    9   27 1   
    16   10   11 1   
    17   10   13 1   
    18   10   28 1   
    19   11   29 1   
    20   12   13 1   
    21   13   14 1   
    22   13   30 1   
    23   14   15 1   
    24   14   22 1   
    25   15   17 1   
    26   16   31 1   
    27   16   32 1   
    28   17   21 1   
    29   18   19 2   
    30   18   20 2   
    31   21   22 1   
@<TRIPOS>SUBSTRUCTURE
     1 NIA         1 TEMP              0 ****  ****    0 ROOT
