@<TRIPOS>MOLECULE
NIA
   33    34     1     0     0
SMALL
bcc


@<TRIPOS>ATOM
      1 O8          0.0490    0.9490    1.4600 o         1 NIA     -0.929167
      2 P           1.5370    1.1300    1.4840 p5        1 NIA      1.337900
      3 O6          1.9770    2.5530    1.7860 o         1 NIA     -0.929167
      4 O7          2.3920    0.0320    2.0310 o         1 NIA     -0.929167
      5 O5'         1.9150    1.1340   -0.2230 os        1 NIA     -0.555200
      6 C5'         1.2390    2.0830   -0.9370 c3        1 NIA      0.239400
      7 C4'         2.1570    3.3030   -1.2010 c3        1 NIA      0.067100
      8 C3'         1.9790    4.4440   -0.1830 c3        1 NIA      0.137100
      9 O3'         3.1590    4.6380    0.5620 oh        1 NIA     -0.693800
     10 C2'         1.7050    5.7130   -1.0180 c3        1 NIA      0.088100
     11 O2'         2.5690    6.8060   -0.7950 oh        1 NIA     -0.646800
     12 O4'         1.8900    3.8290   -2.5310 os        1 NIA     -0.435600
     13 C1'         1.8680    5.2460   -2.5020 c3        1 NIA      0.219800
     14 N1          0.8150    5.7240   -3.3880 na        1 NIA     -0.232900
     15 C5          0.5970    7.0670   -3.7110 cc        1 NIA      0.159000
     16 N6          1.3470    8.1340   -3.2850 nh        1 NIA     -0.819200
     17 C4         -0.5000    7.0510   -4.6590 cd        1 NIA      0.075800
     18 N7         -1.0900    8.2170   -5.2590 no        1 NIA      0.265500
     19 O72        -0.6900    9.3130   -4.9150 o         1 NIA     -0.265500
     20 O71        -1.9640    8.1260   -6.0830 o         1 NIA     -0.265500
     21 N3         -0.9150    5.7150   -4.8920 nd        1 NIA     -0.619000
     22 C2         -0.1220    4.9620   -4.1250 cc        1 NIA      0.440400
     23 H5'1        0.9500    1.6690   -1.9480 h1        1 NIA      0.002700
     24 H5'2        0.3090    2.4160   -0.3960 h1        1 NIA      0.002700
     25 H4'         3.2290    2.9650   -1.2160 h1        1 NIA      0.075700
     26 H3'         1.1210    4.2310    0.5160 h1        1 NIA      0.129700
     27 H1          3.1380    3.9410    1.2650 ho        1 NIA      0.521000
     28 H2'         0.6690    6.0970   -0.8140 h1        1 NIA      0.065700
     29 H2          3.3330    6.4920   -0.2890 ho        1 NIA      0.447000
     30 H1'         2.8480    5.6280   -2.9240 h2        1 NIA      0.058700
     31 HN61        0.9130    9.0230   -3.4180 hn        1 NIA      0.445300
     32 HN62        1.8790    8.0140   -2.4470 hn        1 NIA      0.445300
     33 H3         -0.1420    3.8670   -4.0200 h5        1 NIA      0.099100
@<TRIPOS>BOND
     1    1    2 1   
     2    2    3 1   
     3    2    4 1   
     4    2    5 1   
     5    5    6 1   
     6    6    7 1   
     7    6   23 1   
     8    6   24 1   
     9    7    8 1   
    10    7   12 1   
    11    7   25 1   
    12    8    9 1   
    13    8   10 1   
    14    8   26 1   
    15    9   27 1   
    16   10   11 1   
    17   10   13 1   
    18   10   28 1   
    19   11   29 1   
    20   12   13 1   
    21   13   14 1   
    22   13   30 1   
    23   14   15 1   
    24   14   22 1   
    25   15   16 1   
    26   15   17 2   
    27   16   31 1   
    28   16   32 1   
    29   17   18 1   
    30   17   21 1   
    31   18   19 1   
    32   18   20 1   
    33   21   22 2   
    34   22   33 1   
@<TRIPOS>SUBSTRUCTURE
     1 NIA         1 TEMP              0 ****  ****    0 ROOT
