@<TRIPOS>MOLECULE
NIA
   33    34     1     0     0
SMALL
bcc


@<TRIPOS>ATOM
      1 O8          4.3790   -0.4180    2.1020 o         1 NIA     -0.929167
      2 P           4.5610    0.5390    0.9610 p5        1 NIA      1.337900
      3 O6          3.6830    1.7750    1.0530 o         1 NIA     -0.929167
      4 O7          5.9270    0.7260    0.3840 o         1 NIA     -0.929167
      5 O5'         3.6810   -0.2680   -0.3150 os        1 NIA     -0.555200
      6 C5'         2.3790   -0.5400   -0.0040 c3        1 NIA      0.239400
      7 C4'         1.4470    0.5130   -0.6560 c3        1 NIA      0.067100
      8 C3'         1.0650    1.6690    0.2860 c3        1 NIA      0.137100
      9 O3'         1.5750    2.8920   -0.1930 oh        1 NIA     -0.693800
     10 C2'        -0.4770    1.7340    0.2680 c3        1 NIA      0.088100
     11 O2'        -1.0470    2.9760   -0.0860 oh        1 NIA     -0.646800
     12 O4'         0.2240   -0.1370   -1.1030 os        1 NIA     -0.435600
     13 C1'        -0.9000    0.6710   -0.8000 c3        1 NIA      0.219800
     14 N1         -2.0000   -0.1830   -0.3740 na        1 NIA     -0.232900
     15 C5         -3.3030    0.2610   -0.1280 cc        1 NIA      0.159000
     16 N6         -3.7620    1.5440   -0.2780 nh        1 NIA     -0.819200
     17 C4         -4.0510   -0.9360    0.2030 cd        1 NIA      0.075800
     18 N7         -5.4440   -0.9680    0.5530 no        1 NIA      0.265500
     19 O72        -6.0460    0.0850    0.6410 o         1 NIA     -0.265500
     20 O71        -6.0170   -2.0080    0.7620 o         1 NIA     -0.265500
     21 N3         -3.1970   -2.0680    0.1440 nd        1 NIA     -0.619000
     22 C2         -1.9990   -1.5870   -0.1940 cc        1 NIA      0.440400
     23 H5'1        2.2190   -0.5510    1.1110 h1        1 NIA      0.002700
     24 H5'2        2.0840   -1.5440   -0.4310 h1        1 NIA      0.002700
     25 H4'         1.9350    0.9180   -1.5840 h1        1 NIA      0.075700
     26 H3'         1.4470    1.4830    1.3300 h1        1 NIA      0.129700
     27 H1          2.5230    2.9070    0.0930 ho        1 NIA      0.521000
     28 H2'        -0.8890    1.4890    1.2840 h1        1 NIA      0.065700
     29 H2         -0.3510    3.5320   -0.4670 ho        1 NIA      0.447000
     30 H1'        -1.2370    1.1880   -1.7500 h2        1 NIA      0.058700
     31 HN61       -3.0850    2.2790   -0.2470 hn        1 NIA      0.445300
     32 HN62       -4.6390    1.7230    0.1620 hn        1 NIA      0.445300
     33 H3         -1.0660   -2.1560   -0.3280 h5        1 NIA      0.099100
@<TRIPOS>BOND
     1    1    2 1   
     2    2    3 1   
     3    2    4 1   
     4    2    5 1   
     5    5    6 1   
     6    6    7 1   
     7    6   23 1   
     8    6   24 1   
     9    7    8 1   
    10    7   12 1   
    11    7   25 1   
    12    8    9 1   
    13    8   10 1   
    14    8   26 1   
    15    9   27 1   
    16   10   11 1   
    17   10   13 1   
    18   10   28 1   
    19   11   29 1   
    20   12   13 1   
    21   13   14 1   
    22   13   30 1   
    23   14   15 1   
    24   14   22 1   
    25   15   16 1   
    26   15   17 2   
    27   16   31 1   
    28   16   32 1   
    29   17   18 1   
    30   17   21 1   
    31   18   19 1   
    32   18   20 1   
    33   21   22 2   
    34   22   33 1   
@<TRIPOS>SUBSTRUCTURE
     1 NIA         1 TEMP              0 ****  ****    0 ROOT
