@<TRIPOS>MOLECULE
NIA
   33    34     1     0     0
SMALL
bcc


@<TRIPOS>ATOM
      1 O8          0.0420    0.9620    1.4700 o         1 NIA     -0.929167
      2 P           1.5320    1.1310    1.4830 p5        1 NIA      1.337900
      3 O6          1.9850    2.5510    1.7810 o         1 NIA     -0.929167
      4 O7          2.3820    0.0270    2.0260 o         1 NIA     -0.929167
      5 O5'         1.8990    1.1310   -0.2260 os        1 NIA     -0.555200
      6 C5'         1.2250    2.0840   -0.9360 c3        1 NIA      0.239400
      7 C4'         2.1510    3.2970   -1.2070 c3        1 NIA      0.067100
      8 C3'         1.9870    4.4400   -0.1890 c3        1 NIA      0.137100
      9 O3'         3.1730    4.6270    0.5470 oh        1 NIA     -0.693800
     10 C2'         1.7170    5.7110   -1.0240 c3        1 NIA      0.088100
     11 O2'         2.5910    6.7980   -0.8080 oh        1 NIA     -0.646800
     12 O4'         1.8790    3.8240   -2.5360 os        1 NIA     -0.435600
     13 C1'         1.8670    5.2410   -2.5090 c3        1 NIA      0.219800
     14 N1          0.8100    5.7250   -3.3870 na        1 NIA     -0.232900
     15 C5          0.5980    7.0690   -3.7100 cc        1 NIA      0.159000
     16 N6          1.3570    8.1320   -3.2900 nh        1 NIA     -0.819200
     17 C4         -0.5050    7.0600   -4.6500 cd        1 NIA      0.075800
     18 N7         -1.0920    8.2290   -5.2460 no        1 NIA      0.265500
     19 O72        -0.6830    9.3230   -4.9060 o         1 NIA     -0.265500
     20 O71        -1.9720    8.1430   -6.0640 o         1 NIA     -0.265500
     21 N3         -0.9300    5.7260   -4.8800 nd        1 NIA     -0.619000
     22 C2         -0.1360    4.9690   -4.1180 cc        1 NIA      0.440400
     23 H5'1        0.9260    1.6710   -1.9450 h1        1 NIA      0.002700
     24 H5'2        0.3010    2.4250   -0.3890 h1        1 NIA      0.002700
     25 H4'         3.2200    2.9510   -1.2290 h1        1 NIA      0.075700
     26 H3'         1.1320    4.2340    0.5160 h1        1 NIA      0.129700
     27 H1          3.1520    3.9300    1.2520 ho        1 NIA      0.521000
     28 H2'         0.6850    6.1030   -0.8140 h1        1 NIA      0.065700
     29 H2          3.3560    6.4790   -0.3070 ho        1 NIA      0.447000
     30 H1'         2.8460    5.6160   -2.9380 h2        1 NIA      0.058700
     31 HN61        0.9280    9.0230   -3.4200 hn        1 NIA      0.445300
     32 HN62        1.8940    8.0090   -2.4560 hn        1 NIA      0.445300
     33 H3         -0.1630    3.8740   -4.0120 h5        1 NIA      0.099100
@<TRIPOS>BOND
     1    1    2 1   
     2    2    3 1   
     3    2    4 1   
     4    2    5 1   
     5    5    6 1   
     6    6    7 1   
     7    6   23 1   
     8    6   24 1   
     9    7    8 1   
    10    7   12 1   
    11    7   25 1   
    12    8    9 1   
    13    8   10 1   
    14    8   26 1   
    15    9   27 1   
    16   10   11 1   
    17   10   13 1   
    18   10   28 1   
    19   11   29 1   
    20   12   13 1   
    21   13   14 1   
    22   13   30 1   
    23   14   15 1   
    24   14   22 1   
    25   15   16 1   
    26   15   17 2   
    27   16   31 1   
    28   16   32 1   
    29   17   18 1   
    30   17   21 1   
    31   18   19 1   
    32   18   20 1   
    33   21   22 2   
    34   22   33 1   
@<TRIPOS>SUBSTRUCTURE
     1 NIA         1 TEMP              0 ****  ****    0 ROOT
