@<TRIPOS>MOLECULE
NIC
   18    17     1     0     0
SMALL
bcc


@<TRIPOS>ATOM
      1 C1         -2.3980   -0.1070   -0.6170 c         1 NIC      0.891600
      2 O1         -3.1300    0.0540    0.4030 o         1 NIC     -0.838300
      3 O2         -2.6840    0.2930   -1.7770 o         1 NIC     -0.838300
      4 C2         -1.0940   -0.9220   -0.4120 c3        1 NIC      0.009100
      5 C3          0.1660   -0.0500   -0.2300 c3        1 NIC     -0.040000
      6 O7         -1.2440   -1.8260    0.6650 oh        1 NIC     -0.627800
      7 C4          1.4130   -0.9190   -0.0950 c3        1 NIC     -0.201400
      8 C5          2.6960   -0.2920   -0.6580 c         1 NIC      0.902600
      9 O3          2.6200    0.5730   -1.5770 o         1 NIC     -0.857300
     10 O4          3.7980   -0.7160   -0.1960 o         1 NIC     -0.857300
     11 N6          0.0150    0.8770    0.9830 no        1 NIC      0.248300
     12 O5         -0.0710    0.4100    2.0910 o         1 NIC     -0.260500
     13 O6         -0.0010    2.0680    0.8200 o         1 NIC     -0.260500
     14 H2         -0.9140   -1.5610   -1.3210 h1        1 NIC      0.066700
     15 H3          0.2790    0.6420   -1.1190 h1        1 NIC      0.134700
     16 HO7        -1.7380   -1.3490    1.3520 ho        1 NIC      0.424000
     17 H41         1.2320   -1.8620   -0.6730 hc        1 NIC      0.051700
     18 H42         1.5800   -1.2160    0.9720 hc        1 NIC      0.051700
@<TRIPOS>BOND
     1    1    2 1   
     2    1    3 1   
     3    1    4 1   
     4    4    5 1   
     5    4    6 1   
     6    4   14 1   
     7    5    7 1   
     8    5   11 1   
     9    5   15 1   
    10    6   16 1   
    11    7    8 1   
    12    7   17 1   
    13    7   18 1   
    14    8    9 1   
    15    8   10 1   
    16   11   12 1   
    17   11   13 1   
@<TRIPOS>SUBSTRUCTURE
     1 NIC         1 TEMP              0 ****  ****    0 ROOT
