@<TRIPOS>MOLECULE
NIC
   18    17     1     0     0
SMALL
bcc


@<TRIPOS>ATOM
      1 C1         -0.0120    0.1960   -0.0790 c         1 NIC      0.891600
      2 O1         -0.5650   -0.8500   -0.5280 o         1 NIC     -0.838300
      3 O2         -0.6200    1.2620    0.2110 o         1 NIC     -0.838300
      4 C2          1.5330    0.1650    0.0450 c3        1 NIC      0.009100
      5 C3          2.0400   -0.1440    1.4700 c3        1 NIC     -0.040000
      6 O7          2.0830   -0.7380   -0.8950 oh        1 NIC     -0.627800
      7 C4          3.5640   -0.1000    1.5260 c3        1 NIC     -0.201400
      8 C5          4.1420    0.3680    2.8690 c         1 NIC      0.902600
      9 O3          3.4550    1.1180    3.6210 o         1 NIC     -0.857300
     10 O4          5.3270    0.0100    3.1450 o         1 NIC     -0.857300
     11 N6          1.5180   -1.5060    1.9480 no        1 NIC      0.248300
     12 O5          1.8620   -2.5150    1.3870 o         1 NIC     -0.260500
     13 O6          0.7770   -1.5570    2.8940 o         1 NIC     -0.260500
     14 H2          1.9440    1.1760   -0.2300 h1        1 NIC      0.066700
     15 H3          1.6090    0.6090    2.1960 h1        1 NIC      0.134700
     16 HO7         1.4920   -1.5080   -0.9090 ho        1 NIC      0.424000
     17 H41         3.9090    0.6330    0.7520 hc        1 NIC      0.051700
     18 H42         4.0040   -1.0930    1.2570 hc        1 NIC      0.051700
@<TRIPOS>BOND
     1    1    2 1   
     2    1    3 1   
     3    1    4 1   
     4    4    5 1   
     5    4    6 1   
     6    4   14 1   
     7    5    7 1   
     8    5   11 1   
     9    5   15 1   
    10    6   16 1   
    11    7    8 1   
    12    7   17 1   
    13    7   18 1   
    14    8    9 1   
    15    8   10 1   
    16   11   12 1   
    17   11   13 1   
@<TRIPOS>SUBSTRUCTURE
     1 NIC         1 TEMP              0 ****  ****    0 ROOT
