@<TRIPOS>MOLECULE
NIC
   18    16     1     0     0
SMALL
bcc


@<TRIPOS>ATOM
      1 C1         -2.1370    0.0930   -1.1490 c1        1 NIC      0.311000
      2 O1         -2.7870   -0.9850   -1.1080 o         1 NIC     -0.583000
      3 O2         -2.7470    1.1940   -1.1980 os        1 NIC     -0.563000
      4 C2         -0.6260    0.0660   -1.1390 c3        1 NIC     -0.052000
      5 C3         -0.1300    0.1190    0.2880 c3        1 NIC     -0.060000
      6 O7         -0.1740   -1.1200   -1.7490 oh        1 NIC     -0.355000
      7 C4          1.2510    0.7360    0.3190 c3        1 NIC     -0.230000
      8 C5          1.7590    0.7640    1.7440 c2        1 NIC      0.322000
      9 O3          1.2970    1.6020    2.5610 o         1 NIC     -0.592000
     10 O4          2.6440   -0.0520    2.1120 o         1 NIC     -0.592000
     11 N6         -0.0720   -1.1970    0.8180 no        1 NIC      0.529000
     12 O5         -0.9070   -1.5610    1.8360 o         1 NIC     -0.410500
     13 O6          0.7240   -2.0060    0.3620 o         1 NIC     -0.410500
     14 H2         -0.2830    0.8370   -1.6320 h1        1 NIC      0.106000
     15 H3         -0.7410    0.6600    0.8250 h1        1 NIC      0.174000
     16 HO7        -0.1360   -1.0040   -2.6300 ho        1 NIC      0.223000
     17 H41         1.2070    1.6490   -0.0290 hc        1 NIC      0.091000
     18 H42         1.8580    0.2050   -0.2340 hc        1 NIC      0.091000
@<TRIPOS>BOND
     1    1    2 1   
     2    1    4 1   
     3    4    5 1   
     4    4    6 1   
     5    4   14 1   
     6    5    7 1   
     7    5   11 1   
     8    5   15 1   
     9    6   16 1   
    10    7    8 1   
    11    7   17 1   
    12    7   18 1   
    13    8    9 1   
    14    8   10 1   
    15   11   12 1   
    16   11   13 1   
@<TRIPOS>SUBSTRUCTURE
     1 NIC         1 TEMP              0 ****  ****    0 ROOT
