@<TRIPOS>MOLECULE
NID
   18    19     1     0     0
SMALL
bcc


@<TRIPOS>ATOM
      1 C2         -0.0040    0.0310    0.0300 ca        1 NID     -0.159200
      2 C7          1.3840   -0.0060    0.0200 ca        1 NID      0.009200
      3 C1          2.3910   -0.0110    1.1020 cc        1 NID     -0.061200
      4 C9          3.6330   -0.0540    0.5620 cd        1 NID     -0.222200
      5 C8          3.5420   -0.0820   -0.9380 c         1 NID      0.569900
      6 O1          4.4630   -0.1230   -1.7440 o         1 NID     -0.475100
      7 C6          2.0730   -0.0500   -1.2340 ca        1 NID     -0.196600
      8 C5          1.3950   -0.0560   -2.4300 ca        1 NID     -0.022000
      9 C4         -0.0140   -0.0180   -2.4020 ca        1 NID     -0.146000
     10 C3         -0.7060    0.0240   -1.2030 ca        1 NID     -0.058000
     11 N          -0.7770    0.0770    1.2980 no        1 NID      0.317200
     12 ON1        -1.9770    0.1070    1.2370 o         1 NID     -0.205500
     13 ON2        -0.1930    0.0830    2.3490 o         1 NID     -0.205500
     14 H1          2.1070    0.0180    2.1590 ha        1 NID      0.189000
     15 H9          4.5960   -0.0700    1.0750 ha        1 NID      0.175000
     16 H5          1.9350   -0.0890   -3.3890 ha        1 NID      0.163000
     17 H4         -0.5720   -0.0220   -3.3520 ha        1 NID      0.154000
     18 H3         -1.8100    0.0540   -1.1960 ha        1 NID      0.175000
@<TRIPOS>BOND
     1    1    2 ar  
     2    1   10 ar  
     3    1   11 1   
     4    2    3 1   
     5    2    7 ar  
     6    3    4 2   
     7    3   14 1   
     8    4    5 1   
     9    4   15 1   
    10    5    6 2   
    11    5    7 1   
    12    7    8 ar  
    13    8    9 ar  
    14    8   16 1   
    15    9   10 ar  
    16    9   17 1   
    17   10   18 1   
    18   11   12 1   
    19   11   13 1   
@<TRIPOS>SUBSTRUCTURE
     1 NID         1 TEMP              0 ****  ****    0 ROOT
