@<TRIPOS>MOLECULE
NID
   18    19     1     0     0
SMALL
bcc


@<TRIPOS>ATOM
      1 C2         -1.1150   -0.2940   -0.0000 ca        1 NID     -0.159200
      2 C7          0.1330    0.3140   -0.0000 ca        1 NID      0.009200
      3 C1          0.5540    1.7310   -0.0010 cc        1 NID     -0.061200
      4 C9          1.9070    1.8000   -0.0000 cd        1 NID     -0.222200
      5 C8          2.4930    0.4150    0.0000 c         1 NID      0.569900
      6 O1          3.6770    0.1020    0.0000 o         1 NID     -0.475100
      7 C6          1.3080   -0.5020    0.0000 ca        1 NID     -0.196600
      8 C5          1.2330   -1.8760    0.0010 ca        1 NID     -0.022000
      9 C4         -0.0420   -2.4770    0.0010 ca        1 NID     -0.146000
     10 C3         -1.1960   -1.7110    0.0000 ca        1 NID     -0.058000
     11 N          -2.3720    0.4980   -0.0010 no        1 NID      0.317200
     12 ON1        -3.4210   -0.0900   -0.0010 o         1 NID     -0.205500
     13 ON2        -2.3170    1.6980   -0.0010 o         1 NID     -0.205500
     14 H1         -0.1710    2.5510   -0.0010 ha        1 NID      0.189000
     15 H9          2.5410    2.6860   -0.0010 ha        1 NID      0.175000
     16 H5          2.1440   -2.4950    0.0010 ha        1 NID      0.163000
     17 H4         -0.1190   -3.5760    0.0010 ha        1 NID      0.154000
     18 H3         -2.1880   -2.1950    0.0000 ha        1 NID      0.175000
@<TRIPOS>BOND
     1    1    2 ar  
     2    1   10 ar  
     3    1   11 1   
     4    2    3 1   
     5    2    7 ar  
     6    3    4 2   
     7    3   14 1   
     8    4    5 1   
     9    4   15 1   
    10    5    6 2   
    11    5    7 1   
    12    7    8 ar  
    13    8    9 ar  
    14    8   16 1   
    15    9   10 ar  
    16    9   17 1   
    17   10   18 1   
    18   11   12 1   
    19   11   13 1   
@<TRIPOS>SUBSTRUCTURE
     1 NID         1 TEMP              0 ****  ****    0 ROOT
