@<TRIPOS>MOLECULE
NID
   18    15     1     0     0
SMALL
bcc


@<TRIPOS>ATOM
      1 C2         -1.2140    0.1600    0.4940 c1        1 NID     -0.114000
      2 C7          0.1720    0.0270    0.4950 c1        1 NID      0.021000
      3 C1          1.2470    0.0550    1.5180 c1        1 NID     -0.120000
      4 C9          2.4730   -0.0490    1.0170 c1        1 NID     -0.120000
      5 C8          2.5080   -0.1650   -0.3600 c1        1 NID      0.291000
      6 O1          3.4530    0.1080   -1.0750 o         1 NID     -0.236000
      7 C6          0.9080   -0.1200   -0.8020 c2        1 NID     -0.176000
      8 C5          0.2140   -0.1220   -1.9840 c1        1 NID     -0.022000
      9 C4         -1.2180    0.0170   -1.9770 c1        1 NID     -0.120000
     10 C3         -1.9250    0.1580   -0.7270 c1        1 NID     -0.120000
     11 N          -2.0500   -0.0050    1.6360 no        1 NID      0.572000
     12 ON1        -3.3880   -0.3030    1.4750 o         1 NID     -0.355500
     13 ON2        -1.5720    0.0840    2.7670 o         1 NID     -0.355500
     14 H1          1.1030    0.5300    2.3680 ha        1 NID      0.173250
     15 H9          3.1890   -0.4220    1.5550 ha        1 NID      0.173250
     16 H5          0.7040   -0.2200   -2.8540 ha        1 NID      0.163000
     17 H4         -1.7140    0.0150   -2.8210 ha        1 NID      0.173250
     18 H3         -2.8910    0.2510   -0.7250 ha        1 NID      0.173250
@<TRIPOS>BOND
     1    1    2 1   
     2    1   11 1   
     3    2    7 1   
     4    3    4 1   
     5    3   14 1   
     6    4   15 1   
     7    5    6 1   
     8    5    7 1   
     9    7    8 1   
    10    8   16 1   
    11    9   10 1   
    12    9   17 1   
    13   10   18 1   
    14   11   12 1   
    15   11   13 1   
@<TRIPOS>SUBSTRUCTURE
     1 NID         1 TEMP              0 ****  ****    0 ROOT
