@<TRIPOS>MOLECULE
NIE
   10     8     1     0     0
SMALL
bcc


@<TRIPOS>ATOM
      1 N3         -1.1650   -0.5700    0.0440 n2        1 NIE      0.400400
      2 C1          0.7610    0.8550   -0.0350 c3        1 NIE     -0.230000
      3 C2          0.2570   -0.5700    0.0440 c2        1 NIE     -0.135000
      4 O4         -1.7770   -0.5700    1.1030 o         1 NIE     -0.306200
      5 O5         -1.8480   -0.5700   -1.1390 o         1 NIE     -0.306200
      6 H1          0.4200    1.3630    0.7260 hc        1 NIE      0.103667
      7 H1A         0.4510    1.2640   -0.8650 hc        1 NIE      0.103667
      8 H1B         1.7370    0.8560   -0.0150 hc        1 NIE      0.103667
      9 H2          0.5820   -1.0730   -0.7270 ha        1 NIE      0.133000
     10 H2A         0.5820   -0.9850    0.8650 ha        1 NIE      0.133000
@<TRIPOS>BOND
     1    1    4 2   
     2    1    5 2   
     3    2    3 1   
     4    2    6 1   
     5    2    7 1   
     6    2    8 1   
     7    3    9 1   
     8    3   10 1   
@<TRIPOS>SUBSTRUCTURE
     1 NIE         1 TEMP              0 ****  ****    0 ROOT
