@<TRIPOS>MOLECULE
NIE
   10     9     1     0     0
SMALL
bcc


@<TRIPOS>ATOM
      1 N3          0.5650    0.0120    0.0840 no        1 NIE      0.228300
      2 C1         -1.9310    0.0860   -0.3090 c3        1 NIE     -0.112100
      3 C2         -0.7830   -0.6300    0.3610 c3        1 NIE     -0.075700
      4 O4          0.6800    1.2020    0.1900 o         1 NIE     -0.210500
      5 O5          1.4840   -0.7020   -0.2130 o         1 NIE     -0.210500
      6 H1         -1.8630    0.0050   -1.4210 hc        1 NIE      0.064367
      7 H1A        -2.8860   -0.3870    0.0270 hc        1 NIE      0.064367
      8 H1B        -1.9470    1.1690   -0.0320 hc        1 NIE      0.064367
      9 H2         -0.7070   -1.6960    0.0120 h1        1 NIE      0.093700
     10 H2A        -0.8990   -0.6070    1.4790 h1        1 NIE      0.093700
@<TRIPOS>BOND
     1    1    3 1   
     2    1    4 1   
     3    1    5 1   
     4    2    3 1   
     5    2    6 1   
     6    2    7 1   
     7    2    8 1   
     8    3    9 1   
     9    3   10 1   
@<TRIPOS>SUBSTRUCTURE
     1 NIE         1 TEMP              0 ****  ****    0 ROOT
