@<TRIPOS>MOLECULE
NIE
   10     9     1     0     0
SMALL
bcc


@<TRIPOS>ATOM
      1 N3         -0.0500    0.0610    0.0180 no        1 NIE      0.228300
      2 C1          1.9910   -1.0440    1.0200 c3        1 NIE     -0.112100
      3 C2          1.4640   -0.0630    0.0010 c3        1 NIE     -0.075700
      4 O4         -0.6160    0.1850    1.0680 o         1 NIE     -0.210500
      5 O5         -0.6310    0.0520   -1.0320 o         1 NIE     -0.210500
      6 H1          1.6730   -2.0870    0.7780 hc        1 NIE      0.064367
      7 H1A         3.1070   -0.9980    1.0100 hc        1 NIE      0.064367
      8 H1B         1.6280   -0.7920    2.0470 hc        1 NIE      0.064367
      9 H2          1.8490    0.9730    0.2110 h1        1 NIE      0.093700
     10 H2A         1.7490   -0.3660   -1.0440 h1        1 NIE      0.093700
@<TRIPOS>BOND
     1    1    3 1   
     2    1    4 1   
     3    1    5 1   
     4    2    3 1   
     5    2    6 1   
     6    2    7 1   
     7    2    8 1   
     8    3    9 1   
     9    3   10 1   
@<TRIPOS>SUBSTRUCTURE
     1 NIE         1 TEMP              0 ****  ****    0 ROOT
