@<TRIPOS>MOLECULE
NIF
   33    31     1     0     0
SMALL
bcc


@<TRIPOS>ATOM
      1 C1         -1.0890    0.8830   -3.7680 c1        1 NIF     -0.292000
      2 N1         -0.0320    0.0200   -3.7240 n1        1 NIF      0.050000
      3 O1          2.4350   -1.4060   -2.3260 o         1 NIF     -0.306000
      4 S1         -1.5950    1.3070   -2.3540 s         1 NIF      0.421000
      5 C2         -0.4380    0.6470   -1.3340 c2        1 NIF     -0.071000
      6 N2          0.4790   -0.2900   -2.2660 n2        1 NIF     -0.232000
      7 C3          0.4000   -0.3530    0.6740 c1        1 NIF      0.197000
      8 N3         -0.6680    0.3420   -0.0790 n1        1 NIF     -0.212000
      9 C4          1.5380   -1.0920   -0.1450 c1        1 NIF     -0.385000
     10 N4          0.8120    0.3550    4.8490 n3        1 NIF     -0.297000
     11 C5          1.4840   -1.0320   -1.6690 c1        1 NIF      0.387000
     12 N5          0.5770   -0.0940    2.0570 n3        1 NIF     -0.229000
     13 C6         -2.0520    0.8440   -4.9360 c3        1 NIF     -0.092000
     14 C7         -2.2110   -0.5820   -5.4090 c3        1 NIF     -0.212000
     15 C8          0.9940   -1.1360    2.9280 c3        1 NIF     -0.037000
     16 C9          1.6280   -0.6090    4.1970 c3        1 NIF     -0.083000
     17 C10         0.3950    1.3980    3.9780 c3        1 NIF     -0.083000
     18 C11        -0.2390    0.8700    2.7090 c3        1 NIF     -0.037000
     19 H4          2.1130   -1.7450    0.2980 ha        1 NIF      0.171000
     20 HN4         1.2690    0.7130    5.5560 hn        1 NIF      0.165000
     21 H6         -2.9200    1.1930   -4.6540 hc        1 NIF      0.104000
     22 H6A        -1.7010    1.3930   -5.6660 hc        1 NIF      0.104000
     23 H7         -1.4090   -0.8550   -5.9010 hc        1 NIF      0.087000
     24 H7A        -2.9930   -0.6460   -5.9970 hc        1 NIF      0.087000
     25 H7B        -2.3360   -1.1710   -4.6350 hc        1 NIF      0.087000
     26 H8          1.6450   -1.7000    2.4590 h1        1 NIF      0.096750
     27 H8A         0.2160   -1.6820    3.1650 h1        1 NIF      0.096750
     28 H9          2.4880   -0.1980    3.9740 h1        1 NIF      0.080000
     29 H9A         1.7830   -1.3580    4.8080 h1        1 NIF      0.080000
     30 H10        -0.2550    1.9610    4.4470 h1        1 NIF      0.080000
     31 H10A        1.1740    1.9430    3.7400 h1        1 NIF      0.080000
     32 H11        -0.3940    1.6200    2.0970 h1        1 NIF      0.096750
     33 H11A       -1.0990    0.4590    2.9320 h1        1 NIF      0.096750
@<TRIPOS>BOND
     1    1    2 1   
     2    1   13 1   
     3    3   11 1   
     4    4    5 1   
     5    5    6 1   
     6    5    8 1   
     7    6   11 1   
     8    7    9 1   
     9    7   12 1   
    10    9   19 1   
    11   10   16 1   
    12   10   17 1   
    13   10   20 1   
    14   12   15 1   
    15   12   18 1   
    16   13   14 1   
    17   13   21 1   
    18   13   22 1   
    19   14   23 1   
    20   14   24 1   
    21   14   25 1   
    22   15   16 1   
    23   15   26 1   
    24   15   27 1   
    25   16   28 1   
    26   16   29 1   
    27   17   18 1   
    28   17   30 1   
    29   17   31 1   
    30   18   32 1   
    31   18   33 1   
@<TRIPOS>SUBSTRUCTURE
     1 NIF         1 TEMP              0 ****  ****    0 ROOT
