@<TRIPOS>MOLECULE
NIF
   33    35     1     0     0
SMALL
bcc


@<TRIPOS>ATOM
      1 C1          0.3310    0.4160    0.1580 cc        1 NIF      0.383700
      2 N1          1.6430    0.4950   -0.0190 n2        1 NIF     -0.384800
      3 O1          4.4860    0.5150    0.3310 o         1 NIF     -0.574500
      4 S1         -0.1790    0.0820    1.7980 ss        1 NIF     -0.161300
      5 C2          1.4920    0.0470    2.2850 cc        1 NIF      0.168600
      6 N2          2.3080    0.2980    1.1320 n         1 NIF      0.006300
      7 C3          3.3150   -0.1690    3.7150 cd        1 NIF      0.387600
      8 N3          1.9190   -0.1650    3.5100 nd        1 NIF     -0.355600
      9 C4          4.1910    0.0550    2.6600 cc        1 NIF     -0.356200
     10 N4          3.2350    1.0900    7.3920 n3        1 NIF     -0.821200
     11 C5          3.7460    0.3070    1.2990 c         1 NIF      0.631500
     12 N5          3.8320   -0.4880    4.9990 nh        1 NIF     -0.607400
     13 C6         -0.6870    0.5940   -0.9100 c3        1 NIF     -0.107700
     14 C7         -0.5390   -0.4230   -2.0160 c3        1 NIF     -0.094100
     15 C8          4.7900    0.4680    5.5420 c3        1 NIF      0.180300
     16 C9          4.1560    1.5910    6.3930 c3        1 NIF      0.130800
     17 C10         2.2650    0.1450    6.8740 c3        1 NIF      0.130800
     18 C11         2.9190   -0.9660    6.0260 c3        1 NIF      0.180300
     19 H4          5.2830    0.0310    2.7800 ha        1 NIF      0.176000
     20 H6         -0.5970    1.6320   -1.3350 hc        1 NIF      0.065700
     21 H6A        -1.7080    0.5070   -0.4470 hc        1 NIF      0.065700
     22 H7         -0.6260   -1.4620   -1.6160 hc        1 NIF      0.048367
     23 H7A        -1.3420   -0.2670   -2.7770 hc        1 NIF      0.048367
     24 H7B         0.4530   -0.3190   -2.5190 hc        1 NIF      0.048367
     25 H8          5.4970   -0.1300    6.1860 h1        1 NIF      0.070450
     26 H8A         5.3810    0.9470    4.7150 h1        1 NIF      0.070450
     27 H9          3.6700    2.3330    5.6940 h1        1 NIF      0.040200
     28 H9A         4.9860    2.1240    6.9350 h1        1 NIF      0.040200
     29 H10         1.4650    0.6450    6.2540 h1        1 NIF      0.040200
     30 H10A        1.7630   -0.3410    7.7570 h1        1 NIF      0.040200
     31 H11         2.1090   -1.6020    5.5780 h1        1 NIF      0.070450
     32 H11A        3.5420   -1.6220    6.7000 h1        1 NIF      0.070450
     33 HN4         2.7660    1.8540    7.8410 hn        1 NIF      0.366800
@<TRIPOS>BOND
     1    1    2 2   
     2    1    4 1   
     3    1   13 1   
     4    2    6 1   
     5    3   11 2   
     6    4    5 1   
     7    5    6 1   
     8    5    8 2   
     9    6   11 1   
    10    7    8 1   
    11    7    9 2   
    12    7   12 1   
    13    9   11 1   
    14    9   19 1   
    15   10   16 1   
    16   10   17 1   
    17   10   33 1   
    18   12   15 1   
    19   12   18 1   
    20   13   14 1   
    21   13   20 1   
    22   13   21 1   
    23   14   22 1   
    24   14   23 1   
    25   14   24 1   
    26   15   16 1   
    27   15   25 1   
    28   15   26 1   
    29   16   27 1   
    30   16   28 1   
    31   17   18 1   
    32   17   29 1   
    33   17   30 1   
    34   18   31 1   
    35   18   32 1   
@<TRIPOS>SUBSTRUCTURE
     1 NIF         1 TEMP              0 ****  ****    0 ROOT
