@<TRIPOS>MOLECULE
NIF
   33    35     1     0     0
SMALL
bcc


@<TRIPOS>ATOM
      1 C1          0.3220    0.4150    0.1620 cc        1 NIF      0.383700
      2 N1          1.6330    0.5180   -0.0160 n2        1 NIF     -0.384800
      3 O1          4.4760    0.5840    0.3280 o         1 NIF     -0.574500
      4 S1         -0.1780    0.0600    1.8020 ss        1 NIF     -0.161300
      5 C2          1.4940    0.0500    2.2840 cc        1 NIF      0.168600
      6 N2          2.3030    0.3240    1.1320 n         1 NIF      0.006300
      7 C3          3.3240   -0.1450    3.7090 cd        1 NIF      0.387600
      8 N3          1.9270   -0.1640    3.5070 nd        1 NIF     -0.355600
      9 C4          4.1930    0.1010    2.6540 cc        1 NIF     -0.356200
     10 N4          3.2300    1.0830    7.3960 n7        1 NIF     -0.821200
     11 C5          3.7410    0.3550    1.2960 c         1 NIF      0.631500
     12 N5          3.8490   -0.4650    4.9900 nh        1 NIF     -0.607400
     13 C6         -0.7010    0.5820   -0.9020 c3        1 NIF     -0.107700
     14 C7         -0.5410   -0.4280   -2.0120 c3        1 NIF     -0.094100
     15 C8          4.7920    0.5020    5.5380 c3        1 NIF      0.180300
     16 C9          4.1410    1.6080    6.3990 c3        1 NIF      0.130800
     17 C10         2.2750    0.1260    6.8720 c3        1 NIF      0.130800
     18 C11         2.9460   -0.9670    6.0150 c3        1 NIF      0.180300
     19 H4          5.2860    0.0950    2.7720 ha        1 NIF      0.176000
     20 H6         -1.7190    0.4800   -0.4370 hc        1 NIF      0.065700
     21 H6A        -0.6260    1.6230   -1.3240 hc        1 NIF      0.065700
     22 H7         -0.6130   -1.4690   -1.6160 hc        1 NIF      0.048367
     23 H7A        -1.3480   -0.2800   -2.7710 hc        1 NIF      0.048367
     24 H7B         0.4480   -0.3090   -2.5170 hc        1 NIF      0.048367
     25 H8          5.5100   -0.0870    6.1760 h1        1 NIF      0.070450
     26 H8A         5.3730    0.9980    4.7140 h1        1 NIF      0.070450
     27 H9          4.9630    2.1510    6.9440 h1        1 NIF      0.040200
     28 H9A         3.6400    2.3470    5.7070 h1        1 NIF      0.040200
     29 H10         1.4650    0.6180    6.2580 h1        1 NIF      0.040200
     30 H10A        1.7840   -0.3740    7.7530 h1        1 NIF      0.040200
     31 H11         3.5820   -1.6170    6.6830 h1        1 NIF      0.070450
     32 H11A        2.1460   -1.6130    5.5640 h1        1 NIF      0.070450
     33 HN4         2.7490    1.8370    7.8520 hn        1 NIF      0.366800
@<TRIPOS>BOND
     1    1    2 2   
     2    1    4 1   
     3    1   13 1   
     4    2    6 1   
     5    3   11 2   
     6    4    5 1   
     7    5    6 1   
     8    5    8 2   
     9    6   11 1   
    10    7    8 1   
    11    7    9 2   
    12    7   12 1   
    13    9   11 1   
    14    9   19 1   
    15   10   16 1   
    16   10   17 1   
    17   10   33 1   
    18   12   15 1   
    19   12   18 1   
    20   13   14 1   
    21   13   20 1   
    22   13   21 1   
    23   14   22 1   
    24   14   23 1   
    25   14   24 1   
    26   15   16 1   
    27   15   25 1   
    28   15   26 1   
    29   16   27 1   
    30   16   28 1   
    31   17   18 1   
    32   17   29 1   
    33   17   30 1   
    34   18   31 1   
    35   18   32 1   
@<TRIPOS>SUBSTRUCTURE
     1 NIF         1 TEMP              0 ****  ****    0 ROOT
