@<TRIPOS>MOLECULE
NIF
   33    35     1     0     0
SMALL
bcc


@<TRIPOS>ATOM
      1 C1          0.3220    0.4060    0.1630 cc        1 NIF      0.383700
      2 N1          1.6330    0.5000   -0.0170 n2        1 NIF     -0.384800
      3 O1          4.4770    0.5500    0.3270 o         1 NIF     -0.574500
      4 S1         -0.1800    0.0600    1.8030 ss        1 NIF     -0.161300
      5 C2          1.4920    0.0420    2.2860 cc        1 NIF      0.168600
      6 N2          2.3030    0.3070    1.1320 n         1 NIF      0.006300
      7 C3          3.3210   -0.1590    3.7110 cd        1 NIF      0.387600
      8 N3          1.9250   -0.1700    3.5090 nd        1 NIF     -0.355600
      9 C4          4.1910    0.0780    2.6540 cc        1 NIF     -0.356200
     10 N4          3.2360    1.0840    7.3930 n3        1 NIF     -0.821200
     11 C5          3.7410    0.3300    1.2950 c         1 NIF      0.631500
     12 N5          3.8450   -0.4770    4.9920 nh        1 NIF     -0.607400
     13 C6         -0.7000    0.5760   -0.9020 c3        1 NIF     -0.107700
     14 C7         -0.5460   -0.4370   -2.0100 c3        1 NIF     -0.094100
     15 C8          4.7930    0.4870    5.5370 c3        1 NIF      0.180300
     16 C9          4.1490    1.5990    6.3930 c3        1 NIF      0.130800
     17 C10         2.2750    0.1300    6.8730 c3        1 NIF      0.130800
     18 C11         2.9390   -0.9700    6.0190 c3        1 NIF      0.180300
     19 H4          5.2850    0.0660    2.7720 ha        1 NIF      0.176000
     20 H6         -0.6210    1.6150   -1.3260 hc        1 NIF      0.065700
     21 H6A        -1.7190    0.4790   -0.4360 hc        1 NIF      0.065700
     22 H7         -0.6220   -1.4780   -1.6120 hc        1 NIF      0.048367
     23 H7A        -1.3520   -0.2870   -2.7690 hc        1 NIF      0.048367
     24 H7B         0.4440   -0.3240   -2.5150 hc        1 NIF      0.048367
     25 H8          5.3770    0.9760    4.7100 h1        1 NIF      0.070450
     26 H8A         5.5080   -0.1050    6.1760 h1        1 NIF      0.070450
     27 H9          3.6530    2.3390    5.6990 h1        1 NIF      0.040200
     28 H9A         4.9750    2.1400    6.9360 h1        1 NIF      0.040200
     29 H10         1.4680    0.6240    6.2570 h1        1 NIF      0.040200
     30 H10A        1.7810   -0.3640    7.7560 h1        1 NIF      0.040200
     31 H11         2.1350   -1.6130    5.5710 h1        1 NIF      0.070450
     32 H11A        3.5720   -1.6210    6.6900 h1        1 NIF      0.070450
     33 HN4         2.7600    1.8420    7.8460 hn        1 NIF      0.366800
@<TRIPOS>BOND
     1    1    2 2   
     2    1    4 1   
     3    1   13 1   
     4    2    6 1   
     5    3   11 2   
     6    4    5 1   
     7    5    6 1   
     8    5    8 2   
     9    6   11 1   
    10    7    8 1   
    11    7    9 2   
    12    7   12 1   
    13    9   11 1   
    14    9   19 1   
    15   10   16 1   
    16   10   17 1   
    17   10   33 1   
    18   12   15 1   
    19   12   18 1   
    20   13   14 1   
    21   13   20 1   
    22   13   21 1   
    23   14   22 1   
    24   14   23 1   
    25   14   24 1   
    26   15   16 1   
    27   15   25 1   
    28   15   26 1   
    29   16   27 1   
    30   16   28 1   
    31   17   18 1   
    32   17   29 1   
    33   17   30 1   
    34   18   31 1   
    35   18   32 1   
@<TRIPOS>SUBSTRUCTURE
     1 NIF         1 TEMP              0 ****  ****    0 ROOT
