@<TRIPOS>MOLECULE
NIF
   33    35     1     0     0
SMALL
bcc


@<TRIPOS>ATOM
      1 C1         -3.1530    0.3560   -0.4840 cc        1 NIF      0.383700
      2 N1         -2.7130   -0.8950   -0.4880 n2        1 NIF     -0.384800
      3 O1         -1.1170   -3.2680   -0.3110 o         1 NIF     -0.574500
      4 S1         -1.9450    1.5680   -0.1170 ss        1 NIF     -0.158300
      5 C2         -0.7600    0.3040    0.0450 cc        1 NIF      0.168600
      6 N2         -1.4010   -0.9560   -0.2010 n         1 NIF      0.006300
      7 C3          1.3220   -0.6610    0.4300 cd        1 NIF      0.388600
      8 N3          0.5090    0.4880    0.3340 nd        1 NIF     -0.354600
      9 C4          0.7930   -1.9290    0.2190 cc        1 NIF     -0.355200
     10 N4          4.6700    1.0760   -0.6650 n3        1 NIF     -0.795200
     11 C5         -0.6030   -2.1610   -0.1120 c         1 NIF      0.631500
     12 N5          2.6800   -0.5270    0.8270 nh        1 NIF     -0.607400
     13 C6         -4.5510    0.7710   -0.7710 c3        1 NIF     -0.108700
     14 C7         -5.5350    0.1770    0.2080 c3        1 NIF     -0.094100
     15 C8          3.6500   -1.1570   -0.0630 c3        1 NIF      0.143800
     16 C9          4.2240   -0.2160   -1.1470 c3        1 NIF      0.120300
     17 C10         3.7000    1.6980    0.2160 c3        1 NIF      0.120300
     18 C11         3.1420    0.7650    1.3120 c3        1 NIF      0.143800
     19 H4          1.3930   -2.8450    0.3140 ha        1 NIF      0.176000
     20 H6         -4.6040    1.8930   -0.7320 hc        1 NIF      0.065700
     21 H6A        -4.8210    0.4570   -1.8170 hc        1 NIF      0.065700
     22 H7         -5.5280   -0.9390    0.1490 hc        1 NIF      0.048367
     23 H7A        -5.2860    0.4770    1.2540 hc        1 NIF      0.048367
     24 H7B        -6.5640    0.5400   -0.0310 hc        1 NIF      0.048367
     25 H8          4.4870   -1.5210    0.5980 h1        1 NIF      0.066200
     26 H8A         3.1940   -2.0490   -0.5720 h1        1 NIF      0.066200
     27 H9          3.4320   -0.0300   -1.9260 h1        1 NIF      0.064700
     28 H9A         5.0860   -0.7390   -1.6440 h1        1 NIF      0.064700
     29 H10         4.1780    2.5860    0.7150 h1        1 NIF      0.064700
     30 H10A        2.8490    2.0700   -0.4200 h1        1 NIF      0.064700
     31 H11         2.3250    1.2980    1.8690 h1        1 NIF      0.066200
     32 H11A        3.9620    0.5310    2.0510 h1        1 NIF      0.066200
     33 HN4         5.5480    0.9750   -0.1870 hn        1 NIF      0.349800
@<TRIPOS>BOND
     1    1    2 2   
     2    1    4 1   
     3    1   13 1   
     4    2    6 1   
     5    3   11 2   
     6    4    5 1   
     7    5    6 1   
     8    5    8 2   
     9    6   11 1   
    10    7    8 1   
    11    7    9 2   
    12    7   12 1   
    13    9   11 1   
    14    9   19 1   
    15   10   16 1   
    16   10   17 1   
    17   10   33 1   
    18   12   15 1   
    19   12   18 1   
    20   13   14 1   
    21   13   20 1   
    22   13   21 1   
    23   14   22 1   
    24   14   23 1   
    25   14   24 1   
    26   15   16 1   
    27   15   25 1   
    28   15   26 1   
    29   16   27 1   
    30   16   28 1   
    31   17   18 1   
    32   17   29 1   
    33   17   30 1   
    34   18   31 1   
    35   18   32 1   
@<TRIPOS>SUBSTRUCTURE
     1 NIF         1 TEMP              0 ****  ****    0 ROOT
