@<TRIPOS>MOLECULE
NIG
   20    18     1     0     0
SMALL
bcc


@<TRIPOS>ATOM
      1 O1          0.5870   -0.0200    0.2130 o         1 NIG     -0.868800
      2 NF         -0.2070   -2.2720   -3.4460 n2        1 NIG     -0.973100
      3 N           0.7500   -0.1140   -2.8250 nh        1 NIG     -0.975800
      4 CA          2.9430    0.3820   -0.0480 ce        1 NIG     -0.255200
      5 CB          2.9650    1.2690   -1.0470 c2        1 NIG     -0.145200
      6 CG          4.1850    1.6150   -1.8120 c3        1 NIG     -0.160200
      7 CD          3.9360    2.1150   -3.2390 c         1 NIG      0.909600
      8 OE1         4.7340    2.9870   -3.7020 o         1 NIG     -0.870300
      9 OE2         2.9850    1.6380   -3.9300 o         1 NIG     -0.870300
     10 C           1.7310    0.0320    0.7650 c         1 NIG      0.897800
     11 O2          1.8920   -0.2280    1.9980 o         1 NIG     -0.868800
     12 HNF         0.9050   -1.0710   -4.6670 h5        1 NIG     -0.005200
     13 HF         -0.5690   -2.3980   -2.5250 hn        1 NIG      0.357400
     14 HN          1.4810    0.5130   -3.1110 hn        1 NIG      0.462800
     15 HA          0.6010   -0.1750   -1.8350 hn        1 NIG      0.462800
     16 HB1         3.8560   -0.1510    0.2600 ha        1 NIG      0.086000
     17 HB2         2.0500    1.8050   -1.3460 ha        1 NIG      0.127000
     18 HG1         4.7480    2.4140   -1.2580 hc        1 NIG      0.021700
     19 HG2         4.8640    0.7250   -1.8880 hc        1 NIG      0.021700
     20 CF          0.4910   -1.1890   -3.6350 c2        1 NIG      0.645100
@<TRIPOS>BOND
     1    1   10 1   
     2    2   13 1   
     3    2   20 2   
     4    3   14 1   
     5    3   15 1   
     6    3   20 1   
     7    4    5 2   
     8    4   10 1   
     9    4   16 1   
    10    5    6 1   
    11    5   17 1   
    12    6    7 1   
    13    6   18 1   
    14    6   19 1   
    15    7    8 1   
    16    7    9 1   
    17   10   11 1   
    18   12   20 1   
@<TRIPOS>SUBSTRUCTURE
     1 NIG         1 TEMP              0 ****  ****    0 ROOT
