@<TRIPOS>MOLECULE
NIG
   20    17     1     0     0
SMALL
bcc


@<TRIPOS>ATOM
      1 O1         -0.6240    0.3040    2.6410 o         1 NIG     -0.852300
      2 NF          1.2160    3.7640    0.0450 n1        1 NIG     -0.756800
      3 CF          0.3510    2.8050   -0.1400 c1        1 NIG      0.465300
      4 N           0.6260    1.4770    0.3620 n2        1 NIG     -0.696000
      5 CA         -0.3600    0.4700    0.2630 c3        1 NIG      0.088500
      6 CB          0.3170   -0.9060    0.0810 c3        1 NIG     -0.056400
      7 CG         -0.4800   -1.7320   -0.9700 c3        1 NIG     -0.183400
      8 CD          0.1550   -3.1020   -1.1350 c         1 NIG      0.906600
      9 OE1        -0.3020   -4.0820   -0.5020 o         1 NIG     -0.873300
     10 OE2         1.0720   -3.2690   -1.9680 o         1 NIG     -0.873300
     11 C          -1.1840    0.4570    1.5070 c         1 NIG      0.907600
     12 O2         -2.4480    0.5310    1.4300 o         1 NIG     -0.852300
     13 HNF         1.9990    3.5960    0.4930 DU        1 NIG      0.096000
     14 HF         -0.4860    2.9840   -0.6200 ha        1 NIG      0.089500
     15 HN          1.4210    1.3100    0.8350 hn        1 NIG      0.427800
     16 HA         -0.9610    0.6600   -0.5400 h1        1 NIG      0.029700
     17 HB1         1.2230   -0.7820   -0.2240 hc        1 NIG      0.052700
     18 HB2         0.3240   -1.3920    0.9500 hc        1 NIG      0.052700
     19 HG1        -0.4700   -1.2580   -1.8360 hc        1 NIG      0.013700
     20 HG2        -1.3890   -1.8350   -0.6710 hc        1 NIG      0.013700
@<TRIPOS>BOND
     1    1   11 1   
     2    2    3 3   
     3    3   14 1   
     4    4    5 1   
     5    4   15 1   
     6    5    6 1   
     7    5   11 1   
     8    5   16 1   
     9    6    7 1   
    10    6   17 1   
    11    6   18 1   
    12    7    8 1   
    13    7   19 1   
    14    7   20 1   
    15    8    9 1   
    16    8   10 1   
    17   11   12 1   
@<TRIPOS>SUBSTRUCTURE
     1 NIG         1 TEMP              0 ****  ****    0 ROOT
