@<TRIPOS>MOLECULE
NIG
   20    19     1     0     0
SMALL
bcc


@<TRIPOS>ATOM
      1 O1         -2.3060    1.4600   -1.1600 o         1 NIG     -0.855800
      2 NF         -2.5490   -2.3870    0.8850 n2        1 NIG     -0.924100
      3 N          -1.1840   -1.0650   -0.6900 nh        1 NIG     -0.807200
      4 CA         -0.8030    0.0590    0.1580 c3        1 NIG      0.055500
      5 CB          0.6410    0.5130   -0.1130 c3        1 NIG     -0.044400
      6 CG          1.6700   -0.4970    0.3380 c3        1 NIG     -0.180400
      7 CD          3.1100   -0.0740    0.0240 c         1 NIG      0.903600
      8 OE1         3.4460    0.1660   -1.1750 o         1 NIG     -0.875800
      9 OE2         3.9440   -0.0250    0.9810 o         1 NIG     -0.875800
     10 C          -1.7630    1.2820   -0.0300 c         1 NIG      0.895600
     11 O2         -1.9720    2.0200    0.9730 o         1 NIG     -0.855800
     12 HNF        -2.2300   -1.8640    1.6710 hn        1 NIG      0.373400
     13 HF         -2.5250   -2.5950   -1.1350 h5        1 NIG     -0.023200
     14 HN         -1.3290   -0.7490   -1.6310 hn        1 NIG      0.406800
     15 HA         -0.8620   -0.2570    1.2380 h1        1 NIG      0.041700
     16 HB1         0.7860    0.7300   -1.2030 hc        1 NIG      0.048200
     17 HB2         0.7860    1.4750    0.4440 hc        1 NIG      0.048200
     18 HG1         1.5740   -0.6670    1.4410 hc        1 NIG      0.017700
     19 HG2         1.4920   -1.4770   -0.1750 hc        1 NIG      0.017700
     20 CF         -2.1290   -1.9970   -0.2760 c2        1 NIG      0.632100
@<TRIPOS>BOND
     1    1   10 1   
     2    2   12 1   
     3    2   20 2   
     4    3    4 1   
     5    3   14 1   
     6    3   20 1   
     7    4    5 1   
     8    4   10 1   
     9    4   15 1   
    10    5    6 1   
    11    5   16 1   
    12    5   17 1   
    13    6    7 1   
    14    6   18 1   
    15    6   19 1   
    16    7    8 1   
    17    7    9 1   
    18   10   11 1   
    19   13   20 1   
@<TRIPOS>SUBSTRUCTURE
     1 NIG         1 TEMP              0 ****  ****    0 ROOT
