@<TRIPOS>MOLECULE
NIH
   37    33     1     0     0
SMALL
bcc


@<TRIPOS>ATOM
      1 N1          0.8850   -2.7050   -0.2630 n2        1 NIH     -0.335000
      2 C2          0.0540   -1.6560   -0.5290 c1        1 NIH      0.273000
      3 N3         -0.9580   -1.7980   -1.4380 n1        1 NIH     -0.275000
      4 C4         -1.1330   -2.9750   -2.0720 c1        1 NIH      0.101000
      5 C5         -0.3000   -4.0270   -1.8050 c1        1 NIH     -0.337000
      6 C6          0.7080   -3.8850   -0.8980 c1        1 NIH      0.368000
      7 C7         -0.5190   -5.3640   -2.4910 c2        1 NIH      0.307000
      8 N8          0.3670   -6.4810   -2.2070 n         1 NIH     -0.185000
      9 O9         -1.4530   -5.5050   -3.2740 o         1 NIH     -0.356000
     10 O10         1.4320   -4.7990   -0.6680 o         1 NIH     -0.360000
     11 O11         0.4130   -7.5320   -3.0460 oh        1 NIH     -0.240000
     12 N12         0.2440   -0.3710    0.1680 n3        1 NIH     -0.311000
     13 C13         0.3110    0.8290   -0.5750 c3        1 NIH      0.015000
     14 C14         0.0820    2.0550    0.3800 c2        1 NIH     -0.120000
     15 C15         1.0770    2.4290    1.2890 c2        1 NIH     -0.040000
     16 C16         0.9230    3.5920    2.0580 c1        1 NIH     -0.168000
     17 C17        -0.2170    4.3710    1.9140 c1        1 NIH     -0.024000
     18 C18        -1.2170    3.9910    0.9970 c1        1 NIH     -0.167000
     19 C19        -1.0610    2.8380    0.2370 c1        1 NIH     -0.041000
     20 C20        -2.4310    4.8650    0.7970 c3        1 NIH      0.469000
     21 F21        -3.2100    4.3390   -0.1770 f         1 NIH     -0.157667
     22 F22        -2.0420    6.0960    0.4380 f         1 NIH     -0.157667
     23 F23        -3.1280    4.9290    1.9390 f         1 NIH     -0.157667
     24 C24         2.0010    3.9730    3.1200 c3        1 NIH      0.469000
     25 F25         1.4630    3.9300    4.3310 f         1 NIH     -0.157667
     26 F26         2.4490    5.2030    2.8760 f         1 NIH     -0.157667
     27 F27         3.0140    3.1100    3.0530 f         1 NIH     -0.157667
     28 H1          1.5840   -2.6060    0.3670 hn        1 NIH      0.252000
     29 H4         -1.8800   -3.0810   -2.7440 ha        1 NIH      0.199000
     30 H8          0.8340   -6.5040   -1.4260 hn        1 NIH      0.242000
     31 H11         0.7530   -8.2530   -2.6100 ho        1 NIH      0.231000
     32 H12         0.3580   -0.3550    1.0850 hn        1 NIH      0.231000
     33 H131        1.1780    0.9010   -0.9890 h1        1 NIH      0.119500
     34 H132       -0.3760    0.8230   -1.2600 h1        1 NIH      0.119500
     35 H15         1.8730    1.8820    1.3880 ha        1 NIH      0.168000
     36 H17        -0.3250    5.1650    2.4360 ha        1 NIH      0.177000
     37 H19        -1.7540    2.5770   -0.4010 ha        1 NIH      0.164000
@<TRIPOS>BOND
     1    1    6 1   
     2    1   28 1   
     3    2    3 1   
     4    2   12 1   
     5    4    5 1   
     6    4   29 1   
     7    5    7 1   
     8    6   10 1   
     9    7    8 1   
    10    7    9 1   
    11    8   11 1   
    12    8   30 1   
    13   11   31 1   
    14   12   13 1   
    15   12   32 1   
    16   13   14 1   
    17   13   33 1   
    18   13   34 1   
    19   14   15 1   
    20   14   19 1   
    21   15   16 1   
    22   15   35 1   
    23   16   24 1   
    24   17   18 1   
    25   17   36 1   
    26   18   20 1   
    27   19   37 1   
    28   20   21 1   
    29   20   22 1   
    30   20   23 1   
    31   24   25 1   
    32   24   26 1   
    33   24   27 1   
@<TRIPOS>SUBSTRUCTURE
     1 NIH         1 TEMP              0 ****  ****    0 ROOT
