@<TRIPOS>MOLECULE
NIH
   38    39     1     0     0
SMALL
bcc


@<TRIPOS>ATOM
      1 N1         -0.0400   -0.0390    0.0110 ns        1 NIH     -0.484400
      2 C2          1.3620   -0.0340    0.0090 cc        1 NIH      0.762800
      3 N3          2.0920   -0.0390    1.2080 nd        1 NIH     -0.664300
      4 C4          1.4180   -0.0480    2.3490 cd        1 NIH      0.297600
      5 C5          0.0020   -0.0530    2.4520 cc        1 NIH     -0.490400
      6 C6         -0.7680   -0.0480    1.2230 c         1 NIH      0.747700
      7 C7         -0.5760   -0.0630    3.7640 c         1 NIH      0.621300
      8 N8         -2.1340   -0.0690    3.7770 ny        1 NIH     -0.460300
      9 O9         -0.0370   -0.0680    4.8570 o         1 NIH     -0.414100
     10 O10        -2.0150   -0.0520    1.1390 o         1 NIH     -0.673500
     11 O11        -2.5550   -0.0760    5.0580 oh        1 NIH     -0.341300
     12 N12         2.0300   -0.0250   -1.1810 nu        1 NIH     -0.780200
     13 C13         3.4850   -0.0210   -1.2570 c3        1 NIH      0.264100
     14 C14         3.9570   -0.0110   -2.6790 ca        1 NIH     -0.161300
     15 C15         4.2020    1.2040   -3.3260 ca        1 NIH     -0.035000
     16 C16         4.6760    1.2050   -4.6390 ca        1 NIH     -0.172300
     17 C17         4.9120    0.0050   -5.3150 ca        1 NIH     -0.006000
     18 C18         4.6670   -1.2020   -4.6580 ca        1 NIH     -0.172300
     19 C19         4.1930   -1.2180   -3.3450 ca        1 NIH     -0.035000
     20 C20         4.9300   -2.5290   -5.3720 c3        1 NIH      0.691200
     21 F21         4.8820   -2.4520   -6.7400 f         1 NIH     -0.222633
     22 F22         6.1590   -3.0710   -5.0920 f         1 NIH     -0.222633
     23 F23         4.0340   -3.5170   -5.0450 f         1 NIH     -0.222633
     24 C24         4.9490    2.5400   -5.3330 c3        1 NIH      0.691200
     25 F25         6.1830    3.0680   -5.0460 f         1 NIH     -0.222633
     26 F26         4.8980    2.4850   -6.7020 f         1 NIH     -0.222633
     27 F27         4.0610    3.5300   -4.9900 f         1 NIH     -0.222633
     28 H1         -0.5700   -0.0350   -0.8390 hn        1 NIH      0.362500
     29 H4          2.0430   -0.0520    3.2720 h4        1 NIH      0.213000
     30 H8         -2.4660    0.7700    3.2660 hn        1 NIH      0.468800
     31 H11        -3.5380   -0.0790    5.0670 ho        1 NIH      0.460000
     32 H12         1.5240   -0.0210   -2.0430 hn        1 NIH      0.468800
     33 H131        3.8740    0.8910   -0.7150 h1        1 NIH      0.094700
     34 H132        3.8800   -0.9360   -0.7250 h1        1 NIH      0.094700
     35 H15         4.0280    2.1630   -2.8080 ha        1 NIH      0.164000
     36 H17         5.2820    0.0120   -6.3570 ha        1 NIH      0.189000
     37 H19         4.0130   -2.1830   -2.8420 ha        1 NIH      0.164000
     38 H82        -2.4600   -0.9060    3.2590 hn        1 NIH      0.468800
@<TRIPOS>BOND
     1    1    2 1   
     2    1    6 1   
     3    1   28 1   
     4    2    3 2   
     5    2   12 1   
     6    3    4 1   
     7    4    5 2   
     8    4   29 1   
     9    5    6 1   
    10    5    7 1   
    11    6   10 2   
    12    7    8 1   
    13    7    9 2   
    14    8   11 1   
    15    8   30 1   
    16    8   38 1   
    17   11   31 1   
    18   12   13 1   
    19   12   32 1   
    20   13   14 1   
    21   13   33 1   
    22   13   34 1   
    23   14   15 ar  
    24   14   19 ar  
    25   15   16 ar  
    26   15   35 1   
    27   16   17 ar  
    28   16   24 1   
    29   17   18 ar  
    30   17   36 1   
    31   18   19 ar  
    32   18   20 1   
    33   19   37 1   
    34   20   21 1   
    35   20   22 1   
    36   20   23 1   
    37   24   25 1   
    38   24   26 1   
    39   24   27 1   
@<TRIPOS>SUBSTRUCTURE
     1 NIH         1 TEMP              0 ****  ****    0 ROOT
