@<TRIPOS>MOLECULE
NIH
   39    40     1     0     0
SMALL
bcc


@<TRIPOS>ATOM
      1 N1          0.2540   -0.7920    0.1530 n         1 NIH     -0.445400
      2 C2          0.9720    0.3330   -0.2100 cc        1 NIH      0.627800
      3 N3          1.1120    1.4290    0.5600 nd        1 NIH     -0.596300
      4 C4          0.4930    1.4360    1.7820 cd        1 NIH      0.296600
      5 C5         -0.2640    0.3680    2.2560 cc        1 NIH     -0.354400
      6 C6         -0.4080   -0.8250    1.4190 c         1 NIH      0.724700
      7 C7         -0.8730    0.4800    3.5750 c         1 NIH      0.568300
      8 N8         -1.7250   -0.6780    4.0870 n4        1 NIH     -0.441300
      9 O9         -0.7820    1.4260    4.3450 o         1 NIH     -0.391100
     10 O10        -1.0420   -1.8490    1.7040 o         1 NIH     -0.566500
     11 O11        -1.7960   -0.7180    5.4350 oh        1 NIH     -0.334300
     12 N12         1.6650    0.3590   -1.5360 n4        1 NIH     -0.754000
     13 C13         3.0770   -0.2120   -1.4360 c3        1 NIH      0.197100
     14 C14         3.7380   -0.1350   -2.7600 ca        1 NIH     -0.229300
     15 C15         4.4730    1.0090   -3.1100 ca        1 NIH     -0.024500
     16 C16         5.1410    1.0530   -4.3320 ca        1 NIH     -0.164800
     17 C17         5.0950   -0.0320   -5.2140 ca        1 NIH      0.035000
     18 C18         4.3650   -1.1700   -4.8540 ca        1 NIH     -0.164800
     19 C19         3.6920   -1.2300   -3.6350 ca        1 NIH     -0.024500
     20 C20         4.3080   -2.3810   -5.7950 c3        1 NIH      0.693700
     21 F21         4.5310   -2.0750   -7.1090 f         1 NIH     -0.209800
     22 F22         5.2200   -3.3540   -5.4810 f         1 NIH     -0.209800
     23 F23         3.0900   -3.0160   -5.7710 f         1 NIH     -0.209800
     24 C24         5.9450    2.3100   -4.6960 c3        1 NIH      0.693700
     25 F25         7.1970    2.3290   -4.1410 f         1 NIH     -0.209800
     26 F26         6.1330    2.4780   -6.0400 f         1 NIH     -0.209800
     27 F27         5.3460    3.4680   -4.2640 f         1 NIH     -0.209800
     28 H1          0.1600   -1.6030   -0.4340 hn        1 NIH      0.387500
     29 H4          0.6470    2.3750    2.3700 h4        1 NIH      0.253000
     30 H8         -2.6790   -0.6200    3.6770 hn        1 NIH      0.504300
     31 H11        -1.9760    0.1900    5.7880 ho        1 NIH      0.493000
     32 H12         1.7330    1.3430   -1.8610 hn        1 NIH      0.491300
     33 H131        3.6280    0.4020   -0.6630 hx        1 NIH      0.123700
     34 H132        2.9850   -1.2780   -1.0800 hx        1 NIH      0.123700
     35 H15         4.5410    1.8730   -2.4250 ha        1 NIH      0.164500
     36 H17         5.6270    0.0110   -6.1870 ha        1 NIH      0.212000
     37 H19         3.1410   -2.1490   -3.3690 ha        1 NIH      0.164500
     38 H82        -1.3060   -1.5990    3.8050 hn        1 NIH      0.504300
     39 H122        1.1260   -0.1660   -2.2400 hn        1 NIH      0.491300
@<TRIPOS>BOND
     1    1    2 1   
     2    1    6 1   
     3    1   28 1   
     4    2    3 2   
     5    2   12 1   
     6    3    4 1   
     7    4    5 2   
     8    4   29 1   
     9    5    6 1   
    10    5    7 1   
    11    6   10 2   
    12    7    8 1   
    13    7    9 2   
    14    8   11 1   
    15    8   30 1   
    16    8   38 1   
    17   11   31 1   
    18   12   13 1   
    19   12   32 1   
    20   12   39 1   
    21   13   14 1   
    22   13   33 1   
    23   13   34 1   
    24   14   15 ar  
    25   14   19 ar  
    26   15   16 ar  
    27   15   35 1   
    28   16   17 ar  
    29   16   24 1   
    30   17   18 ar  
    31   17   36 1   
    32   18   19 ar  
    33   18   20 1   
    34   19   37 1   
    35   20   21 1   
    36   20   22 1   
    37   20   23 1   
    38   24   25 1   
    39   24   26 1   
    40   24   27 1   
@<TRIPOS>SUBSTRUCTURE
     1 NIH         1 TEMP              0 ****  ****    0 ROOT
