@<TRIPOS>MOLECULE
NIH
   37    38     1     0     0
SMALL
bcc


@<TRIPOS>ATOM
      1 N1          3.0240   -0.2330    1.2620 n         1 NIH     -0.495400
      2 C2          2.2520    0.0350    0.1230 cc        1 NIH      0.719800
      3 N3          2.8160    0.3270   -1.0890 nd        1 NIH     -0.703300
      4 C4          4.1720    0.3100   -1.1660 cd        1 NIH      0.241600
      5 C5          5.0240    0.0250   -0.1090 cc        1 NIH     -0.375400
      6 C6          4.4440   -0.2610    1.1930 c         1 NIH      0.729700
      7 C7          6.4790    0.0480   -0.3370 c         1 NIH      0.632300
      8 N8          7.3290   -0.6880    0.5400 n         1 NIH     -0.344400
      9 O9          6.9600    0.5740   -1.3610 o         1 NIH     -0.595100
     10 O10         5.0370   -0.5070    2.2600 o         1 NIH     -0.635500
     11 O11         8.6100   -0.3110    0.5080 oh        1 NIH     -0.435100
     12 N12         0.8610   -0.0580    0.2390 nh        1 NIH     -0.825200
     13 C13         0.0160    0.3610   -0.8600 c3        1 NIH      0.259100
     14 C14        -1.4430    0.2220   -0.5350 ca        1 NIH     -0.126300
     15 C15        -2.2760    1.3430   -0.5770 ca        1 NIH     -0.040500
     16 C16        -3.6410    1.2030   -0.3150 ca        1 NIH     -0.174800
     17 C17        -4.1850   -0.0450   -0.0060 ca        1 NIH     -0.025000
     18 C18        -3.3440   -1.1590    0.0360 ca        1 NIH     -0.174800
     19 C19        -1.9790   -1.0340   -0.2310 ca        1 NIH     -0.040500
     20 C20        -3.9220   -2.5340    0.3570 c3        1 NIH      0.690200
     21 F21        -5.0660   -2.5060    1.1160 f         1 NIH     -0.228967
     22 F22        -4.2660   -3.2680   -0.7520 f         1 NIH     -0.228967
     23 F23        -3.0680   -3.3530    1.0560 f         1 NIH     -0.228967
     24 C24        -4.5490    2.4280   -0.3820 c3        1 NIH      0.690200
     25 F25        -5.0410    2.6870   -1.6370 f         1 NIH     -0.228967
     26 F26        -5.6640    2.3510    0.4140 f         1 NIH     -0.228967
     27 F27        -3.9390    3.6000   -0.0070 f         1 NIH     -0.228967
     28 H1          2.6020   -0.4530    2.1390 hn        1 NIH      0.338500
     29 H4          4.5830    0.5540   -2.1700 h4        1 NIH      0.199000
     30 H8          7.0270   -0.6760    1.5120 hn        1 NIH      0.328500
     31 H11         8.9480   -0.5820   -0.3690 ho        1 NIH      0.432000
     32 H12         0.4680    0.0190    1.1520 hn        1 NIH      0.435800
     33 H131        0.2420    1.4310   -1.1470 h1        1 NIH      0.079700
     34 H132        0.2550   -0.2880   -1.7550 h1        1 NIH      0.079700
     35 H15        -1.8660    2.3390   -0.8160 ha        1 NIH      0.166000
     36 H17        -5.2620   -0.1480    0.2120 ha        1 NIH      0.177000
     37 H19        -1.3280   -1.9250   -0.2000 ha        1 NIH      0.166000
@<TRIPOS>BOND
     1    1    2 1   
     2    1    6 1   
     3    1   28 1   
     4    2    3 2   
     5    2   12 1   
     6    3    4 1   
     7    4    5 2   
     8    4   29 1   
     9    5    6 1   
    10    5    7 1   
    11    6   10 2   
    12    7    8 1   
    13    7    9 2   
    14    8   11 1   
    15    8   30 1   
    16   11   31 1   
    17   12   13 1   
    18   12   32 1   
    19   13   14 1   
    20   13   33 1   
    21   13   34 1   
    22   14   15 ar  
    23   14   19 ar  
    24   15   16 ar  
    25   15   35 1   
    26   16   17 ar  
    27   16   24 1   
    28   17   18 ar  
    29   17   36 1   
    30   18   19 ar  
    31   18   20 1   
    32   19   37 1   
    33   20   21 1   
    34   20   22 1   
    35   20   23 1   
    36   24   25 1   
    37   24   26 1   
    38   24   27 1   
@<TRIPOS>SUBSTRUCTURE
     1 NIH         1 TEMP              0 ****  ****    0 ROOT
