@<TRIPOS>MOLECULE
NII
   86    89     1     0     0
SMALL
bcc


@<TRIPOS>ATOM
      1 O6         -0.0480   -0.2920    0.0830 oh        1 NII     -0.596800
      2 C30         1.3640   -0.1840    0.0210 c3        1 NII      0.137400
      3 C29         1.8490   -0.1560    1.4620 c3        1 NII     -0.102400
      4 C28         3.3740   -0.0850    1.4850 c3        1 NII      0.205800
      5 N3          3.9010   -0.0560    2.8270 nu        1 NII     -0.747600
      6 C9          5.2340   -0.0220    3.1100 ca        1 NII      0.274600
      7 C8          6.1850    0.0120    2.0210 ca        1 NII     -0.112000
      8 C7          7.5350    0.0640    2.2440 ca        1 NII     -0.086600
      9 C14         8.4350    0.0740    1.0650 c         1 NII      0.719100
     10 O1          8.0100    0.0800   -0.1050 o         1 NII     -0.607500
     11 N2          9.8180    0.0710    1.3030 n         1 NII     -0.498400
     12 C18        10.7220   -0.0540    0.1790 c3        1 NII      0.101000
     13 C19        11.2960    1.2860   -0.3070 c3        1 NII     -0.134400
     14 C20        12.2450    1.0000   -1.4630 c3        1 NII      0.108800
     15 N5         12.8990    2.2390   -2.0080 nx        1 NII     -0.679400
     16 C24        14.0050    2.7000   -1.1280 c3        1 NII      0.081100
     17 C23        13.3940    2.0050   -3.3910 c3        1 NII      0.081100
     18 C13        10.3710    0.2230    2.5950 c         1 NII      0.745100
     19 O4         11.6080    0.4060    2.6380 o         1 NII     -0.662500
     20 C10         5.7560   -0.0110    4.4280 ca        1 NII     -0.241600
     21 C11         4.8730   -0.0690    5.6030 c         1 NII      0.745100
     22 O2          3.6360   -0.2520    5.5600 o         1 NII     -0.662500
     23 N1          5.4260    0.0830    6.8960 n         1 NII     -0.498400
     24 C15         4.5220    0.2080    8.0200 c3        1 NII      0.101000
     25 C16         3.9470   -1.1310    8.5050 c3        1 NII     -0.134400
     26 C17         2.9990   -0.8460    9.6610 c3        1 NII      0.108800
     27 N4          2.3450   -2.0850   10.2060 nx        1 NII     -0.679400
     28 C21         1.8500   -1.8510   11.5890 c3        1 NII      0.081100
     29 C22         1.2390   -2.5460    9.3270 c3        1 NII      0.081100
     30 C5          7.1650    0.0580    4.6360 ca        1 NII      0.006000
     31 C6          7.7100    0.0900    5.9540 ca        1 NII     -0.086600
     32 C12         6.8090    0.0800    7.1340 c         1 NII      0.719100
     33 O3          7.2340    0.0740    8.3030 o         1 NII     -0.607500
     34 C4          8.0790    0.0960    3.5620 ca        1 NII      0.006000
     35 C3          9.4880    0.1650    3.7700 ca        1 NII     -0.241600
     36 C2         10.0100    0.1760    5.0890 ca        1 NII      0.274600
     37 C1          9.0590    0.1420    6.1770 ca        1 NII     -0.112000
     38 N6         11.3430    0.2090    5.3710 nu        1 NII     -0.747600
     39 C25        11.8700    0.2390    6.7130 c3        1 NII      0.205800
     40 C26        13.3950    0.3090    6.7360 c3        1 NII     -0.102400
     41 C27        13.8800    0.3380    8.1770 c3        1 NII      0.137400
     42 O5         15.2920    0.4460    8.1160 oh        1 NII     -0.596800
     43 HO6        -0.3680   -0.2900   -0.8280 ho        1 NII      0.415000
     44 H30         1.7940   -1.0660   -0.5260 h1        1 NII      0.028200
     45 H30A        1.6580    0.7570   -0.5160 h1        1 NII      0.028200
     46 H29         1.4000    0.7310    1.9820 hc        1 NII      0.070200
     47 H29A        1.4840   -1.0760    1.9890 hc        1 NII      0.070200
     48 H28         3.7080    0.8420    0.9340 h1        1 NII      0.052700
     49 H28A        3.7910   -0.9820    0.9390 h1        1 NII      0.052700
     50 HN3         3.2400   -0.0830    3.5750 hn        1 NII      0.474800
     51 H8          5.8230   -0.0080    0.9760 ha        1 NII      0.177000
     52 H18        10.1680   -0.5480   -0.6710 h1        1 NII      0.083200
     53 H18A       11.5790   -0.7180    0.4940 h1        1 NII      0.083200
     54 H19        10.4620    1.9580   -0.6380 hc        1 NII      0.080200
     55 H19A       11.8350    1.7800    0.5450 hc        1 NII      0.080200
     56 H20        13.0630    0.2970   -1.1330 hx        1 NII      0.107200
     57 H20A       11.6730    0.5150   -2.3070 hx        1 NII      0.107200
     58 H24        13.6160    2.8490   -0.0850 hx        1 NII      0.107700
     59 H24A       14.4120    3.6710   -1.5220 hx        1 NII      0.107700
     60 H24B       14.8220    1.9300   -1.1160 hx        1 NII      0.107700
     61 H23        14.1230    1.1520   -3.3880 hx        1 NII      0.107700
     62 H23A       12.5280    1.7580   -4.0620 hx        1 NII      0.107700
     63 H23B       13.9040    2.9340   -3.7640 hx        1 NII      0.107700
     64 H15         3.6650    0.8720    7.7050 h1        1 NII      0.083200
     65 H15A        5.0760    0.7020    8.8700 h1        1 NII      0.083200
     66 H16         4.7820   -1.8040    8.8360 hc        1 NII      0.080200
     67 H16A        3.4090   -1.6260    7.6530 hc        1 NII      0.080200
     68 H17         3.5710   -0.3610   10.5050 hx        1 NII      0.107200
     69 H17A        2.1810   -0.1430    9.3310 hx        1 NII      0.107200
     70 H21         1.1210   -0.9980   11.5870 hx        1 NII      0.107700
     71 H21A        2.7160   -1.6040   12.2600 hx        1 NII      0.107700
     72 H21B        1.3400   -2.7800   11.9620 hx        1 NII      0.107700
     73 H22         0.8320   -3.5160    9.7200 hx        1 NII      0.107700
     74 H22A        0.4220   -1.7760    9.3140 hx        1 NII      0.107700
     75 H22B        1.6280   -2.6950    8.2840 hx        1 NII      0.107700
     76 H1          9.4210    0.1620    7.2220 ha        1 NII      0.177000
     77 HN6        12.0050    0.2360    4.6230 hn        1 NII      0.474800
     78 H25        11.4530    1.1350    7.2600 h1        1 NII      0.052700
     79 H25A       11.5370   -0.6890    7.2650 h1        1 NII      0.052700
     80 H26        13.7600    1.2300    6.2090 hc        1 NII      0.070200
     81 H26A       13.8440   -0.5770    6.2160 hc        1 NII      0.070200
     82 H27        13.5860   -0.6040    8.7140 h1        1 NII      0.028200
     83 H27A       13.4500    1.2200    8.7240 h1        1 NII      0.028200
     84 HO5        15.6120    0.4440    9.0260 ho        1 NII      0.415000
     85 H51        12.1850    2.9820   -2.0410 hn        1 NII      0.451800
     86 H41         3.0580   -2.8280   10.2390 hn        1 NII      0.451800
@<TRIPOS>BOND
     1    1    2 1   
     2    1   43 1   
     3    2    3 1   
     4    2   44 1   
     5    2   45 1   
     6    3    4 1   
     7    3   46 1   
     8    3   47 1   
     9    4    5 1   
    10    4   48 1   
    11    4   49 1   
    12    5    6 1   
    13    5   50 1   
    14    6    7 ar  
    15    6   20 ar  
    16    7    8 ar  
    17    7   51 1   
    18    8    9 1   
    19    8   34 ar  
    20    9   10 2   
    21    9   11 1   
    22   11   12 1   
    23   11   18 1   
    24   12   13 1   
    25   12   52 1   
    26   12   53 1   
    27   13   14 1   
    28   13   54 1   
    29   13   55 1   
    30   14   15 1   
    31   14   56 1   
    32   14   57 1   
    33   15   16 1   
    34   15   17 1   
    35   15   85 1   
    36   16   58 1   
    37   16   59 1   
    38   16   60 1   
    39   17   61 1   
    40   17   62 1   
    41   17   63 1   
    42   18   19 2   
    43   18   35 1   
    44   20   21 1   
    45   20   30 ar  
    46   21   22 2   
    47   21   23 1   
    48   23   24 1   
    49   23   32 1   
    50   24   25 1   
    51   24   64 1   
    52   24   65 1   
    53   25   26 1   
    54   25   66 1   
    55   25   67 1   
    56   26   27 1   
    57   26   68 1   
    58   26   69 1   
    59   27   28 1   
    60   27   29 1   
    61   27   86 1   
    62   28   70 1   
    63   28   71 1   
    64   28   72 1   
    65   29   73 1   
    66   29   74 1   
    67   29   75 1   
    68   30   31 ar  
    69   30   34 ar  
    70   31   32 1   
    71   31   37 ar  
    72   32   33 2   
    73   34   35 ar  
    74   35   36 ar  
    75   36   37 ar  
    76   36   38 1   
    77   37   76 1   
    78   38   39 1   
    79   38   77 1   
    80   39   40 1   
    81   39   78 1   
    82   39   79 1   
    83   40   41 1   
    84   40   80 1   
    85   40   81 1   
    86   41   42 1   
    87   41   82 1   
    88   41   83 1   
    89   42   84 1   
@<TRIPOS>SUBSTRUCTURE
     1 NII         1 TEMP              0 ****  ****    0 ROOT
