@<TRIPOS>MOLECULE
NII
   84    87     1     0     0
SMALL
bcc


@<TRIPOS>ATOM
      1 O6          3.8970    7.7320   -0.1140 oh        1 NII     -0.597800
      2 C30         2.7410    6.9270    0.0530 c3        1 NII      0.134400
      3 C29         3.1590    5.4970   -0.2480 c3        1 NII     -0.100400
      4 C28         1.9520    4.5760   -0.0800 c3        1 NII      0.209800
      5 N3          2.2600    3.1990   -0.3640 nh        1 NII     -0.757600
      6 C9          1.3620    2.1860   -0.1550 ca        1 NII      0.259600
      7 C8         -0.0030    2.5160    0.1760 ca        1 NII     -0.121000
      8 C7         -0.9640    1.5520    0.3260 ca        1 NII     -0.088600
      9 C14        -2.3410    1.9830    0.6830 c         1 NII      0.714100
     10 O1         -2.6140    3.1790    0.8980 o         1 NII     -0.611500
     11 N2         -3.3290    0.9980    0.7830 n         1 NII     -0.485400
     12 C18        -4.6950    1.4030    1.0830 c3        1 NII      0.086000
     13 C19        -5.5820    1.5740   -0.1510 c3        1 NII     -0.099400
     14 C20        -6.9830    1.9700    0.3100 c3        1 NII      0.173800
     15 N5         -7.8770    2.3460   -0.7780 n3        1 NII     -0.736600
     16 C24        -8.1210    1.2770   -1.7190 c3        1 NII      0.156100
     17 C23        -9.0960    2.9530   -0.2910 c3        1 NII      0.156100
     18 C13        -3.0730   -0.3660    0.5380 c         1 NII      0.736100
     19 O4         -4.0590   -1.1350    0.5540 o         1 NII     -0.649500
     20 C10         1.6880    0.8150   -0.2860 ca        1 NII     -0.226600
     21 C11         3.0730    0.3660   -0.5420 c         1 NII      0.736100
     22 O2          4.0590    1.1350   -0.5570 o         1 NII     -0.649500
     23 N1          3.3290   -0.9980   -0.7870 n         1 NII     -0.485400
     24 C15         4.6950   -1.4030   -1.0870 c3        1 NII      0.086000
     25 C16         5.5820   -1.5740    0.1470 c3        1 NII     -0.099400
     26 C17         6.9830   -1.9710   -0.3140 c3        1 NII      0.173800
     27 N4          7.8770   -2.3460    0.7730 n3        1 NII     -0.736600
     28 C21         9.0970   -2.9530    0.2870 c3        1 NII      0.156100
     29 C22         8.1220   -1.2770    1.7150 c3        1 NII      0.156100
     30 C5          0.6680   -0.1700   -0.1540 ca        1 NII      0.002000
     31 C6          0.9640   -1.5520   -0.3300 ca        1 NII     -0.088600
     32 C12         2.3410   -1.9830   -0.6870 c         1 NII      0.714100
     33 O3          2.6140   -3.1790   -0.9020 o         1 NII     -0.611500
     34 C4         -0.6670    0.1700    0.1510 ca        1 NII      0.002000
     35 C3         -1.6880   -0.8150    0.2820 ca        1 NII     -0.226600
     36 C2         -1.3620   -2.1860    0.1510 ca        1 NII      0.259600
     37 C1          0.0030   -2.5170   -0.1800 ca        1 NII     -0.121000
     38 N6         -2.2600   -3.2000    0.3600 nh        1 NII     -0.757600
     39 C25        -1.9520   -4.5770    0.0760 c3        1 NII      0.209800
     40 C26        -3.1590   -5.4980    0.2450 c3        1 NII     -0.100400
     41 C27        -2.7400   -6.9280   -0.0560 c3        1 NII      0.134400
     42 O5         -3.8960   -7.7330    0.1110 oh        1 NII     -0.597800
     43 HO6         3.6290    8.6390    0.0730 ho        1 NII      0.405000
     44 H30         2.3600    7.0150    1.1060 h1        1 NII      0.025200
     45 H30A        1.9340    7.2610   -0.6540 h1        1 NII      0.025200
     46 H29         3.5600    5.4420   -1.2940 hc        1 NII      0.069700
     47 H29A        3.9890    5.2000    0.4450 hc        1 NII      0.069700
     48 H28         1.5650    4.6760    0.9780 h1        1 NII      0.045200
     49 H28A        1.1320    4.9180   -0.7770 h1        1 NII      0.045200
     50 HN3         3.2210    2.9720   -0.5190 hn        1 NII      0.473800
     51 H8         -0.2960    3.5730    0.3200 ha        1 NII      0.171000
     52 H18        -5.1480    0.6150    1.7520 h1        1 NII      0.073200
     53 H18A       -4.6530    2.3770    1.6500 h1        1 NII      0.073200
     54 H19        -5.1580    2.3620   -0.8260 hc        1 NII      0.061200
     55 H19A       -5.6180    0.6090   -0.7210 hc        1 NII      0.061200
     56 H20        -7.4110    1.1190    0.9200 h1        1 NII      0.030700
     57 H20A       -6.8930    2.8640    0.9930 h1        1 NII      0.030700
     58 H24        -8.5740    0.3620   -1.2460 h1        1 NII      0.031033
     59 H24A       -8.8160    1.6430   -2.5190 h1        1 NII      0.031033
     60 H24B       -7.1490    0.9870   -2.1970 h1        1 NII      0.031033
     61 H23        -8.8360    3.8480    0.3320 h1        1 NII      0.031033
     62 H23A       -9.7070    3.2930   -1.1680 h1        1 NII      0.031033
     63 H23B       -9.7230    2.2560    0.3310 h1        1 NII      0.031033
     64 H15         4.6530   -2.3770   -1.6540 h1        1 NII      0.073200
     65 H15A        5.1480   -0.6160   -1.7560 h1        1 NII      0.073200
     66 H16         5.6190   -0.6090    0.7170 hc        1 NII      0.061200
     67 H16A        5.1590   -2.3620    0.8220 hc        1 NII      0.061200
     68 H17         6.8930   -2.8640   -0.9970 h1        1 NII      0.030700
     69 H17A        7.4110   -1.1200   -0.9240 h1        1 NII      0.030700
     70 H21         9.7230   -2.2560   -0.3350 h1        1 NII      0.031033
     71 H21A        9.7070   -3.2930    1.1640 h1        1 NII      0.031033
     72 H21B        8.8360   -3.8490   -0.3360 h1        1 NII      0.031033
     73 H22         7.1500   -0.9870    2.1930 h1        1 NII      0.031033
     74 H22A        8.8170   -1.6440    2.5150 h1        1 NII      0.031033
     75 H22B        8.5740   -0.3620    1.2410 h1        1 NII      0.031033
     76 H1          0.2960   -3.5730   -0.3230 ha        1 NII      0.171000
     77 HN6        -3.2210   -2.9720    0.5150 hn        1 NII      0.473800
     78 H25        -1.5650   -4.6760   -0.9810 h1        1 NII      0.045200
     79 H25A       -1.1320   -4.9180    0.7740 h1        1 NII      0.045200
     80 H26        -3.5600   -5.4420    1.2900 hc        1 NII      0.069700
     81 H26A       -3.9880   -5.2010   -0.4490 hc        1 NII      0.069700
     82 H27        -2.3600   -7.0160   -1.1100 h1        1 NII      0.025200
     83 H27A       -1.9340   -7.2620    0.6510 h1        1 NII      0.025200
     84 HO5        -3.6280   -8.6400   -0.0760 ho        1 NII      0.405000
@<TRIPOS>BOND
     1    1    2 1   
     2    1   43 1   
     3    2    3 1   
     4    2   44 1   
     5    2   45 1   
     6    3    4 1   
     7    3   46 1   
     8    3   47 1   
     9    4    5 1   
    10    4   48 1   
    11    4   49 1   
    12    5    6 1   
    13    5   50 1   
    14    6    7 ar  
    15    6   20 ar  
    16    7    8 ar  
    17    7   51 1   
    18    8    9 1   
    19    8   34 ar  
    20    9   10 2   
    21    9   11 1   
    22   11   12 1   
    23   11   18 1   
    24   12   13 1   
    25   12   52 1   
    26   12   53 1   
    27   13   14 1   
    28   13   54 1   
    29   13   55 1   
    30   14   15 1   
    31   14   56 1   
    32   14   57 1   
    33   15   16 1   
    34   15   17 1   
    35   16   58 1   
    36   16   59 1   
    37   16   60 1   
    38   17   61 1   
    39   17   62 1   
    40   17   63 1   
    41   18   19 2   
    42   18   35 1   
    43   20   21 1   
    44   20   30 ar  
    45   21   22 2   
    46   21   23 1   
    47   23   24 1   
    48   23   32 1   
    49   24   25 1   
    50   24   64 1   
    51   24   65 1   
    52   25   26 1   
    53   25   66 1   
    54   25   67 1   
    55   26   27 1   
    56   26   68 1   
    57   26   69 1   
    58   27   28 1   
    59   27   29 1   
    60   28   70 1   
    61   28   71 1   
    62   28   72 1   
    63   29   73 1   
    64   29   74 1   
    65   29   75 1   
    66   30   31 ar  
    67   30   34 ar  
    68   31   32 1   
    69   31   37 ar  
    70   32   33 2   
    71   34   35 ar  
    72   35   36 ar  
    73   36   37 ar  
    74   36   38 1   
    75   37   76 1   
    76   38   39 1   
    77   38   77 1   
    78   39   40 1   
    79   39   78 1   
    80   39   79 1   
    81   40   41 1   
    82   40   80 1   
    83   40   81 1   
    84   41   42 1   
    85   41   82 1   
    86   41   83 1   
    87   42   84 1   
@<TRIPOS>SUBSTRUCTURE
     1 NII         1 TEMP              0 ****  ****    0 ROOT
