@<TRIPOS>MOLECULE
NII
   88    91     1     0     0
SMALL
bcc


@<TRIPOS>ATOM
      1 O6          3.8220   -0.4160   -0.2640 oh        1 NII     -0.687800
      2 C30         2.8820    0.6550   -0.2740 c3        1 NII      0.117400
      3 C29         2.2490    0.7630    1.1050 c3        1 NII     -0.135400
      4 C28         3.2780    0.9280    2.2130 c3        1 NII      0.130800
      5 N3          3.9700   -0.3750    2.5400 n4        1 NII     -0.665400
      6 C9          5.3570   -0.1870    2.9730 ca        1 NII      0.071600
      7 C8          6.3320   -0.0920    1.9300 ca        1 NII     -0.052000
      8 C7          7.6660    0.0590    2.2330 ca        1 NII     -0.082600
      9 C14         8.6490    0.1400    1.1150 c         1 NII      0.712100
     10 O1          8.2910    0.1440   -0.0690 o         1 NII     -0.529500
     11 N2         10.0190    0.2050    1.4410 n         1 NII     -0.474400
     12 C18        10.9880    0.0430    0.3590 c3        1 NII      0.088000
     13 C19        11.2030    1.2860   -0.5130 c3        1 NII     -0.124400
     14 C20        12.2000    0.9180   -1.6110 c3        1 NII      0.103800
     15 N5         12.4230    2.0020   -2.6230 n4        1 NII     -0.677400
     16 C24        13.2870    3.0880   -2.0870 c3        1 NII      0.079600
     17 C23        13.0200    1.4350   -3.8680 c3        1 NII      0.079600
     18 C13        10.4730    0.3320    2.7550 c         1 NII      0.722100
     19 O4         11.6930    0.4770    2.9710 o         1 NII     -0.611500
     20 C10         5.7500   -0.1110    4.3090 ca        1 NII     -0.073600
     21 C11         4.7710   -0.1680    5.4440 c         1 NII      0.722100
     22 O2          3.5510   -0.3140    5.2270 o         1 NII     -0.611500
     23 N1          5.2250   -0.0410    6.7570 n         1 NII     -0.474400
     24 C15         4.2560    0.1210    7.8390 c3        1 NII      0.088000
     25 C16         4.0410   -1.1230    8.7110 c3        1 NII     -0.124400
     26 C17         3.0440   -0.7550    9.8090 c3        1 NII      0.103800
     27 N4          2.8210   -1.8380   10.8220 n4        1 NII     -0.677400
     28 C21         2.2240   -1.2710   12.0660 c3        1 NII      0.079600
     29 C22         1.9570   -2.9250   10.2850 c3        1 NII      0.079600
     30 C5          7.1380    0.0390    4.6140 ca        1 NII      0.011000
     31 C6          7.5780    0.1050    5.9650 ca        1 NII     -0.082600
     32 C12         6.5950    0.0240    7.0830 c         1 NII      0.712100
     33 O3          6.9530    0.0200    8.2670 o         1 NII     -0.529500
     34 C4          8.1070    0.1240    3.5840 ca        1 NII      0.011000
     35 C3          9.4940    0.2750    3.8890 ca        1 NII     -0.073600
     36 C2          9.8870    0.3500    5.2250 ca        1 NII      0.071600
     37 C1          8.9120    0.2560    6.2680 ca        1 NII     -0.052000
     38 N6         11.2740    0.5380    5.6580 n4        1 NII     -0.665400
     39 C25        11.9660   -0.7650    5.9860 c3        1 NII      0.130800
     40 C26        12.9950   -0.5990    7.0940 c3        1 NII     -0.135400
     41 C27        12.3620   -0.4910    8.4720 c3        1 NII      0.117400
     42 O5         11.4220    0.5800    8.4630 oh        1 NII     -0.687800
     43 HO6         3.6920   -0.9380   -1.0670 ho        1 NII      0.459000
     44 H30         3.4490    1.5920   -0.5270 h1        1 NII      0.081200
     45 H30A        2.0820    0.4910   -1.0440 h1        1 NII      0.081200
     46 H29         1.5830   -0.1200    1.2960 hc        1 NII      0.108700
     47 H29A        1.5930    1.6800    1.1200 hc        1 NII      0.108700
     48 H28         4.0620    1.6710    1.8910 hx        1 NII      0.109200
     49 H28A        2.7870    1.2870    3.1630 hx        1 NII      0.109200
     50 HN3         3.9720   -0.9660    1.6820 hn        1 NII      0.493300
     51 H8          6.0130   -0.1410    0.8620 ha        1 NII      0.228000
     52 H18        11.9760   -0.2650    0.8120 h1        1 NII      0.099200
     53 H18A       10.6120   -0.7980   -0.2960 h1        1 NII      0.099200
     54 H19        10.2220    1.6040   -0.9600 hc        1 NII      0.081200
     55 H19A       11.5970    2.1310    0.1090 hc        1 NII      0.081200
     56 H20        11.8210    0.0090   -2.1670 hx        1 NII      0.112700
     57 H20A       13.2010    0.6630   -1.1560 hx        1 NII      0.112700
     58 H24        13.3720    3.9060   -2.8550 hx        1 NII      0.114533
     59 H24A       12.8320    3.4990   -1.1490 hx        1 NII      0.114533
     60 H24B       14.3120    2.6830   -1.8680 hx        1 NII      0.114533
     61 H23        12.3130    0.6880   -4.3190 hx        1 NII      0.114533
     62 H23A       13.9960    0.9340   -3.6240 hx        1 NII      0.114533
     63 H23B       13.2020    2.2680   -4.6010 hx        1 NII      0.114533
     64 H15         3.2680    0.4290    7.3860 h1        1 NII      0.099200
     65 H15A        4.6320    0.9620    8.4950 h1        1 NII      0.099200
     66 H16         3.6470   -1.9680    8.0890 hc        1 NII      0.081200
     67 H16A        5.0220   -1.4410    9.1580 hc        1 NII      0.081200
     68 H17         2.0430   -0.5000    9.3540 hx        1 NII      0.112700
     69 H17A        3.4230    0.1540   10.3650 hx        1 NII      0.112700
     70 H21         2.9310   -0.5250   12.5170 hx        1 NII      0.114533
     71 H21A        2.0420   -2.1050   12.7990 hx        1 NII      0.114533
     72 H21B        1.2480   -0.7710   11.8220 hx        1 NII      0.114533
     73 H22         0.9320   -2.5200   10.0660 hx        1 NII      0.114533
     74 H22A        2.4120   -3.3360    9.3470 hx        1 NII      0.114533
     75 H22B        1.8720   -3.7430   11.0530 hx        1 NII      0.114533
     76 H1          9.2310    0.3050    7.3360 ha        1 NII      0.228000
     77 HN6        11.8150    1.0290    4.9260 hn        1 NII      0.493300
     78 H25        12.4570   -1.1240    5.0350 hx        1 NII      0.109200
     79 H25A       11.1820   -1.5070    6.3070 hx        1 NII      0.109200
     80 H26        13.6510   -1.5160    7.0780 hc        1 NII      0.108700
     81 H26A       13.6610    0.2840    6.9020 hc        1 NII      0.108700
     82 H27        11.7950   -1.4290    8.7260 h1        1 NII      0.081200
     83 H27A       13.1630   -0.3270    9.2420 h1        1 NII      0.081200
     84 HO5        11.5520    1.1010    9.2650 ho        1 NII      0.459000
     85 H32         3.4290   -0.8660    3.2720 hn        1 NII      0.493300
     86 H51        11.5090    2.4090   -2.8650 hn        1 NII      0.452800
     87 H41         3.7360   -2.2460   11.0630 hn        1 NII      0.452800
     88 H62        11.2720    1.1300    6.5160 hn        1 NII      0.493300
@<TRIPOS>BOND
     1    1    2 1   
     2    1   43 1   
     3    2    3 1   
     4    2   44 1   
     5    2   45 1   
     6    3    4 1   
     7    3   46 1   
     8    3   47 1   
     9    4    5 1   
    10    4   48 1   
    11    4   49 1   
    12    5    6 1   
    13    5   50 1   
    14    5   85 1   
    15    6    7 ar  
    16    6   20 ar  
    17    7    8 ar  
    18    7   51 1   
    19    8    9 1   
    20    8   34 ar  
    21    9   10 2   
    22    9   11 1   
    23   11   12 1   
    24   11   18 1   
    25   12   13 1   
    26   12   52 1   
    27   12   53 1   
    28   13   14 1   
    29   13   54 1   
    30   13   55 1   
    31   14   15 1   
    32   14   56 1   
    33   14   57 1   
    34   15   16 1   
    35   15   17 1   
    36   15   86 1   
    37   16   58 1   
    38   16   59 1   
    39   16   60 1   
    40   17   61 1   
    41   17   62 1   
    42   17   63 1   
    43   18   19 2   
    44   18   35 1   
    45   20   21 1   
    46   20   30 ar  
    47   21   22 2   
    48   21   23 1   
    49   23   24 1   
    50   23   32 1   
    51   24   25 1   
    52   24   64 1   
    53   24   65 1   
    54   25   26 1   
    55   25   66 1   
    56   25   67 1   
    57   26   27 1   
    58   26   68 1   
    59   26   69 1   
    60   27   28 1   
    61   27   29 1   
    62   27   87 1   
    63   28   70 1   
    64   28   71 1   
    65   28   72 1   
    66   29   73 1   
    67   29   74 1   
    68   29   75 1   
    69   30   31 ar  
    70   30   34 ar  
    71   31   32 1   
    72   31   37 ar  
    73   32   33 2   
    74   34   35 ar  
    75   35   36 ar  
    76   36   37 ar  
    77   36   38 1   
    78   37   76 1   
    79   38   39 1   
    80   38   77 1   
    81   38   88 1   
    82   39   40 1   
    83   39   78 1   
    84   39   79 1   
    85   40   41 1   
    86   40   80 1   
    87   40   81 1   
    88   41   42 1   
    89   41   82 1   
    90   41   83 1   
    91   42   84 1   
@<TRIPOS>SUBSTRUCTURE
     1 NII         1 TEMP              0 ****  ****    0 ROOT
