@<TRIPOS>MOLECULE
NII
   86    89     1     0     0
SMALL
bcc


@<TRIPOS>ATOM
      1 O6         -0.0460   -0.2940    0.0790 oh        1 NII     -0.596800
      2 C30         1.3650   -0.1870    0.0180 c3        1 NII      0.137400
      3 C29         1.8500   -0.1570    1.4600 c3        1 NII     -0.102400
      4 C28         3.3750   -0.0870    1.4830 c3        1 NII      0.205800
      5 N3          3.9020   -0.0570    2.8260 nh        1 NII     -0.747600
      6 C9          5.2340   -0.0230    3.1090 ca        1 NII      0.274600
      7 C8          6.1860    0.0100    2.0210 ca        1 NII     -0.112000
      8 C7          7.5350    0.0620    2.2440 ca        1 NII     -0.086600
      9 C14         8.4360    0.0720    1.0650 c         1 NII      0.719100
     10 O1          8.0120    0.0760   -0.1050 o         1 NII     -0.607500
     11 N2          9.8190    0.0690    1.3040 n         1 NII     -0.498400
     12 C18        10.7240   -0.0560    0.1800 c3        1 NII      0.101000
     13 C19        11.2980    1.2830   -0.3070 c3        1 NII     -0.134400
     14 C20        12.2480    0.9970   -1.4610 c3        1 NII      0.108800
     15 N5         12.9000    2.2360   -2.0080 n4        1 NII     -0.679400
     16 C24        14.0040    2.7010   -1.1280 c3        1 NII      0.081100
     17 C23        13.3970    2.0000   -3.3890 c3        1 NII      0.081100
     18 C13        10.3720    0.2230    2.5960 c         1 NII      0.745100
     19 O4         11.6080    0.4060    2.6400 o         1 NII     -0.662500
     20 C10         5.7560   -0.0110    4.4280 ca        1 NII     -0.241600
     21 C11         4.8720   -0.0690    5.6020 c         1 NII      0.745100
     22 O2          3.6360   -0.2520    5.5590 o         1 NII     -0.662500
     23 N1          5.4250    0.0850    6.8950 n         1 NII     -0.498400
     24 C15         4.5200    0.2100    8.0180 c3        1 NII      0.101000
     25 C16         3.9460   -1.1290    8.5050 c3        1 NII     -0.134400
     26 C17         2.9960   -0.8430    9.6590 c3        1 NII      0.108800
     27 N4          2.3440   -2.0820   10.2060 n4        1 NII     -0.679400
     28 C21         1.8470   -1.8460   11.5880 c3        1 NII      0.081100
     29 C22         1.2400   -2.5470    9.3260 c3        1 NII      0.081100
     30 C5          7.1650    0.0590    4.6360 ca        1 NII      0.006000
     31 C6          7.7090    0.0920    5.9540 ca        1 NII     -0.086600
     32 C12         6.8080    0.0820    7.1330 c         1 NII      0.719100
     33 O3          7.2320    0.0770    8.3030 o         1 NII     -0.607500
     34 C4          8.0790    0.0950    3.5630 ca        1 NII      0.006000
     35 C3          9.4880    0.1650    3.7710 ca        1 NII     -0.241600
     36 C2         10.0090    0.1770    5.0900 ca        1 NII      0.274600
     37 C1          9.0580    0.1430    6.1780 ca        1 NII     -0.112000
     38 N6         11.3420    0.2110    5.3730 nh        1 NII     -0.747600
     39 C25        11.8690    0.2410    6.7150 c3        1 NII      0.205800
     40 C26        13.3940    0.3110    6.7380 c3        1 NII     -0.102400
     41 C27        13.8790    0.3410    8.1800 c3        1 NII      0.137400
     42 O5         15.2900    0.4480    8.1190 oh        1 NII     -0.596800
     43 HO6        -0.3660   -0.2930   -0.8310 ho        1 NII      0.415000
     44 H30         1.7960   -1.0690   -0.5280 h1        1 NII      0.028200
     45 H30A        1.6610    0.7540   -0.5190 h1        1 NII      0.028200
     46 H29         1.4010    0.7300    1.9790 hc        1 NII      0.070200
     47 H29A        1.4840   -1.0770    1.9880 hc        1 NII      0.070200
     48 H28         3.7920   -0.9840    0.9380 h1        1 NII      0.052700
     49 H28A        3.7090    0.8400    0.9310 h1        1 NII      0.052700
     50 HN3         3.2400   -0.0830    3.5740 hn        1 NII      0.474800
     51 H8          5.8240   -0.0110    0.9750 ha        1 NII      0.177000
     52 H18        11.5810   -0.7200    0.4960 h1        1 NII      0.083200
     53 H18A       10.1700   -0.5510   -0.6690 h1        1 NII      0.083200
     54 H19        10.4630    1.9540   -0.6390 hc        1 NII      0.080200
     55 H19A       11.8350    1.7790    0.5460 hc        1 NII      0.080200
     56 H20        13.0660    0.2950   -1.1290 hx        1 NII      0.107200
     57 H20A       11.6770    0.5090   -2.3040 hx        1 NII      0.107200
     58 H24        14.4100    3.6710   -1.5230 hx        1 NII      0.107700
     59 H24A       14.8220    1.9320   -1.1120 hx        1 NII      0.107700
     60 H24B       13.6130    2.8510   -0.0860 hx        1 NII      0.107700
     61 H23        13.9070    2.9290   -3.7640 hx        1 NII      0.107700
     62 H23A       14.1280    1.1480   -3.3840 hx        1 NII      0.107700
     63 H23B       12.5330    1.7500   -4.0610 hx        1 NII      0.107700
     64 H15         5.0740    0.7050    8.8680 h1        1 NII      0.083200
     65 H15A        3.6630    0.8740    7.7020 h1        1 NII      0.083200
     66 H16         3.4090   -1.6250    7.6530 hc        1 NII      0.080200
     67 H16A        4.7810   -1.8000    8.8380 hc        1 NII      0.080200
     68 H17         2.1780   -0.1410    9.3280 hx        1 NII      0.107200
     69 H17A        3.5670   -0.3550   10.5030 hx        1 NII      0.107200
     70 H21         1.3370   -2.7740   11.9620 hx        1 NII      0.107700
     71 H21A        1.1160   -0.9940   11.5820 hx        1 NII      0.107700
     72 H21B        2.7110   -1.5950   12.2600 hx        1 NII      0.107700
     73 H22         1.6310   -2.6970    8.2840 hx        1 NII      0.107700
     74 H22A        0.8340   -3.5170    9.7220 hx        1 NII      0.107700
     75 H22B        0.4220   -1.7780    9.3100 hx        1 NII      0.107700
     76 H1          9.4200    0.1650    7.2230 ha        1 NII      0.177000
     77 HN6        12.0040    0.2370    4.6250 hn        1 NII      0.474800
     78 H25        11.5350   -0.6860    7.2670 h1        1 NII      0.052700
     79 H25A       11.4520    1.1380    7.2610 h1        1 NII      0.052700
     80 H26        13.8430   -0.5760    6.2190 hc        1 NII      0.070200
     81 H26A       13.7590    1.2310    6.2110 hc        1 NII      0.070200
     82 H27        13.4480    1.2230    8.7260 h1        1 NII      0.028200
     83 H27A       13.5840   -0.6010    8.7170 h1        1 NII      0.028200
     84 HO5        15.6100    0.4470    9.0290 ho        1 NII      0.415000
     85 H51        12.1850    2.9770   -2.0430 hn        1 NII      0.451800
     86 H41         3.0580   -2.8230   10.2420 hn        1 NII      0.451800
@<TRIPOS>BOND
     1    1    2 1   
     2    1   43 1   
     3    2    3 1   
     4    2   44 1   
     5    2   45 1   
     6    3    4 1   
     7    3   46 1   
     8    3   47 1   
     9    4    5 1   
    10    4   48 1   
    11    4   49 1   
    12    5    6 1   
    13    5   50 1   
    14    6    7 ar  
    15    6   20 ar  
    16    7    8 ar  
    17    7   51 1   
    18    8    9 1   
    19    8   34 ar  
    20    9   10 2   
    21    9   11 1   
    22   11   12 1   
    23   11   18 1   
    24   12   13 1   
    25   12   52 1   
    26   12   53 1   
    27   13   14 1   
    28   13   54 1   
    29   13   55 1   
    30   14   15 1   
    31   14   56 1   
    32   14   57 1   
    33   15   16 1   
    34   15   17 1   
    35   15   85 1   
    36   16   58 1   
    37   16   59 1   
    38   16   60 1   
    39   17   61 1   
    40   17   62 1   
    41   17   63 1   
    42   18   19 2   
    43   18   35 1   
    44   20   21 1   
    45   20   30 ar  
    46   21   22 2   
    47   21   23 1   
    48   23   24 1   
    49   23   32 1   
    50   24   25 1   
    51   24   64 1   
    52   24   65 1   
    53   25   26 1   
    54   25   66 1   
    55   25   67 1   
    56   26   27 1   
    57   26   68 1   
    58   26   69 1   
    59   27   28 1   
    60   27   29 1   
    61   27   86 1   
    62   28   70 1   
    63   28   71 1   
    64   28   72 1   
    65   29   73 1   
    66   29   74 1   
    67   29   75 1   
    68   30   31 ar  
    69   30   34 ar  
    70   31   32 1   
    71   31   37 ar  
    72   32   33 2   
    73   34   35 ar  
    74   35   36 ar  
    75   36   37 ar  
    76   36   38 1   
    77   37   76 1   
    78   38   39 1   
    79   38   77 1   
    80   39   40 1   
    81   39   78 1   
    82   39   79 1   
    83   40   41 1   
    84   40   80 1   
    85   40   81 1   
    86   41   42 1   
    87   41   82 1   
    88   41   83 1   
    89   42   84 1   
@<TRIPOS>SUBSTRUCTURE
     1 NII         1 TEMP              0 ****  ****    0 ROOT
