@<TRIPOS>MOLECULE
NII
   84    84     1     0     0
SMALL
bcc


@<TRIPOS>ATOM
      1 O6         -4.0290    0.6380   -7.3850 oh        1 NII     -0.325000
      2 C30        -2.7100    1.0640   -7.0030 c3        1 NII     -0.015000
      3 C29        -2.4300    0.6310   -5.5710 c3        1 NII     -0.200000
      4 C28        -1.5900    1.7280   -4.8520 c3        1 NII     -0.037000
      5 N3         -0.5240    1.0990   -4.0850 n3        1 NII     -0.297000
      6 C9         -0.7180    0.8130   -2.6830 c2        1 NII      0.171000
      7 C8         -1.5190    1.5710   -1.8220 c2        1 NII     -0.118000
      8 C7         -1.5640    1.2590   -0.4260 c1        1 NII     -0.066000
      9 C14        -2.4320    2.0940    0.5090 c1        1 NII      0.354000
     10 O1         -3.0560    3.0520    0.0730 o         1 NII     -0.336000
     11 N2         -2.5320    1.7480    1.8880 n         1 NII     -0.323000
     12 C18        -3.4080    2.5010    2.7590 c3        1 NII     -0.034000
     13 C19        -2.6860    3.7740    3.2380 c3        1 NII     -0.174000
     14 C20        -2.9700    3.9940    4.7470 c3        1 NII     -0.063000
     15 N5         -2.9730    5.4420    5.0440 n3        1 NII     -0.266000
     16 C24        -4.0580    5.7460    5.8820 c3        1 NII     -0.118000
     17 C23        -1.7720    5.7900    5.6960 c3        1 NII     -0.118000
     18 C13        -1.8240    0.6260    2.3920 c2        1 NII      0.366000
     19 O4         -1.9390    0.3020    3.5950 o         1 NII     -0.336000
     20 C10         0.0600   -0.2800   -2.1620 c1        1 NII     -0.203000
     21 C11         1.0230   -1.0430   -3.0790 c1        1 NII      0.374000
     22 O2          1.0880   -0.7620   -4.2640 o         1 NII     -0.373000
     23 N1          1.8290   -2.1010   -2.5480 n         1 NII     -0.315000
     24 C15         2.7590   -2.8300   -3.4220 c3        1 NII     -0.029000
     25 C16         4.0610   -2.0830   -3.5040 c3        1 NII     -0.175000
     26 C17         5.0240   -2.8530   -4.3620 c3        1 NII     -0.062000
     27 N4          6.1570   -3.3460   -3.5240 n3        1 NII     -0.268000
     28 C21         7.4090   -2.6560   -3.9300 c3        1 NII     -0.124000
     29 C22         6.3020   -4.7350   -3.7100 c3        1 NII     -0.124000
     30 C5         -0.0590   -0.6470   -0.7920 c2        1 NII      0.011000
     31 C6          0.6990   -1.7320   -0.2790 c2        1 NII     -0.076000
     32 C12         1.7040   -2.4700   -1.1890 c2        1 NII      0.351000
     33 O3          2.3270   -3.4190   -0.7600 o         1 NII     -0.338000
     34 C4         -0.8770    0.1130    0.0710 c2        1 NII     -0.012000
     35 C3         -0.9510   -0.2140    1.4510 c2        1 NII     -0.175000
     36 C2         -0.1590   -1.2710    1.9750 c1        1 NII      0.163000
     37 C1          0.6640   -2.0280    1.1150 c1        1 NII     -0.117000
     38 N6          0.4510   -1.9180    3.0960 n3        1 NII     -0.311000
     39 C25        -0.1000   -1.7400    4.4230 c3        1 NII     -0.008000
     40 C26        -0.6320   -3.0820    4.9400 c3        1 NII     -0.216000
     41 C27        -0.6680   -3.0630    6.4620 c3        1 NII     -0.020000
     42 O5         -1.8880   -3.6440    6.9160 oh        1 NII     -0.325000
     43 HO6        -4.1050    0.6710   -8.2840 ho        1 NII      0.203000
     44 H30        -2.6490    2.0480   -7.0670 h1        1 NII      0.063000
     45 H30A       -2.0580    0.6620   -7.5960 h1        1 NII      0.063000
     46 H29        -3.2810    0.5050   -5.0950 hc        1 NII      0.106500
     47 H29A       -1.9280   -0.2170   -5.5770 hc        1 NII      0.106500
     48 H28        -1.1990    2.3300   -5.5200 h1        1 NII      0.099000
     49 H28A       -2.1510    2.2250   -4.2670 h1        1 NII      0.099000
     50 HN3         0.2730    0.9890   -4.4490 hn        1 NII      0.261000
     51 H8         -2.0970    2.2660   -2.1820 ha        1 NII      0.172000
     52 H18        -3.6450    1.9580    3.5240 h1        1 NII      0.113500
     53 H18A       -4.2300    2.7520    2.2640 h1        1 NII      0.113500
     54 H19        -3.0140    4.5480    2.7270 hc        1 NII      0.095500
     55 H19A       -1.7230    3.6740    3.0990 hc        1 NII      0.095500
     56 H20        -2.2710    3.5500    5.2800 h1        1 NII      0.071500
     57 H20A       -3.8550    3.6070    4.9760 h1        1 NII      0.071500
     58 H24        -3.8680    5.4190    6.8010 h1        1 NII      0.070333
     59 H24A       -4.8670    5.3100    5.5410 h1        1 NII      0.070333
     60 H24B       -4.1950    6.7360    5.9020 h1        1 NII      0.070333
     61 H23        -1.7170    6.7800    5.7820 h1        1 NII      0.070333
     62 H23A       -1.7560    5.3830    6.5890 h1        1 NII      0.070333
     63 H23B       -1.0080    5.4630    5.1730 h1        1 NII      0.070333
     64 H15         2.3710   -2.9100   -4.3210 h1        1 NII      0.123000
     65 H15A        2.9200   -3.7240   -3.0550 h1        1 NII      0.123000
     66 H16         3.9080   -1.2080   -3.8950 hc        1 NII      0.093000
     67 H16A        4.4310   -1.9800   -2.6170 hc        1 NII      0.093000
     68 H17         4.5610   -3.6180   -4.7680 h1        1 NII      0.070500
     69 H17A        5.3660   -2.2770   -5.0590 h1        1 NII      0.070500
     70 H21         7.4030   -1.7230   -3.5780 h1        1 NII      0.072667
     71 H21A        8.2050   -3.1530   -3.5560 h1        1 NII      0.072667
     72 H21B        7.4680   -2.6350   -4.9040 h1        1 NII      0.072667
     73 H22         7.0710   -5.0600   -3.1820 h1        1 NII      0.072667
     74 H22A        6.4550   -4.9210   -4.6560 h1        1 NII      0.072667
     75 H22B        5.4780   -5.1940   -3.4130 h1        1 NII      0.072667
     76 H1          1.1490   -2.8160    1.4640 ha        1 NII      0.168000
     77 HN6         1.2030   -2.3940    2.9830 hn        1 NII      0.222000
     78 H25        -0.8350   -1.0870    4.3890 h1        1 NII      0.084500
     79 H25A        0.5970   -1.4160    5.0210 h1        1 NII      0.084500
     80 H26        -1.5350   -3.2290    4.5960 hc        1 NII      0.107000
     81 H26A       -0.0510   -3.7990    4.6400 hc        1 NII      0.107000
     82 H27        -0.6080   -2.1340    6.7800 h1        1 NII      0.083500
     83 H27A        0.1090   -3.5920    6.8220 h1        1 NII      0.083500
     84 HO5        -1.8110   -3.8610    7.7660 ho        1 NII      0.200000
@<TRIPOS>BOND
     1    1    2 1   
     2    1   43 1   
     3    2    3 1   
     4    2   44 1   
     5    2   45 1   
     6    3    4 1   
     7    3   46 1   
     8    3   47 1   
     9    4    5 1   
    10    4   48 1   
    11    4   49 1   
    12    5    6 1   
    13    5   50 1   
    14    6    7 1   
    15    6   20 1   
    16    7    8 1   
    17    7   51 1   
    18    8   34 1   
    19    9   10 1   
    20    9   11 1   
    21   11   12 1   
    22   11   18 1   
    23   12   13 1   
    24   12   52 1   
    25   12   53 1   
    26   13   14 1   
    27   13   54 1   
    28   13   55 1   
    29   14   15 1   
    30   14   56 1   
    31   14   57 1   
    32   15   16 1   
    33   15   17 1   
    34   16   58 1   
    35   16   59 1   
    36   16   60 1   
    37   17   61 1   
    38   17   62 1   
    39   17   63 1   
    40   18   19 1   
    41   18   35 1   
    42   20   30 1   
    43   21   22 1   
    44   21   23 1   
    45   23   24 1   
    46   23   32 1   
    47   24   25 1   
    48   24   64 1   
    49   24   65 1   
    50   25   26 1   
    51   25   66 1   
    52   25   67 1   
    53   26   27 1   
    54   26   68 1   
    55   26   69 1   
    56   27   28 1   
    57   27   29 1   
    58   28   70 1   
    59   28   71 1   
    60   28   72 1   
    61   29   73 1   
    62   29   74 1   
    63   29   75 1   
    64   30   31 1   
    65   30   34 1   
    66   31   32 1   
    67   31   37 1   
    68   32   33 1   
    69   34   35 1   
    70   35   36 1   
    71   36   38 1   
    72   37   76 1   
    73   38   39 1   
    74   38   77 1   
    75   39   40 1   
    76   39   78 1   
    77   39   79 1   
    78   40   41 1   
    79   40   80 1   
    80   40   81 1   
    81   41   42 1   
    82   41   82 1   
    83   41   83 1   
    84   42   84 1   
@<TRIPOS>SUBSTRUCTURE
     1 NII         1 TEMP              0 ****  ****    0 ROOT
