@<TRIPOS>MOLECULE
NIL
   63    67     1     0     0
SMALL
bcc


@<TRIPOS>ATOM
      1 O17         0.0060   -1.9700   -1.5330 o         1 NIL     -0.405100
      2 C16         1.0310   -1.5100   -1.0500 c         1 NIL      0.573700
      3 N14         1.4840   -2.1700    0.2390 n4        1 NIL     -0.540200
      4 C11         0.9540   -1.4930    1.4320 ca        1 NIL     -0.025400
      5 C9         -0.4350   -1.4530    1.6300 ca        1 NIL     -0.153000
      6 C8         -0.9610   -0.8400    2.7930 ca        1 NIL      0.109800
      7 N51        -2.3250   -0.7900    3.0150 na        1 NIL     -0.188000
      8 C56        -3.3290   -1.5450    2.3520 cc        1 NIL     -0.270600
      9 C55        -4.5510   -1.1630    2.9110 cd        1 NIL      0.381600
     10 C58        -5.8860   -1.6750    2.5620 c3        1 NIL     -0.137400
     11 N54        -4.3320   -0.1770    3.9090 nd        1 NIL     -0.609000
     12 C52        -3.0200    0.0270    3.9620 cc        1 NIL      0.442400
     13 C6         -0.0490   -0.2700    3.7280 ca        1 NIL     -0.079000
     14 C12         1.8470   -0.9370    2.3550 ca        1 NIL     -0.124000
     15 C5          1.3160   -0.3220    3.4930 ca        1 NIL     -0.109300
     16 C2          2.2980    0.2900    4.5050 c3        1 NIL      0.691200
     17 F4          2.8780   -0.6390    5.3270 f         1 NIL     -0.211300
     18 F3          3.3480    0.9370    3.9000 f         1 NIL     -0.211300
     19 F1          1.7350    1.2200    5.3370 f         1 NIL     -0.211300
     20 C18         1.8700   -0.4420   -1.6100 ca        1 NIL     -0.186600
     21 C25         2.7170    0.3640   -0.8360 ca        1 NIL     -0.038000
     22 C23         3.4540    1.3760   -1.4370 ca        1 NIL     -0.115000
     23 C22         3.3750    1.6230   -2.8170 ca        1 NIL      0.050700
     24 C27         4.1840    2.7090   -3.4140 c3        1 NIL     -0.118800
     25 C21         2.5110    0.8080   -3.5880 ca        1 NIL     -0.051400
     26 C19         1.7520   -0.2110   -2.9890 ca        1 NIL     -0.015000
     27 N31         2.3930    1.0200   -5.0350 n4        1 NIL     -0.613100
     28 C33         1.1100    1.7230   -5.3880 ca        1 NIL      0.698900
     29 N40         1.1590    3.0910   -5.3990 nb        1 NIL     -0.676000
     30 C38        -0.0000    3.6940   -5.7450 ca        1 NIL      0.465200
     31 C36        -1.1630    2.9720   -6.0590 ca        1 NIL     -0.296600
     32 C35        -1.1100    1.5520   -6.0030 cp        1 NIL      0.567800
     33 N34         0.0440    0.9100   -5.6560 nb        1 NIL     -0.693000
     34 C41        -2.3000    0.7670   -6.3170 cp        1 NIL     -0.341800
     35 C49        -2.2310   -0.4430   -7.0290 ca        1 NIL     -0.039000
     36 C47        -3.4130   -1.1200   -7.3210 ca        1 NIL     -0.243300
     37 C45        -4.6350   -0.5700   -6.8810 ca        1 NIL      0.450200
     38 N44        -4.7180    0.5820   -6.1850 nb        1 NIL     -0.643000
     39 C42        -3.5760    1.2340   -5.9150 ca        1 NIL      0.439200
     40 HN14        1.1330   -3.1430    0.2470 hn        1 NIL      0.475300
     41 H9         -1.1190   -1.8950    0.8840 ha        1 NIL      0.176000
     42 H56        -3.1000   -2.2850    1.5900 h4        1 NIL      0.181000
     43 H58        -5.8090   -2.4270    1.7400 hc        1 NIL      0.070033
     44 H58A       -6.5530   -0.8380    2.2310 hc        1 NIL      0.070033
     45 H58B       -6.3600   -2.1610    3.4540 hc        1 NIL      0.070033
     46 H52        -2.5060    0.7330    4.6270 h5        1 NIL      0.080100
     47 H6         -0.4190    0.2110    4.6530 ha        1 NIL      0.197000
     48 H12         2.9420   -0.9820    2.2330 ha        1 NIL      0.170000
     49 H25         2.7930    0.2310    0.2590 ha        1 NIL      0.166000
     50 H23         4.1160    2.0110   -0.8170 ha        1 NIL      0.196000
     51 H27         4.7740    3.2510   -2.6290 hc        1 NIL      0.096033
     52 H27A        4.9180    2.3000   -4.1560 hc        1 NIL      0.096033
     53 H27B        3.5310    3.4660   -3.9220 hc        1 NIL      0.096033
     54 H19         1.0520   -0.8300   -3.5850 ha        1 NIL      0.195000
     55 HN31        3.1850    1.5960   -5.3670 hn        1 NIL      0.486300
     56 H38         0.0300    4.8040   -5.7720 h4        1 NIL      0.081100
     57 H36        -2.0890    3.4890   -6.3580 ha        1 NIL      0.205000
     58 H49        -1.2640   -0.8440   -7.3670 ha        1 NIL      0.149000
     59 H47        -3.4020   -2.0610   -7.8900 ha        1 NIL      0.171000
     60 H45        -5.5990   -1.0720   -7.0970 h4        1 NIL      0.055100
     61 H42        -3.6870    2.1730   -5.3410 h4        1 NIL      0.031100
     62 H142        2.5100   -2.1850    0.2820 hn        1 NIL      0.475300
     63 H312        2.4140    0.1080   -5.5160 hn        1 NIL      0.486300
@<TRIPOS>BOND
     1    1    2 2   
     2    2    3 1   
     3    2   20 1   
     4    3    4 1   
     5    3   40 1   
     6    3   62 1   
     7    4    5 ar  
     8    4   14 ar  
     9    5    6 ar  
    10    5   41 1   
    11    6    7 1   
    12    6   13 ar  
    13    7    8 1   
    14    7   12 1   
    15    8    9 2   
    16    8   42 1   
    17    9   10 1   
    18    9   11 1   
    19   10   43 1   
    20   10   44 1   
    21   10   45 1   
    22   11   12 2   
    23   12   46 1   
    24   13   15 ar  
    25   13   47 1   
    26   14   15 ar  
    27   14   48 1   
    28   15   16 1   
    29   16   17 1   
    30   16   18 1   
    31   16   19 1   
    32   20   21 ar  
    33   20   26 ar  
    34   21   22 ar  
    35   21   49 1   
    36   22   23 ar  
    37   22   50 1   
    38   23   24 1   
    39   23   25 ar  
    40   24   51 1   
    41   24   52 1   
    42   24   53 1   
    43   25   26 ar  
    44   25   27 1   
    45   26   54 1   
    46   27   28 1   
    47   27   55 1   
    48   27   63 1   
    49   28   29 ar  
    50   28   33 ar  
    51   29   30 ar  
    52   30   31 ar  
    53   30   56 1   
    54   31   32 ar  
    55   31   57 1   
    56   32   33 ar  
    57   32   34 1   
    58   34   35 ar  
    59   34   39 ar  
    60   35   36 ar  
    61   35   58 1   
    62   36   37 ar  
    63   36   59 1   
    64   37   38 ar  
    65   37   60 1   
    66   38   39 ar  
    67   39   61 1   
@<TRIPOS>SUBSTRUCTURE
     1 NIL         1 TEMP              0 ****  ****    0 ROOT
