@<TRIPOS>MOLECULE
NIL
   61    65     1     0     0
SMALL
bcc


@<TRIPOS>ATOM
      1 O17        -0.2490   -1.4580    0.0770 o         1 NIL     -0.575100
      2 C16         0.7630   -0.7470   -0.0450 c         1 NIL      0.688700
      3 N14         1.2630    0.0400    0.9920 n         1 NIL     -0.472100
      4 C11         0.7230    0.1850    2.2770 ca        1 NIL      0.099600
      5 C9         -0.2370   -0.7000    2.8040 ca        1 NIL     -0.160000
      6 C8         -0.7460   -0.5140    4.1060 ca        1 NIL      0.054800
      7 N51        -1.7130   -1.3930    4.6170 na        1 NIL     -0.152000
      8 C56        -2.5870   -2.2050    3.8740 cc        1 NIL     -0.238600
      9 C55        -3.3630   -2.9110    4.8100 cd        1 NIL      0.311600
     10 C58        -4.4230   -3.8860    4.5080 c3        1 NIL     -0.116400
     11 N54        -2.9770   -2.5510    6.1160 nd        1 NIL     -0.655000
     12 C52        -1.9960   -1.6470    5.9780 cc        1 NIL      0.409400
     13 C6         -0.2760    0.5580    4.8940 ca        1 NIL     -0.144000
     14 C12         1.1900    1.2530    3.0830 ca        1 NIL     -0.160000
     15 C5          0.6880    1.4130    4.3680 ca        1 NIL     -0.113300
     16 C2          1.2180    2.5560    5.2310 c3        1 NIL      0.686200
     17 F4          2.3370    2.2310    5.9610 f         1 NIL     -0.234633
     18 F3          1.5920    3.6750    4.5280 f         1 NIL     -0.234633
     19 F1          0.3310    3.0270    6.1680 f         1 NIL     -0.234633
     20 C18         1.5240   -0.6730   -1.3280 ca        1 NIL     -0.148600
     21 C25         2.9180   -0.7540   -1.3520 ca        1 NIL     -0.111000
     22 C23         3.5840   -0.7090   -2.5730 ca        1 NIL     -0.123000
     23 C22         2.8850   -0.5640   -3.7750 ca        1 NIL     -0.082300
     24 C27         3.6370   -0.5120   -5.0520 c3        1 NIL     -0.065800
     25 C21         1.4690   -0.4840   -3.7510 ca        1 NIL      0.127600
     26 C19         0.7960   -0.5560   -2.5130 ca        1 NIL     -0.050000
     27 N31         0.7330   -0.4230   -4.9560 nh        1 NIL     -0.710300
     28 C33        -0.1290    0.6580   -5.2440 ca        1 NIL      0.869900
     29 N40        -0.5830    1.4630   -4.2060 nb        1 NIL     -0.734000
     30 C38        -1.4700    2.4100   -4.5420 ca        1 NIL      0.463200
     31 C36        -1.9330    2.6120   -5.8530 ca        1 NIL     -0.403600
     32 C35        -1.4110    1.7600   -6.8540 cp        1 NIL      0.538800
     33 N34        -0.5060    0.7930   -6.5740 nb        1 NIL     -0.745000
     34 C41        -1.8550    1.9320   -8.2450 cp        1 NIL     -0.277800
     35 C49        -0.9840    1.7550   -9.3290 ca        1 NIL     -0.051000
     36 C47        -1.4710    1.9490  -10.6230 ca        1 NIL     -0.254300
     37 C45        -2.8200    2.3080  -10.7900 ca        1 NIL      0.407200
     38 N44        -3.6760    2.4720   -9.7610 nb        1 NIL     -0.665000
     39 C42        -3.1970    2.2850   -8.5190 ca        1 NIL      0.418200
     40 HN14        2.0190    0.6510    0.7690 hn        1 NIL      0.326500
     41 H9         -0.5970   -1.5490    2.1940 ha        1 NIL      0.188000
     42 H56        -2.6020   -2.2100    2.7860 h4        1 NIL      0.190000
     43 H58        -4.5380   -3.9960    3.4020 hc        1 NIL      0.049033
     44 H58A       -5.4000   -3.5500    4.9400 hc        1 NIL      0.049033
     45 H58B       -4.1740   -4.8860    4.9450 hc        1 NIL      0.049033
     46 H52        -1.4530   -1.1580    6.7950 h5        1 NIL      0.065100
     47 H6         -0.6660    0.7360    5.9100 ha        1 NIL      0.161000
     48 H12         1.9420    1.9640    2.7050 ha        1 NIL      0.153000
     49 H25         3.4930   -0.8750   -0.4220 ha        1 NIL      0.140000
     50 H23         4.6830   -0.7840   -2.5940 ha        1 NIL      0.141000
     51 H27         4.7390   -0.4850   -4.8680 hc        1 NIL      0.052033
     52 H27A        3.3620    0.4010   -5.6380 hc        1 NIL      0.052033
     53 H27B        3.4140   -1.4150   -5.6760 hc        1 NIL      0.052033
     54 H19        -0.3060   -0.5290   -2.4650 ha        1 NIL      0.175000
     55 HN31        1.2020   -0.8090   -5.7520 hn        1 NIL      0.443800
     56 H38        -1.8240    3.0450   -3.7080 h4        1 NIL      0.032100
     57 H36        -2.6540    3.4020   -6.0890 ha        1 NIL      0.160000
     58 H49         0.0650    1.4680   -9.1640 ha        1 NIL      0.153000
     59 H47        -0.8170    1.8220  -11.4960 ha        1 NIL      0.148000
     60 H45        -3.2440    2.4710  -11.7970 h4        1 NIL      0.026100
     61 H42        -3.9270    2.4150   -7.6980 h4        1 NIL      0.028100
@<TRIPOS>BOND
     1    1    2 2   
     2    2    3 1   
     3    2   20 1   
     4    3    4 1   
     5    3   40 1   
     6    4    5 ar  
     7    4   14 ar  
     8    5    6 ar  
     9    5   41 1   
    10    6    7 1   
    11    6   13 ar  
    12    7    8 1   
    13    7   12 1   
    14    8    9 2   
    15    8   42 1   
    16    9   10 1   
    17    9   11 1   
    18   10   43 1   
    19   10   44 1   
    20   10   45 1   
    21   11   12 2   
    22   12   46 1   
    23   13   15 ar  
    24   13   47 1   
    25   14   15 ar  
    26   14   48 1   
    27   15   16 1   
    28   16   17 1   
    29   16   18 1   
    30   16   19 1   
    31   20   21 ar  
    32   20   26 ar  
    33   21   22 ar  
    34   21   49 1   
    35   22   23 ar  
    36   22   50 1   
    37   23   24 1   
    38   23   25 ar  
    39   24   51 1   
    40   24   52 1   
    41   24   53 1   
    42   25   26 ar  
    43   25   27 1   
    44   26   54 1   
    45   27   28 1   
    46   27   55 1   
    47   28   29 ar  
    48   28   33 ar  
    49   29   30 ar  
    50   30   31 ar  
    51   30   56 1   
    52   31   32 ar  
    53   31   57 1   
    54   32   33 ar  
    55   32   34 1   
    56   34   35 ar  
    57   34   39 ar  
    58   35   36 ar  
    59   35   58 1   
    60   36   37 ar  
    61   36   59 1   
    62   37   38 ar  
    63   37   60 1   
    64   38   39 ar  
    65   39   61 1   
@<TRIPOS>SUBSTRUCTURE
     1 NIL         1 TEMP              0 ****  ****    0 ROOT
