@<TRIPOS>MOLECULE
NIL
   61    65     1     0     0
SMALL
bcc


@<TRIPOS>ATOM
      1 O17        -0.2480   -1.4580    0.0770 o         1 NIL     -0.575100
      2 C16         0.7640   -0.7480   -0.0480 c         1 NIL      0.688700
      3 N14         1.2670    0.0390    0.9880 ns        1 NIL     -0.472100
      4 C11         0.7310    0.1840    2.2750 ca        1 NIL      0.099600
      5 C9         -0.2290   -0.7020    2.8040 ca        1 NIL     -0.160000
      6 C8         -0.7330   -0.5150    4.1080 ca        1 NIL      0.054800
      7 N51        -1.7000   -1.3940    4.6200 na        1 NIL     -0.152000
      8 C56        -2.5770   -2.2050    3.8800 cc        1 NIL     -0.238600
      9 C55        -3.3500   -2.9120    4.8180 cd        1 NIL      0.311600
     10 C58        -4.4120   -3.8850    4.5180 c3        1 NIL     -0.116400
     11 N54        -2.9600   -2.5520    6.1230 nd        1 NIL     -0.655000
     12 C52        -1.9790   -1.6480    5.9830 cc        1 NIL      0.409400
     13 C6         -0.2610    0.5560    4.8950 ca        1 NIL     -0.144000
     14 C12         1.2000    1.2510    3.0800 ca        1 NIL     -0.160000
     15 C5          0.7020    1.4110    4.3670 ca        1 NIL     -0.113300
     16 C2          1.2360    2.5530    5.2290 c3        1 NIL      0.686200
     17 F4          2.3560    2.2270    5.9550 f         1 NIL     -0.234633
     18 F3          1.6080    3.6720    4.5250 f         1 NIL     -0.234633
     19 F1          0.3510    3.0230    6.1680 f         1 NIL     -0.234633
     20 C18         1.5220   -0.6740   -1.3320 ca        1 NIL     -0.148600
     21 C25         2.9160   -0.7570   -1.3600 ca        1 NIL     -0.111000
     22 C23         3.5790   -0.7130   -2.5820 ca        1 NIL     -0.123000
     23 C22         2.8770   -0.5670   -3.7830 ca        1 NIL     -0.082300
     24 C27         3.6260   -0.5160   -5.0610 c3        1 NIL     -0.065800
     25 C21         1.4610   -0.4850   -3.7550 ca        1 NIL      0.127600
     26 C19         0.7920   -0.5560   -2.5150 ca        1 NIL     -0.050000
     27 N31         0.7230   -0.4230   -4.9590 nu        1 NIL     -0.710300
     28 C33        -0.1390    0.6590   -5.2450 ca        1 NIL      0.869900
     29 N40        -0.5900    1.4640   -4.2050 nb        1 NIL     -0.734000
     30 C38        -1.4760    2.4130   -4.5400 ca        1 NIL      0.463200
     31 C36        -1.9410    2.6150   -5.8490 ca        1 NIL     -0.403600
     32 C35        -1.4220    1.7640   -6.8520 cp        1 NIL      0.538800
     33 N34        -0.5170    0.7950   -6.5740 nb        1 NIL     -0.745000
     34 C41        -1.8690    1.9360   -8.2420 cp        1 NIL     -0.277800
     35 C49        -1.0000    1.7590   -9.3280 ca        1 NIL     -0.051000
     36 C47        -1.4880    1.9540  -10.6200 ca        1 NIL     -0.254300
     37 C45        -2.8370    2.3150  -10.7850 ca        1 NIL      0.407200
     38 N44        -3.6910    2.4790   -9.7550 nb        1 NIL     -0.665000
     39 C42        -3.2110    2.2910   -8.5140 ca        1 NIL      0.418200
     40 HN14        2.0230    0.6490    0.7640 hn        1 NIL      0.326500
     41 H9         -0.5900   -1.5500    2.1940 ha        1 NIL      0.188000
     42 H56        -2.5940   -2.2100    2.7920 h4        1 NIL      0.190000
     43 H58        -4.1620   -4.8850    4.9550 hc        1 NIL      0.049033
     44 H58A       -4.5300   -3.9950    3.4120 hc        1 NIL      0.049033
     45 H58B       -5.3870   -3.5490    4.9530 hc        1 NIL      0.049033
     46 H52        -1.4340   -1.1610    6.7980 h5        1 NIL      0.065100
     47 H6         -0.6480    0.7340    5.9110 ha        1 NIL      0.161000
     48 H12         1.9520    1.9620    2.7010 ha        1 NIL      0.153000
     49 H25         3.4930   -0.8790   -0.4310 ha        1 NIL      0.140000
     50 H23         4.6770   -0.7880   -2.6060 ha        1 NIL      0.141000
     51 H27         3.3510    0.3970   -5.6470 hc        1 NIL      0.052033
     52 H27A        4.7290   -0.4900   -4.8800 hc        1 NIL      0.052033
     53 H27B        3.4010   -1.4190   -5.6840 hc        1 NIL      0.052033
     54 H19        -0.3100   -0.5280   -2.4650 ha        1 NIL      0.175000
     55 HN31        1.1890   -0.8100   -5.7550 hn        1 NIL      0.443800
     56 H38        -1.8280    3.0470   -3.7040 h4        1 NIL      0.032100
     57 H36        -2.6610    3.4060   -6.0840 ha        1 NIL      0.160000
     58 H49         0.0500    1.4710   -9.1650 ha        1 NIL      0.153000
     59 H47        -0.8360    1.8270  -11.4950 ha        1 NIL      0.148000
     60 H45        -3.2630    2.4790  -11.7910 h4        1 NIL      0.026100
     61 H42        -3.9380    2.4210   -7.6920 h4        1 NIL      0.028100
@<TRIPOS>BOND
     1    1    2 2   
     2    2    3 1   
     3    2   20 1   
     4    3    4 1   
     5    3   40 1   
     6    4    5 ar  
     7    4   14 ar  
     8    5    6 ar  
     9    5   41 1   
    10    6    7 1   
    11    6   13 ar  
    12    7    8 1   
    13    7   12 1   
    14    8    9 2   
    15    8   42 1   
    16    9   10 1   
    17    9   11 1   
    18   10   43 1   
    19   10   44 1   
    20   10   45 1   
    21   11   12 2   
    22   12   46 1   
    23   13   15 ar  
    24   13   47 1   
    25   14   15 ar  
    26   14   48 1   
    27   15   16 1   
    28   16   17 1   
    29   16   18 1   
    30   16   19 1   
    31   20   21 ar  
    32   20   26 ar  
    33   21   22 ar  
    34   21   49 1   
    35   22   23 ar  
    36   22   50 1   
    37   23   24 1   
    38   23   25 ar  
    39   24   51 1   
    40   24   52 1   
    41   24   53 1   
    42   25   26 ar  
    43   25   27 1   
    44   26   54 1   
    45   27   28 1   
    46   27   55 1   
    47   28   29 ar  
    48   28   33 ar  
    49   29   30 ar  
    50   30   31 ar  
    51   30   56 1   
    52   31   32 ar  
    53   31   57 1   
    54   32   33 ar  
    55   32   34 1   
    56   34   35 ar  
    57   34   39 ar  
    58   35   36 ar  
    59   35   58 1   
    60   36   37 ar  
    61   36   59 1   
    62   37   38 ar  
    63   37   60 1   
    64   38   39 ar  
    65   39   61 1   
@<TRIPOS>SUBSTRUCTURE
     1 NIL         1 TEMP              0 ****  ****    0 ROOT
