@<TRIPOS>MOLECULE
NIL
   61    50     1     0     0
SMALL
bcc


@<TRIPOS>ATOM
      1 O17        -1.0060   -0.8430    0.9690 o         1 NIL     -0.326000
      2 C16         0.2030   -0.7140    1.0020 c1        1 NIL      0.361000
      3 N14         0.8640   -0.4860    2.2480 n2        1 NIL     -0.328000
      4 C11         0.1070   -0.4090    3.4520 c2        1 NIL      0.108000
      5 C9          0.6780   -0.7980    4.6550 c1        1 NIL     -0.192000
      6 C8         -0.0230   -0.6360    5.8390 c1        1 NIL      0.031333
      7 N51         0.5090   -1.0580    6.9950 n2        1 NIL     -0.130000
      8 C56         1.2490   -0.3250    7.8320 c1        1 NIL     -0.130500
      9 C55         1.6670   -1.1380    8.8500 c1        1 NIL     -0.130500
     10 C58         2.5740   -0.7380    9.9910 c2        1 NIL     -0.140000
     11 N54         1.1790   -2.3620    8.6270 n2        1 NIL     -0.130000
     12 C52         0.4590   -2.3230    7.4790 c1        1 NIL     -0.082000
     13 C6         -1.2940   -0.0870    5.8220 c1        1 NIL     -0.152667
     14 C12        -1.1630    0.1400    3.4350 c2        1 NIL     -0.127000
     15 C5         -1.8650    0.3010    4.6200 c1        1 NIL     -0.110000
     16 C2         -3.2520    0.8770    4.5990 c3        1 NIL      0.466000
     17 F4         -3.2030    2.1720    4.9350 f         1 NIL     -0.161667
     18 F3         -3.7670    0.7540    3.3700 f         1 NIL     -0.161667
     19 F1         -4.0220    0.2180    5.4730 f         1 NIL     -0.161667
     20 C18         1.0150   -0.8220   -0.2810 c2        1 NIL     -0.127000
     21 C25         2.4000   -0.8160   -0.2270 c2        1 NIL     -0.112000
     22 C23         3.1410   -0.8780   -1.3990 c1        1 NIL     -0.123000
     23 C22         2.4950   -0.9450   -2.6250 c1        1 NIL     -0.076000
     24 C27         3.3050   -1.0290   -3.9060 c3        1 NIL     -0.191000
     25 C21         1.1090   -0.9510   -2.6800 c1        1 NIL      0.047000
     26 C19         0.3690   -0.8890   -1.5070 c1        1 NIL     -0.050000
     27 N31         0.4500   -0.9680   -3.9340 n3        1 NIL     -0.231000
     28 C33         0.0540    0.2470   -4.5420 c2        1 NIL      0.152000
     29 N40         0.5570    1.4300   -4.0900 n2        1 NIL     -0.208000
     30 C38         0.1760    2.5820   -4.6600 c1        1 NIL     -0.001000
     31 C36        -0.7160    2.5700   -5.6920 c1        1 NIL     -0.152667
     32 C35        -1.2190    1.3850   -6.1430 c1        1 NIL      0.031333
     33 N34        -0.8370    0.2340   -5.5720 n1        1 NIL     -0.220000
     34 C41        -2.0810    1.3670   -7.2260 c1        1 NIL      0.031333
     35 C49        -1.5880    1.2020   -8.4870 c1        1 NIL     -0.120000
     36 C47        -2.4430    1.1060   -9.5470 c1        1 NIL     -0.120000
     37 C45        -3.8100    1.1770   -9.3410 c1        1 NIL     -0.058000
     38 N44        -4.3020    1.3420   -8.0810 n1        1 NIL     -0.139000
     39 C42        -3.4500    1.4380   -7.0230 c1        1 NIL     -0.152667
     40 HN14        1.7700   -0.3930    2.2730 hn        1 NIL      0.238000
     41 H9          1.5770   -1.1740    4.6680 ha        1 NIL      0.145000
     42 H56         1.4580    0.6230    7.7320 DU        1 NIL      0.191500
     43 H58         3.3780   -0.3070    9.6340 ha        1 NIL      0.088667
     44 H58A        2.8310   -1.5360   10.5000 ha        1 NIL      0.088667
     45 H58B        2.1030   -0.1130   10.5800 ha        1 NIL      0.088667
     46 H52        -0.0120   -3.0750    7.0720 DU        1 NIL      0.191500
     47 H6         -1.7880    0.0260    6.6560 ha        1 NIL      0.162667
     48 H12        -1.5650    0.4130    2.5890 ha        1 NIL      0.196000
     49 H25         2.8540   -0.7690    0.6350 ha        1 NIL      0.139000
     50 H23         4.1150   -0.8730   -1.3610 ha        1 NIL      0.141000
     51 H27         2.9490   -0.3910   -4.5610 hc        1 NIL      0.091000
     52 H27A        3.2480   -1.9380   -4.2700 hc        1 NIL      0.091000
     53 H27B        4.2430   -0.8120   -3.7150 hc        1 NIL      0.091000
     54 H19        -0.6070   -0.8930   -1.5450 ha        1 NIL      0.175000
     55 HN31        0.3230   -1.7580   -4.3720 hn        1 NIL      0.239000
     56 H38         0.5370    3.4290   -4.3360 ha        1 NIL      0.169000
     57 H36        -0.9940    3.4080   -6.1060 ha        1 NIL      0.162667
     58 H49        -0.6230    1.1520   -8.6320 ha        1 NIL      0.150500
     59 H47        -2.0900    0.9870  -10.4490 ha        1 NIL      0.150500
     60 H45        -4.4220    1.1080  -10.0980 ha        1 NIL      0.163000
     61 H42        -3.8040    1.5560   -6.1200 ha        1 NIL      0.162667
@<TRIPOS>BOND
     1    1    2 1   
     2    2   20 1   
     3    3    4 1   
     4    3   40 1   
     5    4    5 1   
     6    4   14 1   
     7    5   41 1   
     8    6   13 1   
     9    7    8 1   
    10    7   12 1   
    11    8    9 1   
    12    9   11 1   
    13   10   43 1   
    14   10   44 1   
    15   10   45 1   
    16   11   12 1   
    17   13   47 1   
    18   14   15 1   
    19   14   48 1   
    20   15   16 1   
    21   16   17 1   
    22   16   18 1   
    23   16   19 1   
    24   20   21 1   
    25   20   26 1   
    26   21   22 1   
    27   21   49 1   
    28   22   50 1   
    29   23   24 1   
    30   23   25 1   
    31   24   51 1   
    32   24   52 1   
    33   24   53 1   
    34   25   27 1   
    35   26   54 1   
    36   27   28 1   
    37   27   55 1   
    38   28   29 1   
    39   28   33 1   
    40   29   30 1   
    41   30   56 1   
    42   31   32 1   
    43   31   57 1   
    44   34   39 1   
    45   35   36 1   
    46   35   58 1   
    47   36   59 1   
    48   37   38 1   
    49   37   60 1   
    50   39   61 1   
@<TRIPOS>SUBSTRUCTURE
     1 NIL         1 TEMP              0 ****  ****    0 ROOT
