@<TRIPOS>MOLECULE
NIL
   61    65     1     0     0
SMALL
bcc


@<TRIPOS>ATOM
      1 O17         0.9820   -0.5070   -1.7060 o         1 NIL     -0.575100
      2 C16         0.9360    0.6320   -1.2100 c         1 NIL      0.688700
      3 N14         1.9660    1.1580   -0.4320 n         1 NIL     -0.472100
      4 C11         3.1580    0.5180   -0.0660 ca        1 NIL      0.099600
      5 C9          3.6240   -0.6480   -0.7040 ca        1 NIL     -0.160000
      6 C8          4.8340   -1.2500   -0.3010 ca        1 NIL      0.054800
      7 N51         5.2820   -2.4200   -0.9330 na        1 NIL     -0.152000
      8 C56         4.4980   -3.3490   -1.6380 cc        1 NIL     -0.238600
      9 C55         5.3780   -4.3450   -2.0960 cd        1 NIL      0.311600
     10 C58         5.0170   -5.5350   -2.8830 c3        1 NIL     -0.116400
     11 N54         6.6920   -4.0420   -1.6870 nd        1 NIL     -0.655000
     12 C52         6.6120   -2.8950   -0.9970 cc        1 NIL      0.409400
     13 C6          5.5930   -0.6710    0.7380 ca        1 NIL     -0.144000
     14 C12         3.9350    1.0920    0.9710 ca        1 NIL     -0.160000
     15 C5          5.1310    0.4920    1.3450 ca        1 NIL     -0.113300
     16 C2          5.9670    1.1370    2.4500 c3        1 NIL      0.686200
     17 F4          6.8540    2.0840    1.9970 f         1 NIL     -0.234633
     18 F3          5.2350    1.7960    3.4070 f         1 NIL     -0.234633
     19 F1          6.7460    0.2610    3.1640 f         1 NIL     -0.234633
     20 C18        -0.2410    1.5290   -1.4030 ca        1 NIL     -0.148600
     21 C25        -0.0830    2.8750   -1.7440 ca        1 NIL     -0.111000
     22 C23        -1.2080    3.6670   -1.9420 ca        1 NIL     -0.123000
     23 C22        -2.4970    3.1470   -1.7880 ca        1 NIL     -0.082300
     24 C27        -3.6680    4.0310   -2.0010 c3        1 NIL     -0.065800
     25 C21        -2.6590    1.7800   -1.4440 ca        1 NIL      0.127600
     26 C19        -1.5150    0.9750   -1.2690 ca        1 NIL     -0.050000
     27 N31        -3.9490    1.2090   -1.3640 nh        1 NIL     -0.710300
     28 C33        -4.4240    0.6130   -0.1750 ca        1 NIL      0.869900
     29 N40        -3.5140    0.2130    0.7970 nb        1 NIL     -0.734000
     30 C38        -4.0300   -0.4270    1.8560 ca        1 NIL      0.463200
     31 C36        -5.4010   -0.6930    2.0120 ca        1 NIL     -0.403600
     32 C35        -6.2610   -0.2400    0.9860 cp        1 NIL      0.538800
     33 N34        -5.7980    0.4210   -0.1010 nb        1 NIL     -0.745000
     34 C41        -7.7070   -0.4850    1.1010 cp        1 NIL     -0.277800
     35 C49        -8.6540    0.4500    0.6620 ca        1 NIL     -0.051000
     36 C47       -10.0100    0.1590    0.8170 ca        1 NIL     -0.254300
     37 C45       -10.3740   -1.0670    1.4020 ca        1 NIL      0.407200
     38 N44        -9.4790   -1.9830    1.8220 nb        1 NIL     -0.665000
     39 C42        -8.1750   -1.6920    1.6700 ca        1 NIL      0.418200
     40 HN14        1.7970    2.0390    0.0040 hn        1 NIL      0.326500
     41 H9          3.0380   -1.0960   -1.5270 ha        1 NIL      0.188000
     42 H56         3.4200   -3.2440   -1.7470 h4        1 NIL      0.190000
     43 H58         5.5560   -5.5340   -3.8640 hc        1 NIL      0.049033
     44 H58A        5.2960   -6.4690   -2.3330 hc        1 NIL      0.049033
     45 H58B        3.9170   -5.5460   -3.0770 hc        1 NIL      0.049033
     46 H52         7.4520   -2.3610   -0.5400 h5        1 NIL      0.065100
     47 H6          6.5350   -1.1280    1.0830 ha        1 NIL      0.161000
     48 H12         3.6040    2.0050    1.4920 ha        1 NIL      0.153000
     49 H25         0.9200    3.3080   -1.8790 ha        1 NIL      0.140000
     50 H23        -1.0840    4.7250   -2.2210 ha        1 NIL      0.141000
     51 H27        -4.2460    3.7060   -2.9030 hc        1 NIL      0.052033
     52 H27A       -4.3510    4.0070   -1.1140 hc        1 NIL      0.052033
     53 H27B       -3.3490    5.0900   -2.1610 hc        1 NIL      0.052033
     54 H19        -1.6090   -0.1000   -1.0340 ha        1 NIL      0.175000
     55 HN31       -4.6480    1.6780   -1.9070 hn        1 NIL      0.443800
     56 H38        -3.2970   -0.7410    2.6230 h4        1 NIL      0.032100
     57 H36        -5.7850   -1.2140    2.8950 ha        1 NIL      0.160000
     58 H49        -8.3360    1.3980    0.2020 ha        1 NIL      0.153000
     59 H47       -10.7810    0.8680    0.4870 ha        1 NIL      0.148000
     60 H45       -11.4370   -1.3360    1.5430 h4        1 NIL      0.026100
     61 H42        -7.4660   -2.4690    2.0110 h4        1 NIL      0.028100
@<TRIPOS>BOND
     1    1    2 2   
     2    2    3 1   
     3    2   20 1   
     4    3    4 1   
     5    3   40 1   
     6    4    5 ar  
     7    4   14 ar  
     8    5    6 ar  
     9    5   41 1   
    10    6    7 1   
    11    6   13 ar  
    12    7    8 1   
    13    7   12 1   
    14    8    9 2   
    15    8   42 1   
    16    9   10 1   
    17    9   11 1   
    18   10   43 1   
    19   10   44 1   
    20   10   45 1   
    21   11   12 2   
    22   12   46 1   
    23   13   15 ar  
    24   13   47 1   
    25   14   15 ar  
    26   14   48 1   
    27   15   16 1   
    28   16   17 1   
    29   16   18 1   
    30   16   19 1   
    31   20   21 ar  
    32   20   26 ar  
    33   21   22 ar  
    34   21   49 1   
    35   22   23 ar  
    36   22   50 1   
    37   23   24 1   
    38   23   25 ar  
    39   24   51 1   
    40   24   52 1   
    41   24   53 1   
    42   25   26 ar  
    43   25   27 1   
    44   26   54 1   
    45   27   28 1   
    46   27   55 1   
    47   28   29 ar  
    48   28   33 ar  
    49   29   30 ar  
    50   30   31 ar  
    51   30   56 1   
    52   31   32 ar  
    53   31   57 1   
    54   32   33 ar  
    55   32   34 1   
    56   34   35 ar  
    57   34   39 ar  
    58   35   36 ar  
    59   35   58 1   
    60   36   37 ar  
    61   36   59 1   
    62   37   38 ar  
    63   37   60 1   
    64   38   39 ar  
    65   39   61 1   
@<TRIPOS>SUBSTRUCTURE
     1 NIL         1 TEMP              0 ****  ****    0 ROOT
