@<TRIPOS>MOLECULE
NIM
   33    34     1     0     0
SMALL
bcc


@<TRIPOS>ATOM
      1 O4         -0.7280   -0.4660   -0.3400 o         1 NIM     -0.206000
      2 N2          0.4020   -0.1410   -0.0860 no        1 NIM      0.319200
      3 O3          0.7700    0.0650    1.0390 o         1 NIM     -0.206000
      4 C5          1.3710    0.0120   -1.1990 ca        1 NIM     -0.198200
      5 C4          0.9670   -0.2470   -2.5180 ca        1 NIM     -0.039000
      6 C3          1.8690   -0.1020   -3.5630 ca        1 NIM     -0.198000
      7 C2          3.2030    0.3080   -3.3300 ca        1 NIM      0.219600
      8 N1          4.1200    0.4730   -4.3640 nh        1 NIM     -0.762500
      9 S1          3.8680    0.5820   -5.9840 s6        1 NIM      1.470900
     10 O1          5.1180    0.4380   -6.6100 o         1 NIM     -0.640300
     11 O2          2.8320   -0.2720   -6.3960 o         1 NIM     -0.640300
     12 C1          3.3440    2.1810   -6.1770 c3        1 NIM     -0.378300
     13 C6          2.6850    0.4140   -0.9220 ca        1 NIM     -0.063000
     14 C7          3.5840    0.5570   -1.9780 ca        1 NIM      0.036100
     15 O5          4.8620    1.0630   -1.7560 os        1 NIM     -0.257200
     16 C8          5.6370    0.3830   -0.8120 ca        1 NIM      0.089100
     17 C13         5.5160   -0.9880   -0.5650 ca        1 NIM     -0.155000
     18 C12         6.3930   -1.5870    0.3380 ca        1 NIM     -0.102500
     19 C11         7.3740   -0.8300    0.9770 ca        1 NIM     -0.142000
     20 C10         7.4840    0.5380    0.7190 ca        1 NIM     -0.102500
     21 C9          6.6150    1.1610   -0.1740 ca        1 NIM     -0.155000
     22 H4         -0.0680   -0.5730   -2.7280 ha        1 NIM      0.179000
     23 H3          1.5270   -0.3420   -4.5880 ha        1 NIM      0.186000
     24 HN1         5.0590    0.5730   -4.0250 hn        1 NIM      0.473800
     25 H11A        4.0980    2.9430   -5.8600 h1        1 NIM      0.123367
     26 H12A        2.4010    2.4210   -5.6280 h1        1 NIM      0.123367
     27 H13A        3.1310    2.3930   -7.2580 h1        1 NIM      0.123367
     28 H6          3.0150    0.6140    0.1130 ha        1 NIM      0.188000
     29 H13         4.7390   -1.5790   -1.0700 ha        1 NIM      0.148500
     30 H12         6.3070   -2.6650    0.5440 ha        1 NIM      0.140500
     31 H11         8.0630   -1.3100    1.6870 ha        1 NIM      0.139000
     32 H10         8.2580    1.1330    1.2260 ha        1 NIM      0.140500
     33 H9          6.6870    2.2360   -0.3880 ha        1 NIM      0.148500
@<TRIPOS>BOND
     1    1    2 1   
     2    2    3 1   
     3    2    4 1   
     4    4    5 ar  
     5    4   13 ar  
     6    5    6 ar  
     7    5   22 1   
     8    6    7 ar  
     9    6   23 1   
    10    7    8 1   
    11    7   14 ar  
    12    8    9 1   
    13    8   24 1   
    14    9   10 2   
    15    9   11 2   
    16    9   12 1   
    17   12   25 1   
    18   12   26 1   
    19   12   27 1   
    20   13   14 ar  
    21   13   28 1   
    22   14   15 1   
    23   15   16 1   
    24   16   17 ar  
    25   16   21 ar  
    26   17   18 ar  
    27   17   29 1   
    28   18   19 ar  
    29   18   30 1   
    30   19   20 ar  
    31   19   31 1   
    32   20   21 ar  
    33   20   32 1   
    34   21   33 1   
@<TRIPOS>SUBSTRUCTURE
     1 NIM         1 TEMP              0 ****  ****    0 ROOT
