@<TRIPOS>MOLECULE
NIM
   33    34     1     0     0
SMALL
bcc


@<TRIPOS>ATOM
      1 O4         -0.7290   -0.5000   -0.3610 o         1 NIM     -0.206000
      2 N2          0.3980   -0.1720   -0.1010 no        1 NIM      0.319200
      3 O3          0.7620    0.0290    1.0260 o         1 NIM     -0.206000
      4 C5          1.3700   -0.0080   -1.2110 ca        1 NIM     -0.198200
      5 C4          0.9710   -0.2610   -2.5320 ca        1 NIM     -0.040000
      6 C3          1.8750   -0.1060   -3.5740 ca        1 NIM     -0.198000
      7 C2          3.2070    0.3090   -3.3340 ca        1 NIM      0.218600
      8 N1          4.1270    0.4840   -4.3640 nh        1 NIM     -0.762500
      9 S1          3.8780    0.6020   -5.9840 s6        1 NIM      1.470900
     10 O1          5.1310    0.4670   -6.6070 o         1 NIM     -0.640300
     11 O2          2.8480   -0.2530   -6.4050 o         1 NIM     -0.640300
     12 C1          3.3490    2.2000   -6.1690 c3        1 NIM     -0.378300
     13 C6          2.6810    0.3990   -0.9270 ca        1 NIM     -0.063000
     14 C7          3.5820    0.5520   -1.9790 ca        1 NIM      0.036100
     15 O5          4.8580    1.0640   -1.7500 os        1 NIM     -0.257200
     16 C8          5.6310    0.3840   -0.8060 ca        1 NIM      0.089100
     17 C13         5.5160   -0.9890   -0.5640 ca        1 NIM     -0.155000
     18 C12         6.3930   -1.5870    0.3410 ca        1 NIM     -0.102500
     19 C11         7.3670   -0.8270    0.9860 ca        1 NIM     -0.142000
     20 C10         7.4710    0.5420    0.7330 ca        1 NIM     -0.102500
     21 C9          6.6030    1.1640   -0.1610 ca        1 NIM     -0.155000
     22 H4         -0.0610   -0.5910   -2.7470 ha        1 NIM      0.179000
     23 H3          1.5380   -0.3420   -4.6010 ha        1 NIM      0.186000
     24 HN1         5.0640    0.5860   -4.0210 hn        1 NIM      0.473800
     25 H11A        2.4030    2.4330   -5.6210 h1        1 NIM      0.123367
     26 H12A        4.0990    2.9630   -5.8460 h1        1 NIM      0.123367
     27 H13A        3.1370    2.4180   -7.2490 h1        1 NIM      0.123367
     28 H6          3.0070    0.5950    0.1100 ha        1 NIM      0.188000
     29 H13         4.7440   -1.5820   -1.0750 ha        1 NIM      0.148500
     30 H12         6.3120   -2.6660    0.5410 ha        1 NIM      0.140500
     31 H11         8.0560   -1.3060    1.6970 ha        1 NIM      0.139000
     32 H10         8.2410    1.1390    1.2450 ha        1 NIM      0.140500
     33 H9          6.6710    2.2400   -0.3710 ha        1 NIM      0.148500
@<TRIPOS>BOND
     1    1    2 1   
     2    2    3 1   
     3    2    4 1   
     4    4    5 ar  
     5    4   13 ar  
     6    5    6 ar  
     7    5   22 1   
     8    6    7 ar  
     9    6   23 1   
    10    7    8 1   
    11    7   14 ar  
    12    8    9 1   
    13    8   24 1   
    14    9   10 2   
    15    9   11 2   
    16    9   12 1   
    17   12   25 1   
    18   12   26 1   
    19   12   27 1   
    20   13   14 ar  
    21   13   28 1   
    22   14   15 1   
    23   15   16 1   
    24   16   17 ar  
    25   16   21 ar  
    26   17   18 ar  
    27   17   29 1   
    28   18   19 ar  
    29   18   30 1   
    30   19   20 ar  
    31   19   31 1   
    32   20   21 ar  
    33   20   32 1   
    34   21   33 1   
@<TRIPOS>SUBSTRUCTURE
     1 NIM         1 TEMP              0 ****  ****    0 ROOT
