@<TRIPOS>MOLECULE
NIM
   33    34     1     0     0
SMALL
bcc


@<TRIPOS>ATOM
      1 O4         -1.2690    4.7560   -0.4300 o         1 NIM     -0.206000
      2 N2         -1.7030    3.7010   -0.0510 no        1 NIM      0.319200
      3 O3         -2.8390    3.5710    0.3180 o         1 NIM     -0.206000
      4 C5         -0.8040    2.5200   -0.0380 ca        1 NIM     -0.198200
      5 C4          0.5200    2.6440   -0.4880 ca        1 NIM     -0.040000
      6 C3          1.3650    1.5440   -0.4750 ca        1 NIM     -0.198000
      7 C2          0.9220    0.2830   -0.0110 ca        1 NIM      0.218600
      8 N1          1.7560   -0.8310    0.0250 nh        1 NIM     -0.762500
      9 S1          3.3920   -0.9210   -0.1000 s6        1 NIM      1.470900
     10 O1          3.7180   -2.2720   -0.3070 o         1 NIM     -0.640300
     11 O2          3.8850    0.0160   -1.0210 o         1 NIM     -0.640300
     12 C1          3.9130   -0.4670    1.4470 c3        1 NIM     -0.378300
     13 C6         -1.2870    1.2880    0.4240 ca        1 NIM     -0.063000
     14 C7         -0.4310    0.1890    0.4340 ca        1 NIM      0.036100
     15 O5         -0.8390   -1.0220    0.9910 os        1 NIM     -0.257200
     16 C8         -2.0100   -1.5750    0.4670 ca        1 NIM      0.089100
     17 C13        -2.4210   -1.3900   -0.8570 ca        1 NIM     -0.155000
     18 C12        -3.5630   -2.0530   -1.3040 ca        1 NIM     -0.102500
     19 C11        -4.2760   -2.8880   -0.4450 ca        1 NIM     -0.142000
     20 C10        -3.8530   -3.0640    0.8740 ca        1 NIM     -0.102500
     21 C9         -2.7200   -2.4070    1.3460 ca        1 NIM     -0.155000
     22 H4          0.8910    3.6160   -0.8590 ha        1 NIM      0.179000
     23 H3          2.3940    1.6680   -0.8630 ha        1 NIM      0.186000
     24 HN1         1.2470   -1.6800    0.1890 hn        1 NIM      0.473800
     25 H11A        3.6100    0.5670    1.7440 h1        1 NIM      0.123367
     26 H12A        3.5580   -1.1480    2.2600 h1        1 NIM      0.123367
     27 H13A        5.0330   -0.4840    1.5010 h1        1 NIM      0.123367
     28 H6         -2.3290    1.1770    0.7740 ha        1 NIM      0.188000
     29 H13        -1.8560   -0.7290   -1.5290 ha        1 NIM      0.148500
     30 H12        -3.8980   -1.9150   -2.3440 ha        1 NIM      0.140500
     31 H11        -5.1750   -3.4090   -0.8060 ha        1 NIM      0.139000
     32 H10        -4.4190   -3.7230    1.5500 ha        1 NIM      0.140500
     33 H9         -2.3730   -2.5340    2.3810 ha        1 NIM      0.148500
@<TRIPOS>BOND
     1    1    2 1   
     2    2    3 1   
     3    2    4 1   
     4    4    5 ar  
     5    4   13 ar  
     6    5    6 ar  
     7    5   22 1   
     8    6    7 ar  
     9    6   23 1   
    10    7    8 1   
    11    7   14 ar  
    12    8    9 1   
    13    8   24 1   
    14    9   10 2   
    15    9   11 2   
    16    9   12 1   
    17   12   25 1   
    18   12   26 1   
    19   12   27 1   
    20   13   14 ar  
    21   13   28 1   
    22   14   15 1   
    23   15   16 1   
    24   16   17 ar  
    25   16   21 ar  
    26   17   18 ar  
    27   17   29 1   
    28   18   19 ar  
    29   18   30 1   
    30   19   20 ar  
    31   19   31 1   
    32   20   21 ar  
    33   20   32 1   
    34   21   33 1   
@<TRIPOS>SUBSTRUCTURE
     1 NIM         1 TEMP              0 ****  ****    0 ROOT
