@<TRIPOS>MOLECULE
NIM
   33    34     1     0     0
SMALL
bcc


@<TRIPOS>ATOM
      1 O4         -0.7330   -0.4480   -0.3500 o         1 NIM     -0.206000
      2 N2          0.3970   -0.1290   -0.0930 no        1 NIM      0.319200
      3 O3          0.7660    0.0730    1.0330 o         1 NIM     -0.206000
      4 C5          1.3690    0.0210   -1.2050 ca        1 NIM     -0.198200
      5 C4          0.9660   -0.2340   -2.5250 ca        1 NIM     -0.040000
      6 C3          1.8690   -0.0920   -3.5690 ca        1 NIM     -0.198000
      7 C2          3.2050    0.3110   -3.3330 ca        1 NIM      0.218600
      8 N1          4.1250    0.4730   -4.3660 nu        1 NIM     -0.762500
      9 S1          3.8750    0.5870   -5.9850 s6        1 NIM      1.470900
     10 O1          5.1250    0.4370   -6.6100 o         1 NIM     -0.640300
     11 O2          2.8350   -0.2600   -6.4010 o         1 NIM     -0.640300
     12 C1          3.3600    2.1890   -6.1760 c3        1 NIM     -0.378300
     13 C6          2.6850    0.4160   -0.9260 ca        1 NIM     -0.063000
     14 C7          3.5850    0.5560   -1.9800 ca        1 NIM      0.036100
     15 O5          4.8660    1.0570   -1.7550 os        1 NIM     -0.257200
     16 C8          5.6350    0.3730   -0.8090 ca        1 NIM      0.089100
     17 C13         5.5060   -0.9970   -0.5610 ca        1 NIM     -0.155000
     18 C12         6.3790   -1.6000    0.3450 ca        1 NIM     -0.102500
     19 C11         7.3620   -0.8460    0.9860 ca        1 NIM     -0.142000
     20 C10         7.4780    0.5210    0.7270 ca        1 NIM     -0.102500
     21 C9          6.6140    1.1470   -0.1690 ca        1 NIM     -0.155000
     22 H4         -0.0700   -0.5550   -2.7370 ha        1 NIM      0.179000
     23 H3          1.5280   -0.3290   -4.5940 ha        1 NIM      0.186000
     24 HN1         5.0640    0.5680   -4.0250 hn        1 NIM      0.473800
     25 H11A        2.4180    2.4330   -5.6280 h1        1 NIM      0.123367
     26 H12A        4.1180    2.9470   -5.8570 h1        1 NIM      0.123367
     27 H13A        3.1490    2.4050   -7.2560 h1        1 NIM      0.123367
     28 H6          3.0140    0.6130    0.1100 ha        1 NIM      0.188000
     29 H13         4.7280   -1.5850   -1.0680 ha        1 NIM      0.148500
     30 H12         6.2870   -2.6770    0.5500 ha        1 NIM      0.140500
     31 H11         8.0460   -1.3290    1.6980 ha        1 NIM      0.139000
     32 H10         8.2540    1.1130    1.2350 ha        1 NIM      0.140500
     33 H9          6.6930    2.2220   -0.3830 ha        1 NIM      0.148500
@<TRIPOS>BOND
     1    1    2 1   
     2    2    3 1   
     3    2    4 1   
     4    4    5 ar  
     5    4   13 ar  
     6    5    6 ar  
     7    5   22 1   
     8    6    7 ar  
     9    6   23 1   
    10    7    8 1   
    11    7   14 ar  
    12    8    9 1   
    13    8   24 1   
    14    9   10 2   
    15    9   11 2   
    16    9   12 1   
    17   12   25 1   
    18   12   26 1   
    19   12   27 1   
    20   13   14 ar  
    21   13   28 1   
    22   14   15 1   
    23   15   16 1   
    24   16   17 ar  
    25   16   21 ar  
    26   17   18 ar  
    27   17   29 1   
    28   18   19 ar  
    29   18   30 1   
    30   19   20 ar  
    31   19   31 1   
    32   20   21 ar  
    33   20   32 1   
    34   21   33 1   
@<TRIPOS>SUBSTRUCTURE
     1 NIM         1 TEMP              0 ****  ****    0 ROOT
