@<TRIPOS>MOLECULE
NIM
   33    29     1     0     0
SMALL
bcc


@<TRIPOS>ATOM
      1 O4         -1.9570   -0.0320    4.1030 o         1 NIM     -0.487700
      2 N2         -0.9080    0.8110    3.8710 no        1 NIM      0.837400
      3 O3         -0.5610    1.6060    4.7320 o         1 NIM     -0.487700
      4 C5         -0.1950    0.7360    2.6470 c2        1 NIM     -0.162000
      5 C4          0.9250    1.5270    2.4480 c2        1 NIM     -0.030000
      6 C3          1.6570    1.4110    1.2770 c1        1 NIM     -0.202000
      7 C2          1.2700    0.5030    0.3040 c1        1 NIM      0.144000
      8 N1          1.9790    0.4340   -0.9220 n3        1 NIM     -0.813000
      9 S1          3.5540    0.8860   -0.9850 s4        1 NIM      2.042800
     10 O1          4.3500    0.1340   -0.0550 o         1 NIM     -0.526400
     11 O2          3.7330    2.2220   -0.4880 o         1 NIM     -0.526400
     12 C1          4.1730    0.7260   -2.6390 c2        1 NIM     -0.957000
     13 C6         -0.5820   -0.1730    1.6740 c1        1 NIM     -0.041000
     14 C7          0.1500   -0.2900    0.5020 c1        1 NIM     -0.024000
     15 O5         -0.1670   -1.2980   -0.4250 os        1 NIM     -0.161000
     16 C8         -1.5520   -1.3030   -0.6580 c2        1 NIM      0.052000
     17 C13        -2.2720   -2.4810   -0.5230 c2        1 NIM     -0.147000
     18 C12        -3.6130   -2.5170   -0.8690 c1        1 NIM     -0.100000
     19 C11        -4.2360   -1.3760   -1.3500 c1        1 NIM     -0.124500
     20 C10        -3.5180   -0.1990   -1.4840 c1        1 NIM     -0.124500
     21 C9         -2.1760   -0.1620   -1.1380 c1        1 NIM     -0.186000
     22 H4          1.1980    2.1670    3.1330 ha        1 NIM      0.179000
     23 H3          2.4470    1.9700    1.1380 ha        1 NIM      0.187000
     24 HN1         1.5700    0.1010   -1.6670 hn        1 NIM      0.269000
     25 H11A        3.7310    1.3810   -3.2180 ha        1 NIM      0.162333
     26 H12A        3.9920   -0.1780   -2.9690 ha        1 NIM      0.162333
     27 H13A        5.1400    0.8870   -2.6430 ha        1 NIM      0.162333
     28 H6         -1.3710   -0.7310    1.8140 ha        1 NIM      0.189000
     29 H13        -1.8330   -3.2840   -0.1850 ha        1 NIM      0.153000
     30 H12        -4.1190   -3.3470   -0.7750 ha        1 NIM      0.141000
     31 H11        -5.1820   -1.4020   -1.5930 ha        1 NIM      0.139000
     32 H10        -3.9570    0.6050   -1.8230 ha        1 NIM      0.139000
     33 H9         -1.6710    0.6670   -1.2330 ha        1 NIM      0.143000
@<TRIPOS>BOND
     1    1    2 2   
     2    2    3 2   
     3    2    4 1   
     4    4    5 1   
     5    4   13 1   
     6    5    6 1   
     7    5   22 1   
     8    6   23 1   
     9    7    8 1   
    10    7   14 1   
    11    8    9 1   
    12    8   24 1   
    13    9   10 1   
    14    9   11 1   
    15   12   25 1   
    16   12   26 1   
    17   12   27 1   
    18   13   28 1   
    19   14   15 1   
    20   15   16 1   
    21   16   17 1   
    22   16   21 1   
    23   17   18 1   
    24   17   29 1   
    25   18   30 1   
    26   19   20 1   
    27   19   31 1   
    28   20   32 1   
    29   21   33 1   
@<TRIPOS>SUBSTRUCTURE
     1 NIM         1 TEMP              0 ****  ****    0 ROOT
