@<TRIPOS>MOLECULE
NIN
   16    16     1     0     0
SMALL
bcc


@<TRIPOS>ATOM
      1 C1          1.2120    1.5880    0.0000 ca        1 NIN     -0.031000
      2 C2          1.2030    0.1830   -0.0000 ca        1 NIN     -0.188200
      3 N2          2.4960   -0.5570   -0.0010 no        1 NIN      0.316200
      4 O21         3.5180    0.0740   -0.0010 o         1 NIN     -0.193500
      5 O22         2.4750   -1.7570   -0.0010 o         1 NIN     -0.193500
      6 C3          0.0000   -0.5380   -0.0000 ca        1 NIN     -0.012000
      7 C4         -1.2030    0.1830    0.0000 ca        1 NIN     -0.188200
      8 N4         -2.4960   -0.5570    0.0000 no        1 NIN      0.316200
      9 O41        -2.4750   -1.7570    0.0000 o         1 NIN     -0.193500
     10 O42        -3.5180    0.0740    0.0010 o         1 NIN     -0.193500
     11 C5         -1.2120    1.5880    0.0010 ca        1 NIN     -0.031000
     12 C6         -0.0000    2.2760    0.0010 ca        1 NIN     -0.147000
     13 H1          2.1700    2.1380    0.0000 ha        1 NIN      0.183000
     14 H2          0.0000   -1.6470   -0.0000 ha        1 NIN      0.207000
     15 H3         -2.1700    2.1380    0.0010 ha        1 NIN      0.183000
     16 H4         -0.0000    3.3780    0.0010 ha        1 NIN      0.165000
@<TRIPOS>BOND
     1    1    2 ar  
     2    1   12 ar  
     3    1   13 1   
     4    2    3 1   
     5    2    6 ar  
     6    3    4 1   
     7    3    5 1   
     8    6    7 ar  
     9    6   14 1   
    10    7    8 1   
    11    7   11 ar  
    12    8    9 1   
    13    8   10 1   
    14   11   12 ar  
    15   11   15 1   
    16   12   16 1   
@<TRIPOS>SUBSTRUCTURE
     1 NIN         1 TEMP              0 ****  ****    0 ROOT
