@<TRIPOS>MOLECULE
NIN
   16    13     1     0     0
SMALL
bcc


@<TRIPOS>ATOM
      1 C1         -1.1720    0.0640   -1.1830 c1        1 NIN      0.036000
      2 C2          0.2120   -0.0210   -1.2060 c1        1 NIN     -0.197300
      3 N2          0.8980   -0.0750   -2.4470 no        1 NIN      0.325300
      4 O21         1.7320    0.9440   -2.8110 o         1 NIN     -0.193500
      5 O22         0.7410   -1.0320   -3.1910 o         1 NIN     -0.193500
      6 C3          0.9230   -0.0720   -0.0180 c1        1 NIN      0.036000
      7 C4          0.2510   -0.0380    1.1940 c1        1 NIN     -0.197300
      8 N4          0.9800   -0.0690    2.4110 no        1 NIN      0.325300
      9 O41         1.2310    1.0920    3.0860 o         1 NIN     -0.193500
     10 O42         1.3770   -1.1340    2.8590 o         1 NIN     -0.193500
     11 C5         -1.1320    0.0470    1.2170 c1        1 NIN     -0.031500
     12 C6         -1.8430    0.0980    0.0290 c1        1 NIN     -0.031500
     13 H1         -1.6730    0.1000   -2.0200 ha        1 NIN      0.137500
     14 H2          1.8970   -0.1320   -0.0340 ha        1 NIN      0.137500
     15 H3         -1.6060    0.0710    2.0710 ha        1 NIN      0.116500
     16 H4         -2.8180    0.1580    0.0450 ha        1 NIN      0.116500
@<TRIPOS>BOND
     1    1    2 3   
     2    1   13 1   
     3    2    3 1   
     4    3    4 1   
     5    3    5 1   
     6    6    7 3   
     7    6   14 1   
     8    7    8 1   
     9    8    9 1   
    10    8   10 1   
    11   11   12 3   
    12   11   15 1   
    13   12   16 1   
@<TRIPOS>SUBSTRUCTURE
     1 NIN         1 TEMP              0 ****  ****    0 ROOT
