@<TRIPOS>MOLECULE
NIN
   16    16     1     0     0
SMALL
bcc


@<TRIPOS>ATOM
      1 C1         -0.0120    0.0030   -0.0150 ca        1 NIN     -0.031000
      2 C2          1.3930    0.0010   -0.0060 ca        1 NIN     -0.188200
      3 N2          2.1330    0.0010   -1.2990 no        1 NIN      0.316200
      4 O21         1.5030    0.0000   -2.3210 o         1 NIN     -0.193500
      5 O22         3.3330    0.0010   -1.2780 o         1 NIN     -0.193500
      6 C3          2.1140    0.0000    1.1970 ca        1 NIN     -0.012000
      7 C4          1.3930    0.0000    2.4000 ca        1 NIN     -0.188200
      8 N4          2.1330   -0.0010    3.6930 no        1 NIN      0.316200
      9 O41         3.3320   -0.0030    3.6730 o         1 NIN     -0.193500
     10 O42         1.5020   -0.0000    4.7150 o         1 NIN     -0.193500
     11 C5         -0.0130    0.0020    2.4080 ca        1 NIN     -0.031000
     12 C6         -0.7000    0.0030    1.1970 ca        1 NIN     -0.147000
     13 H1         -0.5620    0.0030   -0.9730 ha        1 NIN      0.183000
     14 H2          3.2220   -0.0010    1.1970 ha        1 NIN      0.207000
     15 H3         -0.5630    0.0020    3.3670 ha        1 NIN      0.183000
     16 H4         -1.8020    0.0040    1.1970 ha        1 NIN      0.165000
@<TRIPOS>BOND
     1    1    2 ar  
     2    1   12 ar  
     3    1   13 1   
     4    2    3 1   
     5    2    6 ar  
     6    3    4 1   
     7    3    5 1   
     8    6    7 ar  
     9    6   14 1   
    10    7    8 1   
    11    7   11 ar  
    12    8    9 1   
    13    8   10 1   
    14   11   12 ar  
    15   11   15 1   
    16   12   16 1   
@<TRIPOS>SUBSTRUCTURE
     1 NIN         1 TEMP              0 ****  ****    0 ROOT
