@<TRIPOS>MOLECULE
NIO
   13    10     1     0     0
SMALL
bcc


@<TRIPOS>ATOM
      1 N          -1.2890   -0.0130   -1.4040 n1        1 NIO     -0.507800
      2 C1          0.0440    0.0010   -1.3760 c1        1 NIO     -0.005500
      3 C2          0.7280    0.0240   -0.1310 cg        1 NIO     -0.114200
      4 C3          0.0140    0.0330    1.0480 c1        1 NIO     -0.090500
      5 C4         -1.3910    0.0190    1.0180 c1        1 NIO     -0.090500
      6 C5         -2.0390   -0.0030   -0.1770 c1        1 NIO      0.273300
      7 C6          2.2160   -0.0290   -0.1010 c         1 NIO      0.859800
      8 O1          2.7930   -1.1010   -0.1810 o         1 NIO     -0.829300
      9 O2          2.8800    1.0340   -0.0070 o         1 NIO     -0.829300
     10 H1          0.5070    0.1310   -2.1400 ha        1 NIO      0.116500
     11 H3          0.4510    0.0500    1.8400 ha        1 NIO      0.075000
     12 H4         -1.8770   -0.1340    1.8120 ha        1 NIO      0.075000
     13 H5         -3.0370   -0.0140   -0.2010 ha        1 NIO      0.065500
@<TRIPOS>BOND
     1    1    6 3   
     2    2    3 3   
     3    2   10 1   
     4    3    7 1   
     5    4    5 3   
     6    4   11 1   
     7    5   12 1   
     8    6   13 1   
     9    7    8 1   
    10    7    9 1   
@<TRIPOS>SUBSTRUCTURE
     1 NIO         1 TEMP              0 ****  ****    0 ROOT
