@<TRIPOS>MOLECULE
NIO
   13    13     1     0     0
SMALL
bcc


@<TRIPOS>ATOM
      1 N           1.2640    0.0010   -1.8650 nb        1 NIO     -0.708000
      2 C1          1.1730    0.0010   -0.5210 ca        1 NIO      0.402200
      3 C2         -0.0490    0.0000    0.1850 ca        1 NIO     -0.230900
      4 C3         -1.2320   -0.0000   -0.5580 ca        1 NIO     -0.082000
      5 C4         -1.1610   -0.0000   -1.9530 ca        1 NIO     -0.279300
      6 C5          0.1070    0.0010   -2.5580 ca        1 NIO      0.355200
      7 C6         -0.0690    0.0000    1.7040 c         1 NIO      0.911200
      8 O1         -1.1950   -0.0000    2.2770 o         1 NIO     -0.829300
      9 O2          1.0400    0.0010    2.3080 o         1 NIO     -0.829300
     10 H1          2.1210    0.0010    0.0510 h4        1 NIO      0.037100
     11 H3         -2.1950   -0.0010   -0.0240 ha        1 NIO      0.153000
     12 H4         -2.0680   -0.0000   -2.5670 ha        1 NIO      0.112000
     13 H5          0.2070    0.0010   -3.6550 h4        1 NIO     -0.013900
@<TRIPOS>BOND
     1    1    2 ar  
     2    1    6 ar  
     3    2    3 ar  
     4    2   10 1   
     5    3    4 ar  
     6    3    7 1   
     7    4    5 ar  
     8    4   11 1   
     9    5    6 ar  
    10    5   12 1   
    11    6   13 1   
    12    7    8 1   
    13    7    9 1   
@<TRIPOS>SUBSTRUCTURE
     1 NIO         1 TEMP              0 ****  ****    0 ROOT
