@<TRIPOS>MOLECULE
NIP
   40    40     1     0     0
SMALL
bcc


@<TRIPOS>ATOM
      1 C1         -0.4200    0.1480    0.6080 ca        1 NIP     -0.129300
      2 C2          0.7780   -0.3980    0.1460 ca        1 NIP     -0.008000
      3 C3          1.9200   -0.3840    0.9630 ca        1 NIP     -0.221200
      4 N3          3.1800   -0.9720    0.4450 no        1 NIP      0.326200
      5 O3A         3.1530   -1.5180   -0.6290 o         1 NIP     -0.199000
      6 O3B         4.1830   -0.8920    1.0960 o         1 NIP     -0.199000
      7 C4          1.8590    0.1850    2.2620 ca        1 NIP      0.228100
      8 O4          3.0060    0.1570    2.9970 oh        1 NIP     -0.443100
      9 C5          0.6430    0.7330    2.7170 ca        1 NIP     -0.087100
     10 I5          0.4500    1.5650    4.5500 i         1 NIP     -0.117900
     11 C6         -0.4760    0.7090    1.8900 ca        1 NIP     -0.022000
     12 C7         -1.6340    0.1170   -0.2470 c3        1 NIP     -0.111100
     13 C8         -1.7590    1.3250   -1.1670 c         1 NIP      0.652100
     14 O8         -2.0210    1.1710   -2.3770 o         1 NIP     -0.608100
     15 N9         -1.5540    2.5740   -0.6100 n         1 NIP     -0.546900
     16 C10        -1.8760    3.7840   -1.3170 c3        1 NIP      0.078000
     17 C11        -3.2090    4.4260   -0.9250 c3        1 NIP     -0.107400
     18 C12        -4.3980    3.6660   -1.4770 c3        1 NIP     -0.091400
     19 C13        -5.5930    3.6930   -0.5460 c3        1 NIP     -0.075400
     20 C14        -5.5650    2.6000    0.5060 c3        1 NIP     -0.126400
     21 C15        -4.5130    2.8290    1.5440 c         1 NIP      0.654100
     22 O15        -4.7760    3.8500    2.4030 oh        1 NIP     -0.599100
     23 O16        -3.4560    2.2120    1.7300 o         1 NIP     -0.599000
     24 H2          0.8350   -0.8430   -0.8650 ha        1 NIP      0.184000
     25 HO4         2.8390    0.5720    3.8620 ho        1 NIP      0.438000
     26 H6         -1.4370    1.1350    2.2410 ha        1 NIP      0.176000
     27 H71        -1.6320   -0.8010   -0.8950 hc        1 NIP      0.088700
     28 H72        -2.5580    0.0900    0.3960 hc        1 NIP      0.088700
     29 HN9        -4.0560    3.9310    3.0510 ho        1 NIP      0.446000
     30 H101       -1.8800    3.5670   -2.4240 h1        1 NIP      0.067200
     31 H102       -1.0510    4.5240   -1.1040 h1        1 NIP      0.067200
     32 H111       -3.2800    4.5000    0.1940 hc        1 NIP      0.044200
     33 H112       -3.2150    5.4750   -1.3210 hc        1 NIP      0.044200
     34 H121       -4.1120    2.6010   -1.6950 hc        1 NIP      0.058200
     35 H122       -4.6960    4.1220   -2.4580 hc        1 NIP      0.058200
     36 H131       -5.6700    4.6930   -0.0420 hc        1 NIP      0.057700
     37 H132       -6.5280    3.5500   -1.1530 hc        1 NIP      0.057700
     38 H141       -5.3720    1.6030    0.0280 hc        1 NIP      0.081700
     39 H142       -6.5610    2.5600    1.0250 hc        1 NIP      0.081700
     40 H92        -1.5710    2.6290    0.3860 hn        1 NIP      0.311500
@<TRIPOS>BOND
     1    1    2 ar  
     2    1   11 ar  
     3    1   12 1   
     4    2    3 ar  
     5    2   24 1   
     6    3    4 1   
     7    3    7 ar  
     8    4    5 1   
     9    4    6 1   
    10    7    8 1   
    11    7    9 ar  
    12    8   25 1   
    13    9   10 1   
    14    9   11 ar  
    15   11   26 1   
    16   12   13 1   
    17   12   27 1   
    18   12   28 1   
    19   13   14 2   
    20   13   15 1   
    21   15   16 1   
    22   15   40 1   
    23   16   17 1   
    24   16   30 1   
    25   16   31 1   
    26   17   18 1   
    27   17   32 1   
    28   17   33 1   
    29   18   19 1   
    30   18   34 1   
    31   18   35 1   
    32   19   20 1   
    33   19   36 1   
    34   19   37 1   
    35   20   21 1   
    36   20   38 1   
    37   20   39 1   
    38   21   22 1   
    39   21   23 2   
    40   22   29 1   
@<TRIPOS>SUBSTRUCTURE
     1 NIP         1 TEMP              0 ****  ****    0 ROOT
