@<TRIPOS>MOLECULE
NIP
   39    40     1     0     0
SMALL
bcc


@<TRIPOS>ATOM
      1 C1          6.2150    3.7460    5.7530 ca        1 NIP     -0.144000
      2 C2          7.4130    3.7200    6.4540 ca        1 NIP     -0.050000
      3 C3          7.8810    4.8840    7.1010 ca        1 NIP     -0.191000
      4 N3          9.1400    4.8060    7.8660 no        1 NIP      0.579000
      5 O3A         9.7070    3.7400    7.9490 o         1 NIP     -0.382500
      6 O3B         9.5890    5.7840    8.4010 o         1 NIP     -0.382500
      7 C4          7.1480    6.0900    6.9940 ca        1 NIP      0.182000
      8 O4          7.6550    7.1950    7.6150 oh        1 NIP     -0.225000
      9 C5          5.9380    6.1190    6.2730 ca        1 NIP     -0.479000
     10 I5          4.8240    7.8150    5.8190 i         1 NIP      0.321000
     11 C6          5.4800    4.9460    5.7040 ca        1 NIP     -0.044000
     12 C7          5.7190    2.5180    5.0740 c3        1 NIP     -0.133000
     13 C8          5.5380    2.7330    3.5750 c2        1 NIP      0.296000
     14 O8          6.4270    2.3980    2.7680 o         1 NIP     -0.366000
     15 N9          4.3120    3.2240    3.1400 n         1 NIP     -0.357000
     16 C10         4.1510    3.8180    1.8380 c3        1 NIP     -0.040000
     17 C11         4.2270    5.3460    1.7960 c3        1 NIP     -0.192000
     18 C12         3.0760    6.0150    2.5170 c3        1 NIP     -0.155000
     19 C13         3.2810    7.5150    2.6200 c3        1 NIP     -0.149000
     20 C14         2.3270    8.1400    3.6180 c3        1 NIP     -0.210000
     21 C15         2.8620    9.4480    4.1750 c2        1 NIP      0.336000
     22 O15         3.7240    9.4540    5.1570 os        1 NIP     -0.565000
     23 O16         2.4560   10.5460    3.7390 o         1 NIP     -0.458000
     24 H2          8.0100    2.7930    6.5110 ha        1 NIP      0.156000
     25 HO4         7.0620    7.9440    7.4210 ho        1 NIP      0.241000
     26 H6          4.5090    4.9600    5.1830 ha        1 NIP      0.127000
     27 H71         6.4550    1.6790    5.1990 hc        1 NIP      0.106500
     28 H72         4.7510    2.1950    5.5430 hc        1 NIP      0.106500
     29 HN9         3.7150    3.5980    3.8440 hn        1 NIP      0.208000
     30 H101        3.1420    3.4950    1.4480 h1        1 NIP      0.095500
     31 H102        4.9450    3.3990    1.1560 h1        1 NIP      0.095500
     32 H111        4.2230    5.6590    0.7190 hc        1 NIP      0.093000
     33 H112        5.1990    5.6880    2.2390 hc        1 NIP      0.093000
     34 H121        2.1150    5.7980    1.9820 hc        1 NIP      0.069000
     35 H122        2.9780    5.5930    3.5530 hc        1 NIP      0.069000
     36 H131        4.3380    7.7240    2.9360 hc        1 NIP      0.089000
     37 H132        3.1380    7.9870    1.6140 hc        1 NIP      0.089000
     38 H141        2.1410    7.4410    4.4740 hc        1 NIP      0.084500
     39 H142        1.3420    8.3430    3.1230 hc        1 NIP      0.084500
@<TRIPOS>BOND
     1    1    2 1   
     2    1   11 1   
     3    1   12 1   
     4    2    3 1   
     5    2   24 1   
     6    3    4 1   
     7    3    7 1   
     8    4    5 1   
     9    4    6 1   
    10    7    8 1   
    11    7    9 1   
    12    8   25 1   
    13    9   10 1   
    14    9   11 1   
    15   10   22 1   
    16   11   26 1   
    17   12   13 1   
    18   12   27 1   
    19   12   28 1   
    20   13   14 1   
    21   13   15 1   
    22   15   16 1   
    23   15   29 1   
    24   16   17 1   
    25   16   30 1   
    26   16   31 1   
    27   17   18 1   
    28   17   32 1   
    29   17   33 1   
    30   18   19 1   
    31   18   34 1   
    32   18   35 1   
    33   19   20 1   
    34   19   36 1   
    35   19   37 1   
    36   20   21 1   
    37   20   38 1   
    38   20   39 1   
    39   21   22 1   
    40   21   23 1   
@<TRIPOS>SUBSTRUCTURE
     1 NIP         1 TEMP              0 ****  ****    0 ROOT
