@<TRIPOS>MOLECULE
NIP
   39    40     1     0     0
SMALL
bcc


@<TRIPOS>ATOM
      1 C1         -0.1060    0.1700   -0.2800 ca        1 NIP     -0.144000
      2 C2          1.2020   -0.0850    0.1080 ca        1 NIP     -0.050000
      3 C3          1.6050    0.1540    1.4400 ca        1 NIP     -0.191000
      4 N3          2.9940   -0.1630    1.8220 no        1 NIP      0.579000
      5 O3A         3.7280   -0.6560    0.9960 o         1 NIP     -0.382500
      6 O3B         3.3840    0.0590    2.9370 o         1 NIP     -0.382500
      7 C4          0.6830    0.6980    2.3670 ca        1 NIP      0.182000
      8 O4          1.1280    0.9360    3.6350 oh        1 NIP     -0.225000
      9 C5         -0.6410    0.9670    1.9680 ca        1 NIP     -0.479000
     10 I5         -2.0830    1.9520    3.0980 i         1 NIP      0.321000
     11 C6         -1.0170    0.6640    0.6730 ca        1 NIP     -0.044000
     12 C7         -0.5330   -0.0850   -1.6830 c3        1 NIP     -0.133000
     13 C8         -1.0600    1.1790   -2.3540 c2        1 NIP      0.296000
     14 O8         -0.3220    1.8770   -3.0750 o         1 NIP     -0.366000
     15 N9         -2.4130    1.4660   -2.2100 n         1 NIP     -0.357000
     16 C10        -2.9400    2.7840   -2.4560 c3        1 NIP     -0.040000
     17 C11        -3.1200    3.6650   -1.2170 c3        1 NIP     -0.192000
     18 C12        -4.1830    3.1470   -0.2720 c3        1 NIP     -0.155000
     19 C13        -4.2030    3.9310    1.0260 c3        1 NIP     -0.149000
     20 C14        -5.0100    3.2200    2.0940 c3        1 NIP     -0.210000
     21 C15        -4.5850    3.6260    3.4950 c2        1 NIP      0.336000
     22 O15        -3.5460    3.0750    4.0640 os        1 NIP     -0.565000
     23 O16        -5.2440    4.4610    4.1500 o         1 NIP     -0.458000
     24 H2          1.9380   -0.4730   -0.6170 ha        1 NIP      0.156000
     25 HO4         0.3950    1.3390    4.1370 ho        1 NIP      0.241000
     26 H6         -2.0660    0.8290    0.3790 ha        1 NIP      0.127000
     27 H71        -1.3150   -0.8910   -1.6960 hc        1 NIP      0.106500
     28 H72         0.3370   -0.4440   -2.2970 hc        1 NIP      0.106500
     29 HN9        -2.8980    0.9490   -1.5100 hn        1 NIP      0.208000
     30 H101       -2.2530    3.3120   -3.1770 h1        1 NIP      0.095500
     31 H102       -3.9440    2.6520   -2.9540 h1        1 NIP      0.095500
     32 H111       -2.1430    3.7550   -0.6730 hc        1 NIP      0.093000
     33 H112       -3.4020    4.6920   -1.5670 hc        1 NIP      0.093000
     34 H121       -5.1880    3.2000   -0.7650 hc        1 NIP      0.069000
     35 H122       -3.9890    2.0660   -0.0370 hc        1 NIP      0.069000
     36 H131       -4.6300    4.9510    0.8460 hc        1 NIP      0.089000
     37 H132       -3.1500    4.0730    1.3900 hc        1 NIP      0.089000
     38 H141       -4.8960    2.1090    1.9980 hc        1 NIP      0.084500
     39 H142       -6.0970    3.4630    1.9700 hc        1 NIP      0.084500
@<TRIPOS>BOND
     1    1    2 1   
     2    1   11 1   
     3    1   12 1   
     4    2    3 1   
     5    2   24 1   
     6    3    4 1   
     7    3    7 1   
     8    4    5 1   
     9    4    6 1   
    10    7    8 1   
    11    7    9 1   
    12    8   25 1   
    13    9   10 1   
    14    9   11 1   
    15   10   22 1   
    16   11   26 1   
    17   12   13 1   
    18   12   27 1   
    19   12   28 1   
    20   13   14 1   
    21   13   15 1   
    22   15   16 1   
    23   15   29 1   
    24   16   17 1   
    25   16   30 1   
    26   16   31 1   
    27   17   18 1   
    28   17   32 1   
    29   17   33 1   
    30   18   19 1   
    31   18   34 1   
    32   18   35 1   
    33   19   20 1   
    34   19   36 1   
    35   19   37 1   
    36   20   21 1   
    37   20   38 1   
    38   20   39 1   
    39   21   22 1   
    40   21   23 1   
@<TRIPOS>SUBSTRUCTURE
     1 NIP         1 TEMP              0 ****  ****    0 ROOT
