@<TRIPOS>MOLECULE
NIP
   39    36     1     0     0
SMALL
bcc


@<TRIPOS>ATOM
      1 C1         -0.3660   -3.3090    0.7050 c1        1 NIP     -0.118000
      2 C2         -1.6950   -3.4720    1.0960 c1        1 NIP     -0.020000
      3 C3         -2.5030   -4.4040    0.4480 c1        1 NIP     -0.179000
      4 N3         -3.9080   -4.5210    0.8060 no        1 NIP      0.581000
      5 O3A        -4.3730   -3.9390    1.9530 o         1 NIP     -0.355000
      6 O3B        -4.6830   -5.1410    0.0710 o         1 NIP     -0.355000
      7 C4         -1.9830   -5.1720   -0.5890 c1        1 NIP      0.180000
      8 O4         -2.7900   -6.1540   -1.2200 o         1 NIP     -0.201000
      9 C5         -0.6510   -5.0080   -0.9790 c2        1 NIP     -0.371000
     10 I5          0.1910   -6.2960   -2.4210 i         1 NIP      0.170000
     11 C6          0.1540   -4.0750   -0.3300 c1        1 NIP     -0.006000
     12 C7          0.5250   -2.3230    1.4390 c3        1 NIP     -0.146000
     13 C8          0.7690   -1.1190    0.5760 c2        1 NIP      0.297000
     14 O8          0.4010   -1.1170   -0.5890 o         1 NIP     -0.388000
     15 N9          1.3290    0.0710    1.1530 n         1 NIP     -0.358000
     16 C10         1.8900    1.0870    0.3030 c3        1 NIP     -0.039000
     17 C11         1.2280    2.4630    0.6280 c3        1 NIP     -0.178000
     18 C12         1.3340    3.3930   -0.6060 c3        1 NIP     -0.156000
     19 C13         0.8110    4.7970   -0.2390 c3        1 NIP     -0.145000
     20 C14         0.7640    5.6700   -1.5110 c3        1 NIP     -0.225000
     21 C15         0.5760    7.0840   -1.1340 c2        1 NIP      0.328000
     22 O15         1.5420    7.8850   -1.1990 o         1 NIP     -0.585500
     23 O16        -0.5250    7.4700   -0.7010 o         1 NIP     -0.585500
     24 H2         -2.0650   -2.9270    1.8330 ha        1 NIP      0.175000
     25 HO4        -2.3970   -6.9510   -1.1530 ho        1 NIP      0.236000
     26 H6          1.1110   -3.9580   -0.6100 ha        1 NIP      0.193000
     27 H71         1.3820   -2.7520    1.6510 hc        1 NIP      0.116000
     28 H72         0.0820   -2.0410    2.2740 hc        1 NIP      0.116000
     29 HN9         1.2980    0.1950    2.0470 hn        1 NIP      0.222000
     30 H101        1.7220    0.8550   -0.6440 h1        1 NIP      0.100000
     31 H102        2.8960    1.1500    0.4660 h1        1 NIP      0.100000
     32 H111        1.6840    2.8730    1.3820 hc        1 NIP      0.082000
     33 H112        0.2630    2.3240    0.8570 hc        1 NIP      0.082000
     34 H121        0.7830    3.0150   -1.3600 hc        1 NIP      0.071000
     35 H122        2.2480    3.4560   -0.8800 hc        1 NIP      0.071000
     36 H131       -0.0890    4.7220    0.1380 hc        1 NIP      0.085500
     37 H132        1.4260    5.2200    0.4370 hc        1 NIP      0.085500
     38 H141        0.0050    5.3770   -2.0860 hc        1 NIP      0.059500
     39 H142        1.6140    5.5730   -2.0110 hc        1 NIP      0.059500
@<TRIPOS>BOND
     1    1    2 1   
     2    1   12 1   
     3    2   24 1   
     4    3    4 1   
     5    3    7 1   
     6    4    5 1   
     7    4    6 1   
     8    7    9 1   
     9    8   25 1   
    10    9   10 1   
    11    9   11 1   
    12   11   26 1   
    13   12   13 1   
    14   12   27 1   
    15   12   28 1   
    16   13   14 1   
    17   13   15 1   
    18   15   16 1   
    19   15   29 1   
    20   16   17 1   
    21   16   30 1   
    22   16   31 1   
    23   17   18 1   
    24   17   32 1   
    25   17   33 1   
    26   18   19 1   
    27   18   34 1   
    28   18   35 1   
    29   19   20 1   
    30   19   36 1   
    31   19   37 1   
    32   20   21 1   
    33   20   38 1   
    34   20   39 1   
    35   21   22 1   
    36   21   23 1   
@<TRIPOS>SUBSTRUCTURE
     1 NIP         1 TEMP              0 ****  ****    0 ROOT
