@<TRIPOS>MOLECULE
NIP
   40    40     1     0     0
SMALL
bcc


@<TRIPOS>ATOM
      1 C1         -0.3570    0.1630    0.6500 ca        1 NIP     -0.131300
      2 C2          0.8680   -0.3310    0.2010 ca        1 NIP     -0.009000
      3 C3          1.9940   -0.2900    1.0370 ca        1 NIP     -0.222200
      4 N3          3.2830   -0.8230    0.5310 no        1 NIP      0.326200
      5 O3A         3.2970   -1.3440   -0.5550 o         1 NIP     -0.199500
      6 O3B         4.2700   -0.7250    1.2040 o         1 NIP     -0.199500
      7 C4          1.8910    0.2540    2.3440 ca        1 NIP      0.228100
      8 O4          3.0250    0.2550    3.0990 oh        1 NIP     -0.444100
      9 C5          0.6480    0.7490    2.7870 ca        1 NIP     -0.087100
     10 I5          0.3940    1.5390    4.6320 i         1 NIP     -0.113900
     11 C6         -0.4560    0.6990    1.9400 ca        1 NIP     -0.020000
     12 C7         -1.5540    0.1020   -0.2270 c3        1 NIP     -0.111100
     13 C8         -1.7100    1.3170   -1.1310 c         1 NIP      0.654100
     14 O8         -1.9690    1.1750   -2.3430 o         1 NIP     -0.612100
     15 N9         -1.5410    2.5640   -0.5580 ns        1 NIP     -0.549900
     16 C10        -1.8620    3.7760   -1.2610 c3        1 NIP      0.082000
     17 C11        -3.2130    4.3980   -0.8940 c3        1 NIP     -0.111400
     18 C12        -4.3780    3.6300   -1.4840 c3        1 NIP     -0.092400
     19 C13        -5.5980    3.6310   -0.5840 c3        1 NIP     -0.076400
     20 C14        -5.5890    2.5150    0.4420 c3        1 NIP     -0.179400
     21 C15        -4.5030    2.6720    1.4620 c         1 NIP      0.644100
     22 O15        -4.5340    3.7270    2.3290 oh        1 NIP     -0.579100
     23 O16        -3.5350    1.9270    1.6390 o         1 NIP     -0.535000
     24 H2          0.9580   -0.7560   -0.8160 ha        1 NIP      0.183000
     25 HO4         2.8270    0.6500    3.9670 ho        1 NIP      0.438000
     26 H6         -1.4380    1.0850    2.2810 ha        1 NIP      0.180000
     27 H71        -1.5070   -0.8060   -0.8880 hc        1 NIP      0.090700
     28 H72        -2.4870    0.0310    0.4000 hc        1 NIP      0.090700
     29 HN9        -1.5550    2.6110    0.4380 hn        1 NIP      0.314500
     30 H101       -1.0540    4.5260   -1.0210 h1        1 NIP      0.067200
     31 H102       -1.8380    3.5710   -2.3690 h1        1 NIP      0.067200
     32 H111       -3.2220    5.4500   -1.2800 hc        1 NIP      0.045700
     33 H112       -3.3100    4.4590    0.2240 hc        1 NIP      0.045700
     34 H121       -4.0740    2.5700   -1.7050 hc        1 NIP      0.061700
     35 H122       -4.6570    4.0920   -2.4690 hc        1 NIP      0.061700
     36 H131       -5.6900    4.6230   -0.0670 hc        1 NIP      0.049200
     37 H132       -6.5170    3.5010   -1.2170 hc        1 NIP      0.049200
     38 H141       -6.5760    2.4880    0.9790 hc        1 NIP      0.082700
     39 H142       -5.4510    1.5260   -0.0730 hc        1 NIP      0.082700
     40 H92        -5.3010    4.2850    2.1400 ho        1 NIP      0.431000
@<TRIPOS>BOND
     1    1    2 ar  
     2    1   11 ar  
     3    1   12 1   
     4    2    3 ar  
     5    2   24 1   
     6    3    4 1   
     7    3    7 ar  
     8    4    5 1   
     9    4    6 1   
    10    7    8 1   
    11    7    9 ar  
    12    8   25 1   
    13    9   10 1   
    14    9   11 ar  
    15   11   26 1   
    16   12   13 1   
    17   12   27 1   
    18   12   28 1   
    19   13   14 2   
    20   13   15 1   
    21   15   16 1   
    22   15   29 1   
    23   16   17 1   
    24   16   30 1   
    25   16   31 1   
    26   17   18 1   
    27   17   32 1   
    28   17   33 1   
    29   18   19 1   
    30   18   34 1   
    31   18   35 1   
    32   19   20 1   
    33   19   36 1   
    34   19   37 1   
    35   20   21 1   
    36   20   38 1   
    37   20   39 1   
    38   21   22 1   
    39   21   23 2   
    40   22   40 1   
@<TRIPOS>SUBSTRUCTURE
     1 NIP         1 TEMP              0 ****  ****    0 ROOT
