@<TRIPOS>MOLECULE
NIQ
   43    44     1     0     0
SMALL
bcc


@<TRIPOS>ATOM
      1 NAM         0.3830   -0.5630    1.1710 n4        1 NIQ     -0.636800
      2 CAL        -0.6520   -1.5780    1.1030 cc        1 NIQ     -0.246200
      3 CAH        -1.8950   -1.4610    0.4850 cd        1 NIQ      0.253600
      4 NAI        -2.2570   -0.1930   -0.2090 n4        1 NIQ     -0.767400
      5 CAK        -0.2960   -2.8710    1.7900 c         1 NIQ      0.736700
      6 OAQ         0.7950   -3.0020    2.3580 o         1 NIQ     -0.533500
      7 NAJ        -1.2400   -3.8820    1.7470 n         1 NIQ     -0.541500
      8 CAF        -2.4880   -3.7540    1.1340 c         1 NIQ      0.818500
      9 OAE        -3.3170   -4.6640    1.0920 o         1 NIQ     -0.470500
     10 NAG        -2.8250   -2.4700    0.5220 n         1 NIQ     -0.343000
     11 CAD        -4.1510   -2.3580   -0.0930 c3        1 NIQ      0.031000
     12 CAC        -4.1790   -2.5360   -1.6090 c3        1 NIQ     -0.107400
     13 CAB        -5.5750   -2.2340   -2.1240 c3        1 NIQ     -0.083400
     14 CAA        -5.6440   -2.4080   -3.6190 c3        1 NIQ     -0.103100
     15 CAO         0.9020    1.2310   -0.5430 c3        1 NIQ     -0.110900
     16 CAP         2.1630    1.9470   -0.0680 c3        1 NIQ     -0.095900
     17 CAS         3.2020    0.8800    0.2460 c3        1 NIQ     -0.095900
     18 CAR         2.5840   -0.4710   -0.0790 c3        1 NIQ     -0.110900
     19 CAN         1.0590   -0.2510   -0.1580 c3        1 NIQ      0.106500
     20 HAN         0.6090   -0.9430   -0.9240 hx        1 NIQ      0.096700
     21 HAI1       -2.9690   -0.3610   -0.9490 hn        1 NIQ      0.496800
     22 HAI2       -2.6530    0.4710    0.4750 hn        1 NIQ      0.496800
     23 HAJ        -1.0330   -4.7680    2.1880 hn        1 NIQ      0.419500
     24 HAD1       -4.8040   -3.1690    0.3640 h1        1 NIQ      0.112700
     25 HAD2       -4.6110   -1.3740    0.2140 h1        1 NIQ      0.112700
     26 HAC1       -3.9090   -3.5950   -1.8720 hc        1 NIQ      0.055700
     27 HAC2       -3.4350   -1.8740   -2.1260 hc        1 NIQ      0.055700
     28 HAB1       -6.3120   -2.9240   -1.6320 hc        1 NIQ      0.059200
     29 HAB2       -5.8640   -1.1850   -1.8490 hc        1 NIQ      0.059200
     30 HAA1       -4.9360   -1.7180   -4.1380 hc        1 NIQ      0.058033
     31 HAA2       -6.6800   -2.1840   -3.9780 hc        1 NIQ      0.058033
     32 HAA3       -5.3950   -3.4580   -3.9100 hc        1 NIQ      0.058033
     33 HAO1       -0.0140    1.7140   -0.1190 hc        1 NIQ      0.085450
     34 HAO2        0.8350    1.2870   -1.6630 hc        1 NIQ      0.085450
     35 HAP1        1.9480    2.5710    0.8370 hc        1 NIQ      0.089950
     36 HAP2        2.5340    2.6440   -0.8640 hc        1 NIQ      0.089950
     37 HAS1        4.1330    1.0350   -0.3610 hc        1 NIQ      0.089950
     38 HAS2        3.5090    0.9300    1.3230 hc        1 NIQ      0.089950
     39 HAR1        2.8850   -1.2600    0.6570 hc        1 NIQ      0.085450
     40 HAR2        2.9220   -0.8260   -1.0900 hc        1 NIQ      0.085450
     41 HNAM        0.0130    0.2960    1.5950 hn        1 NIQ      0.481300
     42 HAM2        1.1200   -0.9300    1.8210 hn        1 NIQ      0.481300
     43 HAI3       -1.4260    0.2200   -0.6580 hn        1 NIQ      0.496800
@<TRIPOS>BOND
     1    1    2 1   
     2    1   19 1   
     3    1   41 1   
     4    1   42 1   
     5    2    3 2   
     6    2    5 1   
     7    3    4 1   
     8    3   10 1   
     9    4   21 1   
    10    4   22 1   
    11    4   43 1   
    12    5    6 2   
    13    5    7 1   
    14    7    8 1   
    15    7   23 1   
    16    8    9 2   
    17    8   10 1   
    18   10   11 1   
    19   11   12 1   
    20   11   24 1   
    21   11   25 1   
    22   12   13 1   
    23   12   26 1   
    24   12   27 1   
    25   13   14 1   
    26   13   28 1   
    27   13   29 1   
    28   14   30 1   
    29   14   31 1   
    30   14   32 1   
    31   15   16 1   
    32   15   19 1   
    33   15   33 1   
    34   15   34 1   
    35   16   17 1   
    36   16   35 1   
    37   16   36 1   
    38   17   18 1   
    39   17   37 1   
    40   17   38 1   
    41   18   19 1   
    42   18   39 1   
    43   18   40 1   
    44   19   20 1   
@<TRIPOS>SUBSTRUCTURE
     1 NIQ         1 TEMP              0 ****  ****    0 ROOT
