@<TRIPOS>MOLECULE
NIQ
   43    44     1     0     0
SMALL
bcc


@<TRIPOS>ATOM
      1 NAM         0.6800   -0.4030   -0.7720 ny        1 NIQ     -0.635800
      2 CAL        -0.0970   -1.6210   -0.9060 cc        1 NIQ     -0.250200
      3 CAH        -1.4210   -1.8080   -0.5170 cd        1 NIQ      0.254600
      4 NAI        -2.1650   -0.6660    0.0860 nz        1 NIQ     -0.764400
      5 CAK         0.6480   -2.7650   -1.5400 c         1 NIQ      0.737700
      6 OAQ         1.8230   -2.6280   -1.9070 o         1 NIQ     -0.533500
      7 NAJ        -0.0450   -3.9530   -1.6930 ns        1 NIQ     -0.541500
      8 CAF        -1.3720   -4.1350   -1.2960 c         1 NIQ      0.818500
      9 OAE        -1.9780   -5.1970   -1.4440 o         1 NIQ     -0.470500
     10 NAG        -2.0660   -3.0110   -0.6680 n         1 NIQ     -0.340000
     11 CAD        -3.4620   -3.2260   -0.2810 c3        1 NIQ      0.027000
     12 CAC        -4.4980   -2.5530   -1.1790 c3        1 NIQ     -0.105400
     13 CAB        -5.8840   -2.7880   -0.6040 c3        1 NIQ     -0.083400
     14 CAA        -6.9370   -2.1300   -1.4600 c3        1 NIQ     -0.103100
     15 CAO         2.5320    0.1480    0.8660 c3        1 NIQ     -0.110400
     16 CAP         2.8410    1.6250    0.6840 c3        1 NIQ     -0.095900
     17 CAS         1.5300    2.3870    0.8170 c3        1 NIQ     -0.095900
     18 CAR         0.4230    1.3600    1.0330 c3        1 NIQ     -0.110400
     19 CAN         1.0110   -0.0150    0.6630 c3        1 NIQ      0.106500
     20 HAN         0.6220   -0.8400    1.3230 hx        1 NIQ      0.097700
     21 HAI1       -1.5870   -0.2140    0.8120 hn        1 NIQ      0.496133
     22 HAI2       -3.0560   -0.9720    0.5220 hn        1 NIQ      0.496133
     23 HAJ         0.4190   -4.7440   -2.1200 hn        1 NIQ      0.420500
     24 HAD1       -3.6560   -4.3470   -0.3120 h1        1 NIQ      0.116700
     25 HAD2       -3.5910   -2.9200    0.7980 h1        1 NIQ      0.116700
     26 HAC1       -4.4500   -2.9880   -2.2140 hc        1 NIQ      0.050700
     27 HAC2       -4.3140   -1.4510   -1.2740 hc        1 NIQ      0.050700
     28 HAB1       -6.0840   -3.8920   -0.5480 hc        1 NIQ      0.060700
     29 HAB2       -5.9370   -2.3850    0.4410 hc        1 NIQ      0.060700
     30 HAA1       -7.9500   -2.3180   -1.0230 hc        1 NIQ      0.057700
     31 HAA2       -6.9230   -2.5430   -2.4970 hc        1 NIQ      0.057700
     32 HAA3       -6.7780   -1.0260   -1.5140 hc        1 NIQ      0.057700
     33 HAO1        2.7640   -0.1760    1.9170 hc        1 NIQ      0.084200
     34 HAO2        3.1470   -0.4980    0.1880 hc        1 NIQ      0.084200
     35 HAP1        3.3090    1.8150   -0.3160 hc        1 NIQ      0.090200
     36 HAP2        3.5820    1.9640    1.4550 hc        1 NIQ      0.090200
     37 HAS1        1.3310    2.9990   -0.1000 hc        1 NIQ      0.090200
     38 HAS2        1.5680    3.1000    1.6820 hc        1 NIQ      0.090200
     39 HAR1        0.1420    1.3290    2.1200 hc        1 NIQ      0.084200
     40 HAR2       -0.4910    1.6310    0.4480 hc        1 NIQ      0.084200
     41 HNAM        0.2150    0.3740   -1.2550 hn        1 NIQ      0.480800
     42 HAM2        1.5890   -0.5710   -1.2700 hn        1 NIQ      0.480800
     43 HAI3       -2.3970    0.0140   -0.6550 hn        1 NIQ      0.496133
@<TRIPOS>BOND
     1    1    2 1   
     2    1   19 1   
     3    1   41 1   
     4    1   42 1   
     5    2    3 2   
     6    2    5 1   
     7    3    4 1   
     8    3   10 1   
     9    4   21 1   
    10    4   22 1   
    11    4   43 1   
    12    5    6 2   
    13    5    7 1   
    14    7    8 1   
    15    7   23 1   
    16    8    9 2   
    17    8   10 1   
    18   10   11 1   
    19   11   12 1   
    20   11   24 1   
    21   11   25 1   
    22   12   13 1   
    23   12   26 1   
    24   12   27 1   
    25   13   14 1   
    26   13   28 1   
    27   13   29 1   
    28   14   30 1   
    29   14   31 1   
    30   14   32 1   
    31   15   16 1   
    32   15   19 1   
    33   15   33 1   
    34   15   34 1   
    35   16   17 1   
    36   16   35 1   
    37   16   36 1   
    38   17   18 1   
    39   17   37 1   
    40   17   38 1   
    41   18   19 1   
    42   18   39 1   
    43   18   40 1   
    44   19   20 1   
@<TRIPOS>SUBSTRUCTURE
     1 NIQ         1 TEMP              0 ****  ****    0 ROOT
