@<TRIPOS>MOLECULE
NIQ
   41    41     1     0     0
SMALL
bcc


@<TRIPOS>ATOM
      1 NAM         1.7790    0.1550    0.3640 n3        1 NIQ     -0.230000
      2 CAL         0.9120   -0.9610    0.0960 c2        1 NIQ     -0.261000
      3 CAH        -0.0100   -0.6260   -0.7650 c1        1 NIQ      0.237000
      4 NAI         0.3250   -0.4650   -2.1430 n2        1 NIQ     -0.338000
      5 CAK         0.3280   -1.6370    1.3790 c2        1 NIQ      0.351000
      6 OAQ        -0.2910   -2.6520    1.1560 o         1 NIQ     -0.362000
      7 NAJ        -0.3730   -0.8410    2.1300 n         1 NIQ     -0.358000
      8 CAF        -1.2080    0.1450    1.3900 c2        1 NIQ      0.405000
      9 OAE        -2.1610    0.6540    1.9280 o         1 NIQ     -0.370000
     10 NAG        -1.1180    0.1030   -0.2020 n         1 NIQ     -0.280000
     11 CAD        -2.2990    0.3620   -1.0040 c3        1 NIQ     -0.028000
     12 CAC        -3.3760   -0.6590   -0.6680 c3        1 NIQ     -0.186000
     13 CAB        -4.6310   -0.3530   -1.4690 c3        1 NIQ     -0.157000
     14 CAA        -5.7050   -1.3490   -1.1170 c3        1 NIQ     -0.211000
     15 CAO         3.8540    1.3480   -0.4400 c3        1 NIQ     -0.175500
     16 CAP         4.0040    2.2380    0.5630 c3        1 NIQ     -0.159000
     17 CAS         4.1680    1.3590    1.8740 c3        1 NIQ     -0.159000
     18 CAR         3.7710   -0.1210    1.4500 c3        1 NIQ     -0.175500
     19 CAN         3.2040    0.0040    0.2330 c3        1 NIQ     -0.029000
     20 HAN         3.4100   -0.7830   -0.3170 h1        1 NIQ      0.096000
     21 HAI1        0.6710   -1.1690   -2.6160 hn        1 NIQ      0.221500
     22 HAI2        0.1910    0.3420   -2.5550 hn        1 NIQ      0.221500
     23 HAJ        -0.7170   -1.1810    2.9000 hn        1 NIQ      0.269000
     24 HAD1       -2.0700    0.2950   -1.9530 h1        1 NIQ      0.111000
     25 HAD2       -2.6310    1.2600   -0.8130 h1        1 NIQ      0.111000
     26 HAC1       -3.5800   -0.6160    0.2850 hc        1 NIQ      0.098000
     27 HAC2       -3.0570   -1.5560   -0.8930 hc        1 NIQ      0.098000
     28 HAB1       -4.4310   -0.4130   -2.4270 hc        1 NIQ      0.080500
     29 HAB2       -4.9410    0.5520   -1.2560 hc        1 NIQ      0.080500
     30 HAA1       -5.3930   -2.2520   -1.3240 hc        1 NIQ      0.076667
     31 HAA2       -5.9080   -1.2850   -0.1620 hc        1 NIQ      0.076667
     32 HAA3       -6.5140   -1.1550   -1.6360 hc        1 NIQ      0.076667
     33 HAO1        3.2510    1.7090   -1.1230 hc        1 NIQ      0.090750
     34 HAO2        4.7280    1.1370   -0.8380 hc        1 NIQ      0.090750
     35 HAP1        3.2130    2.8060    0.6330 hc        1 NIQ      0.080750
     36 HAP2        4.8060    2.7840    0.4170 hc        1 NIQ      0.080750
     37 HAS1        3.5680    1.6830    2.5760 hc        1 NIQ      0.080750
     38 HAS2        5.1000    1.3840    2.1850 hc        1 NIQ      0.080750
     39 HAR1        4.5690   -0.6850    1.3970 hc        1 NIQ      0.090750
     40 HAR2        3.1310   -0.4950    2.0850 hc        1 NIQ      0.090750
     41 HNAM        1.4320    0.9330    0.6850 hn        1 NIQ      0.184000
@<TRIPOS>BOND
     1    1    2 1   
     2    1   19 1   
     3    1   41 1   
     4    2    3 1   
     5    2    5 1   
     6    3   10 1   
     7    4   21 1   
     8    4   22 1   
     9    5    6 1   
    10    5    7 1   
    11    7    8 1   
    12    7   23 1   
    13    8    9 1   
    14    8   10 1   
    15   10   11 1   
    16   11   12 1   
    17   11   24 1   
    18   11   25 1   
    19   12   13 1   
    20   12   26 1   
    21   12   27 1   
    22   13   14 1   
    23   13   28 1   
    24   13   29 1   
    25   14   30 1   
    26   14   31 1   
    27   14   32 1   
    28   15   16 1   
    29   15   19 1   
    30   15   33 1   
    31   15   34 1   
    32   16   17 1   
    33   16   35 1   
    34   16   36 1   
    35   17   18 1   
    36   17   37 1   
    37   17   38 1   
    38   18   19 1   
    39   18   39 1   
    40   18   40 1   
    41   19   20 1   
@<TRIPOS>SUBSTRUCTURE
     1 NIQ         1 TEMP              0 ****  ****    0 ROOT
