@<TRIPOS>MOLECULE
NIQ
   43    44     1     0     0
SMALL
bcc


@<TRIPOS>ATOM
      1 NAM         0.3780   -0.5440    1.1690 n4        1 NIQ     -0.636800
      2 CAL        -0.6440   -1.5720    1.1000 cc        1 NIQ     -0.246200
      3 CAH        -1.8890   -1.4700    0.4850 cd        1 NIQ      0.253600
      4 NAI        -2.2690   -0.2050   -0.2050 n4        1 NIQ     -0.767400
      5 CAK        -0.2690   -2.8620    1.7820 c         1 NIQ      0.736700
      6 OAQ         0.8260   -2.9810    2.3480 o         1 NIQ     -0.533500
      7 NAJ        -1.1980   -3.8860    1.7380 n         1 NIQ     -0.541500
      8 CAF        -2.4500   -3.7730    1.1280 c         1 NIQ      0.818500
      9 OAE        -3.2660   -4.6940    1.0850 o         1 NIQ     -0.470500
     10 NAG        -2.8060   -2.4920    0.5210 n         1 NIQ     -0.343000
     11 CAD        -4.1340   -2.3960   -0.0910 c3        1 NIQ      0.031000
     12 CAC        -4.1630   -2.5700   -1.6070 c3        1 NIQ     -0.107400
     13 CAB        -5.5650   -2.2880   -2.1170 c3        1 NIQ     -0.083400
     14 CAA        -5.6360   -2.4590   -3.6130 c3        1 NIQ     -0.103100
     15 CAO         0.8700    1.2620   -0.5400 c3        1 NIQ     -0.110900
     16 CAP         2.1220    1.9930   -0.0660 c3        1 NIQ     -0.095900
     17 CAS         3.1760    0.9390    0.2430 c3        1 NIQ     -0.095900
     18 CAR         2.5750   -0.4190   -0.0850 c3        1 NIQ     -0.110900
     19 CAN         1.0470   -0.2190   -0.1610 c3        1 NIQ      0.106500
     20 HAN         0.6050   -0.9150   -0.9280 hx        1 NIQ      0.096700
     21 HAI1       -2.6730    0.4510    0.4820 hn        1 NIQ      0.496800
     22 HAI2       -2.9800   -0.3800   -0.9440 hn        1 NIQ      0.496800
     23 HAJ        -0.9790   -4.7710    2.1760 hn        1 NIQ      0.419500
     24 HAD1       -4.6060   -1.4190    0.2200 h1        1 NIQ      0.112700
     25 HAD2       -4.7750   -3.2170    0.3650 h1        1 NIQ      0.112700
     26 HAC1       -3.8780   -3.6250   -1.8740 hc        1 NIQ      0.055700
     27 HAC2       -3.4310   -1.8950   -2.1240 hc        1 NIQ      0.055700
     28 HAB1       -6.2900   -2.9910   -1.6260 hc        1 NIQ      0.059200
     29 HAB2       -5.8700   -1.2450   -1.8390 hc        1 NIQ      0.059200
     30 HAA1       -5.3700   -3.5030   -3.9080 hc        1 NIQ      0.058033
     31 HAA2       -4.9400   -1.7560   -4.1310 hc        1 NIQ      0.058033
     32 HAA3       -6.6760   -2.2500   -3.9690 hc        1 NIQ      0.058033
     33 HAO1       -0.0520    1.7320   -0.1130 hc        1 NIQ      0.085450
     34 HAO2        0.7990    1.3210   -1.6600 hc        1 NIQ      0.085450
     35 HAP1        2.4820    2.6980   -0.8610 hc        1 NIQ      0.089950
     36 HAP2        1.9010    2.6110    0.8410 hc        1 NIQ      0.089950
     37 HAS1        3.4850    0.9900    1.3190 hc        1 NIQ      0.089950
     38 HAS2        4.1030    1.1090   -0.3660 hc        1 NIQ      0.089950
     39 HAR1        2.8890   -1.2060    0.6480 hc        1 NIQ      0.085450
     40 HAR2        2.9160   -0.7660   -1.0980 hc        1 NIQ      0.085450
     41 HNAM       -0.0020    0.3090    1.5970 hn        1 NIQ      0.481300
     42 HAM2        1.1220   -0.9030    1.8170 hn        1 NIQ      0.481300
     43 HAI3       -1.4450    0.2200   -0.6540 hn        1 NIQ      0.496800
@<TRIPOS>BOND
     1    1    2 1   
     2    1   19 1   
     3    1   41 1   
     4    1   42 1   
     5    2    3 2   
     6    2    5 1   
     7    3    4 1   
     8    3   10 1   
     9    4   21 1   
    10    4   22 1   
    11    4   43 1   
    12    5    6 2   
    13    5    7 1   
    14    7    8 1   
    15    7   23 1   
    16    8    9 2   
    17    8   10 1   
    18   10   11 1   
    19   11   12 1   
    20   11   24 1   
    21   11   25 1   
    22   12   13 1   
    23   12   26 1   
    24   12   27 1   
    25   13   14 1   
    26   13   28 1   
    27   13   29 1   
    28   14   30 1   
    29   14   31 1   
    30   14   32 1   
    31   15   16 1   
    32   15   19 1   
    33   15   33 1   
    34   15   34 1   
    35   16   17 1   
    36   16   35 1   
    37   16   36 1   
    38   17   18 1   
    39   17   37 1   
    40   17   38 1   
    41   18   19 1   
    42   18   39 1   
    43   18   40 1   
    44   19   20 1   
@<TRIPOS>SUBSTRUCTURE
     1 NIQ         1 TEMP              0 ****  ****    0 ROOT
