@<TRIPOS>MOLECULE
NIQ
   41    42     1     0     0
SMALL
bcc


@<TRIPOS>ATOM
      1 NAM         1.8630   -0.4060   -1.4110 nh        1 NIQ     -0.672000
      2 CAL         0.7150    0.3950   -1.1650 cc        1 NIQ     -0.211200
      3 CAH        -0.5630   -0.1850   -1.0980 cd        1 NIQ      0.341600
      4 NAI        -0.7500   -1.5410   -1.3400 nh        1 NIQ     -0.846600
      5 CAK         0.8670    1.8550   -1.0820 c         1 NIQ      0.713700
      6 OAQ         1.9460    2.4630   -1.2190 o         1 NIQ     -0.639500
      7 NAJ        -0.2910    2.6070   -0.8340 n         1 NIQ     -0.578500
      8 CAF        -1.5510    2.0290   -0.6800 c         1 NIQ      0.816500
      9 OAE        -2.5460    2.7410   -0.4200 o         1 NIQ     -0.646500
     10 NAG        -1.6890    0.6240   -0.8290 n         1 NIQ     -0.389000
     11 CAD        -3.0230    0.0650   -0.7060 c3        1 NIQ      0.083000
     12 CAC        -3.3170   -0.5920    0.6440 c3        1 NIQ     -0.102400
     13 CAB        -4.7110   -1.1840    0.6290 c3        1 NIQ     -0.080400
     14 CAA        -5.0430   -1.8300    1.9500 c3        1 NIQ     -0.094100
     15 CAO         3.6570   -1.8990   -0.5490 c3        1 NIQ     -0.094900
     16 CAP         4.6680   -1.8050    0.5820 c3        1 NIQ     -0.078400
     17 CAS         4.4770   -0.4500    1.2500 c3        1 NIQ     -0.078400
     18 CAR         3.2030    0.1670    0.6960 c3        1 NIQ     -0.094900
     19 CAN         2.5370   -0.8910   -0.2100 c3        1 NIQ      0.170500
     20 HAN         1.7540   -1.4290    0.4010 h1        1 NIQ      0.041700
     21 HAI1        0.0740   -2.0760   -1.4940 hn        1 NIQ      0.435800
     22 HAI2       -1.5010   -2.0090   -0.8890 hn        1 NIQ      0.435800
     23 HAJ        -0.2320    3.6000   -0.7550 hn        1 NIQ      0.354500
     24 HAD1       -3.7670    0.9050   -0.8560 h1        1 NIQ      0.079200
     25 HAD2       -3.1920   -0.6760   -1.5380 h1        1 NIQ      0.079200
     26 HAC1       -2.5710   -1.3950    0.8760 hc        1 NIQ      0.049700
     27 HAC2       -3.2420    0.1750    1.4600 hc        1 NIQ      0.049700
     28 HAB1       -5.4580   -0.3760    0.4070 hc        1 NIQ      0.043700
     29 HAB2       -4.7900   -1.9440   -0.1930 hc        1 NIQ      0.043700
     30 HAA1       -6.0740   -2.2590    1.9210 hc        1 NIQ      0.037367
     31 HAA2       -4.3250   -2.6550    2.1790 hc        1 NIQ      0.037367
     32 HAA3       -4.9950   -1.0830    2.7780 hc        1 NIQ      0.037367
     33 HAO1        4.1460   -1.6470   -1.5240 hc        1 NIQ      0.051200
     34 HAO2        3.2370   -2.9300   -0.6390 hc        1 NIQ      0.051200
     35 HAP1        4.4990   -2.6280    1.3220 hc        1 NIQ      0.041200
     36 HAP2        5.7090   -1.9170    0.1920 hc        1 NIQ      0.041200
     37 HAS1        4.4100   -0.5680    2.3610 hc        1 NIQ      0.041200
     38 HAS2        5.3530    0.2150    1.0420 hc        1 NIQ      0.041200
     39 HAR1        2.5070    0.4560    1.5210 hc        1 NIQ      0.051200
     40 HAR2        3.4360    1.0980    0.1160 hc        1 NIQ      0.051200
     41 HNAM        2.5080    0.1100   -1.9880 hn        1 NIQ      0.387800
@<TRIPOS>BOND
     1    1    2 1   
     2    1   19 1   
     3    1   41 1   
     4    2    3 2   
     5    2    5 1   
     6    3    4 1   
     7    3   10 1   
     8    4   21 1   
     9    4   22 1   
    10    5    6 2   
    11    5    7 1   
    12    7    8 1   
    13    7   23 1   
    14    8    9 2   
    15    8   10 1   
    16   10   11 1   
    17   11   12 1   
    18   11   24 1   
    19   11   25 1   
    20   12   13 1   
    21   12   26 1   
    22   12   27 1   
    23   13   14 1   
    24   13   28 1   
    25   13   29 1   
    26   14   30 1   
    27   14   31 1   
    28   14   32 1   
    29   15   16 1   
    30   15   19 1   
    31   15   33 1   
    32   15   34 1   
    33   16   17 1   
    34   16   35 1   
    35   16   36 1   
    36   17   18 1   
    37   17   37 1   
    38   17   38 1   
    39   18   19 1   
    40   18   39 1   
    41   18   40 1   
    42   19   20 1   
@<TRIPOS>SUBSTRUCTURE
     1 NIQ         1 TEMP              0 ****  ****    0 ROOT
