@<TRIPOS>MOLECULE
NIR
   36    37     1     0     0
SMALL
bcc


@<TRIPOS>ATOM
      1 N1          0.8010    0.0780    0.1920 n4        1 NIR     -0.767400
      2 C4          3.6940   -0.0980   -1.2330 c3        1 NIR      0.196800
      3 C5          2.3010   -0.4460   -1.8140 c3        1 NIR     -0.094500
      4 C6          1.4340   -0.9780   -0.7040 c         1 NIR      0.559100
      5 O6          1.1600   -2.1260   -0.4070 o         1 NIR     -0.388100
      6 C8          3.9050    1.8270   -2.7030 c3        1 NIR      0.170000
      7 N9          4.5010    0.5930   -2.2110 n3        1 NIR     -0.765600
      8 C1'         5.9130    0.7710   -1.8360 c3        1 NIR      0.358300
      9 C2'         6.8980    0.6850   -3.0490 c3        1 NIR      0.103100
     10 O2'         6.3190    0.8600   -4.3140 oh        1 NIR     -0.580800
     11 C3'         7.5790   -0.6960   -2.9030 c3        1 NIR      0.084100
     12 C4N         1.6820    0.7180   -2.5040 c2        1 NIR     -0.283200
     13 O3'         7.1310   -1.5700   -3.9220 oh        1 NIR     -0.592800
     14 C4'         7.0960   -1.2620   -1.5560 c3        1 NIR      0.138100
     15 C5N         2.4330    1.7380   -2.9370 c2        1 NIR     -0.066200
     16 O4'         6.3290   -0.2290   -0.9030 os        1 NIR     -0.429600
     17 C5'         8.2330   -1.6380   -0.6320 c3        1 NIR     -0.102100
     18 H1N1        0.3030    0.7600   -0.3890 hn        1 NIR      0.468133
     19 H1N2        0.1480   -0.3520    0.8560 hn        1 NIR      0.468133
     20 H55         2.4170   -1.2950   -2.5580 hc        1 NIR      0.149700
     21 H8          4.0900    2.7010   -2.0060 h1        1 NIR      0.083700
     22 H81         4.4220    2.0610   -3.6850 h1        1 NIR      0.083700
     23 H1'         6.0560    1.7520   -1.2870 h2        1 NIR      0.065700
     24 H2'         7.6460    1.5200   -2.9590 h1        1 NIR      0.099700
     25 HB          5.7620    0.0880   -4.5000 ho        1 NIR      0.428000
     26 H3'         8.6960   -0.5950   -2.9280 h1        1 NIR      0.074700
     27 H4N         0.6110    0.6420   -2.7470 ha        1 NIR      0.141000
     28 HA          7.6170   -1.3390   -4.7250 ho        1 NIR      0.424000
     29 H4'         6.4070   -2.1350   -1.7280 h1        1 NIR      0.073700
     30 H5N         2.0000    2.5800   -3.5050 ha        1 NIR      0.163000
     31 H5'1        7.8280   -1.9680    0.3550 hc        1 NIR      0.056700
     32 H5'2        8.9110   -0.7690   -0.4610 hc        1 NIR      0.056700
     33 H5'3        8.8140   -2.4760   -1.0870 hc        1 NIR      0.056700
     34 H4          3.5510    0.5150   -0.2940 h1        1 NIR      0.048700
     35 H13         1.5370    0.5660    0.7110 hn        1 NIR      0.468133
     36 H41         4.2210   -1.0540   -0.9500 h1        1 NIR      0.048700
@<TRIPOS>BOND
     1    1    4 1   
     2    1   18 1   
     3    1   19 1   
     4    1   35 1   
     5    2    3 1   
     6    2    7 1   
     7    2   34 1   
     8    2   36 1   
     9    3    4 1   
    10    3   12 1   
    11    3   20 1   
    12    4    5 2   
    13    6    7 1   
    14    6   15 1   
    15    6   21 1   
    16    6   22 1   
    17    7    8 1   
    18    8    9 1   
    19    8   16 1   
    20    8   23 1   
    21    9   10 1   
    22    9   11 1   
    23    9   24 1   
    24   10   25 1   
    25   11   13 1   
    26   11   14 1   
    27   11   26 1   
    28   12   15 2   
    29   12   27 1   
    30   13   28 1   
    31   14   16 1   
    32   14   17 1   
    33   14   29 1   
    34   15   30 1   
    35   17   31 1   
    36   17   32 1   
    37   17   33 1   
@<TRIPOS>SUBSTRUCTURE
     1 NIR         1 TEMP              0 ****  ****    0 ROOT
