@<TRIPOS>MOLECULE
NIR
   36    37     1     0     0
SMALL
bcc


@<TRIPOS>ATOM
      1 N1          0.8260    0.1120    0.2370 nz        1 NIR     -0.767400
      2 C4          3.7030   -0.0860   -1.2190 c3        1 NIR      0.196800
      3 C5          2.3050   -0.4600   -1.7720 c3        1 NIR     -0.094500
      4 C6          1.4550   -0.9660   -0.6360 c         1 NIR      0.558100
      5 O6          1.1940   -2.1060   -0.3040 o         1 NIR     -0.388100
      6 C8          3.8830    1.7970   -2.7450 c3        1 NIR      0.170000
      7 N9          4.4930    0.5810   -2.2260 n3        1 NIR     -0.765600
      8 C1'         5.9090    0.7790   -1.8740 c3        1 NIR      0.358300
      9 C2'         6.8780    0.6650   -3.0960 c3        1 NIR      0.103100
     10 O2'         6.2830    0.8010   -4.3580 oh        1 NIR     -0.580800
     11 C3'         7.5720   -0.7060   -2.9190 c3        1 NIR      0.084100
     12 C4N         1.6700    0.6790   -2.4870 c2        1 NIR     -0.283200
     13 O3'         7.1180   -1.6120   -3.9080 oh        1 NIR     -0.592800
     14 C4'         7.1090   -1.2380   -1.5510 c3        1 NIR      0.138100
     15 C5N         2.4090    1.6920   -2.9580 c2        1 NIR     -0.066200
     16 O4'         6.3430   -0.1910   -0.9180 os        1 NIR     -0.429600
     17 C5'         8.2590   -1.5800   -0.6310 c3        1 NIR     -0.102100
     18 H1N1        0.1840   -0.3030    0.9210 hn        1 NIR      0.468133
     19 H1N2        1.5650    0.6200    0.7320 hn        1 NIR      0.468133
     20 H55         2.4180   -1.3290   -2.4930 hc        1 NIR      0.149700
     21 H8          4.0710    2.6920   -2.0750 h1        1 NIR      0.083700
     22 H81         4.3860    2.0060   -3.7400 h1        1 NIR      0.083700
     23 H1'         6.0510    1.7760   -1.3540 h2        1 NIR      0.065700
     24 H2'         7.6220    1.5080   -3.0390 h1        1 NIR      0.099700
     25 HB          5.7300    0.0200   -4.5160 ho        1 NIR      0.428000
     26 H3'         8.6880   -0.5990   -2.9610 h1        1 NIR      0.074700
     27 H4N         0.5970    0.5900   -2.7150 ha        1 NIR      0.141000
     28 HA          7.5930   -1.4000   -4.7230 ho        1 NIR      0.424000
     29 H4'         6.4230   -2.1190   -1.6900 h1        1 NIR      0.073700
     30 H5N         1.9630    2.5140   -3.5450 ha        1 NIR      0.163000
     31 H5'1        8.9340   -0.7020   -0.4930 hc        1 NIR      0.056700
     32 H5'2        7.8690   -1.8840    0.3690 hc        1 NIR      0.056700
     33 H5'3        8.8410   -2.4260   -1.0690 hc        1 NIR      0.056700
     34 H4          4.2400   -1.0310   -0.9150 h1        1 NIR      0.048700
     35 H13         0.3160    0.7730   -0.3580 hn        1 NIR      0.468133
     36 H41         3.5680    0.5520   -0.2960 h1        1 NIR      0.048700
@<TRIPOS>BOND
     1    1    4 1   
     2    1   18 1   
     3    1   19 1   
     4    1   35 1   
     5    2    3 1   
     6    2    7 1   
     7    2   34 1   
     8    2   36 1   
     9    3    4 1   
    10    3   12 1   
    11    3   20 1   
    12    4    5 2   
    13    6    7 1   
    14    6   15 1   
    15    6   21 1   
    16    6   22 1   
    17    7    8 1   
    18    8    9 1   
    19    8   16 1   
    20    8   23 1   
    21    9   10 1   
    22    9   11 1   
    23    9   24 1   
    24   10   25 1   
    25   11   13 1   
    26   11   14 1   
    27   11   26 1   
    28   12   15 2   
    29   12   27 1   
    30   13   28 1   
    31   14   16 1   
    32   14   17 1   
    33   14   29 1   
    34   15   30 1   
    35   17   31 1   
    36   17   32 1   
    37   17   33 1   
@<TRIPOS>SUBSTRUCTURE
     1 NIR         1 TEMP              0 ****  ****    0 ROOT
