@<TRIPOS>MOLECULE
NIR
   36    37     1     0     0
SMALL
bcc


@<TRIPOS>ATOM
      1 N1          0.8020    0.1350    0.1940 n4        1 NIR     -0.767400
      2 C4          3.6920   -0.0840   -1.2330 c3        1 NIR      0.196800
      3 C5          2.2930   -0.4020   -1.8160 c3        1 NIR     -0.094500
      4 C6          1.4160   -0.9260   -0.7100 c         1 NIR      0.558100
      5 O6          1.1220   -2.0710   -0.4210 o         1 NIR     -0.388100
      6 C8          3.9380    1.8480   -2.6890 c3        1 NIR      0.170000
      7 N9          4.5110    0.6000   -2.2060 n3        1 NIR     -0.765600
      8 C1'         5.9260    0.7500   -1.8300 c3        1 NIR      0.358300
      9 C2'         6.9090    0.6550   -3.0430 c3        1 NIR      0.103100
     10 O2'         6.3340    0.8500   -4.3070 oh        1 NIR     -0.580800
     11 C3'         7.5660   -0.7390   -2.9070 c3        1 NIR      0.084100
     12 C4N         1.6950    0.7770   -2.4980 c2        1 NIR     -0.283200
     13 O3'         7.1030   -1.5980   -3.9320 oh        1 NIR     -0.592800
     14 C4'         7.0730   -1.3070   -1.5640 c3        1 NIR      0.138100
     15 C5N         2.4640    1.7870   -2.9240 c2        1 NIR     -0.066200
     16 O4'         6.3240   -0.2640   -0.9040 os        1 NIR     -0.429600
     17 C5'         8.2020   -1.7100   -0.6430 c3        1 NIR     -0.102100
     18 H1N1        0.3160    0.8290   -0.3830 hn        1 NIR      0.468133
     19 H1N2        1.5460    0.6060    0.7160 hn        1 NIR      0.468133
     20 H55         2.3940   -1.2480   -2.5660 hc        1 NIR      0.149700
     21 H8          4.1380    2.7140   -1.9850 h1        1 NIR      0.083700
     22 H81         4.4590    2.0790   -3.6690 h1        1 NIR      0.083700
     23 H1'         6.0870    1.7240   -1.2730 h2        1 NIR      0.065700
     24 H2'         7.6720    1.4760   -2.9470 h1        1 NIR      0.099700
     25 HB          5.7640    0.0880   -4.4990 ho        1 NIR      0.428000
     26 H3'         8.6850   -0.6580   -2.9320 h1        1 NIR      0.074700
     27 H4N         0.6230    0.7230   -2.7420 ha        1 NIR      0.141000
     28 HA          7.5940   -1.3690   -4.7340 ho        1 NIR      0.424000
     29 H4'         6.3680   -2.1650   -1.7430 h1        1 NIR      0.073700
     30 H5N         2.0470    2.6400   -3.4850 ha        1 NIR      0.163000
     31 H5'1        7.7910   -2.0390    0.3410 hc        1 NIR      0.056700
     32 H5'2        8.7690   -2.5540   -1.1040 hc        1 NIR      0.056700
     33 H5'3        8.8960   -0.8540   -0.4660 hc        1 NIR      0.056700
     34 H4          4.2020   -1.0510   -0.9560 h1        1 NIR      0.048700
     35 H13         0.1410   -0.2880    0.8550 hn        1 NIR      0.468133
     36 H41         3.5600    0.5250   -0.2890 h1        1 NIR      0.048700
@<TRIPOS>BOND
     1    1    4 1   
     2    1   18 1   
     3    1   19 1   
     4    1   35 1   
     5    2    3 1   
     6    2    7 1   
     7    2   34 1   
     8    2   36 1   
     9    3    4 1   
    10    3   12 1   
    11    3   20 1   
    12    4    5 2   
    13    6    7 1   
    14    6   15 1   
    15    6   21 1   
    16    6   22 1   
    17    7    8 1   
    18    8    9 1   
    19    8   16 1   
    20    8   23 1   
    21    9   10 1   
    22    9   11 1   
    23    9   24 1   
    24   10   25 1   
    25   11   13 1   
    26   11   14 1   
    27   11   26 1   
    28   12   15 2   
    29   12   27 1   
    30   13   28 1   
    31   14   16 1   
    32   14   17 1   
    33   14   29 1   
    34   15   30 1   
    35   17   31 1   
    36   17   32 1   
    37   17   33 1   
@<TRIPOS>SUBSTRUCTURE
     1 NIR         1 TEMP              0 ****  ****    0 ROOT
