@<TRIPOS>MOLECULE
NIR
   35    36     1     0     0
SMALL
bcc


@<TRIPOS>ATOM
      1 N1         -1.5810   -2.4600    3.6330 n         1 NIR     -0.679000
      2 C4         -1.4050    0.4830    0.9610 c3        1 NIR      0.167800
      3 C5         -1.4560   -1.1390    1.3620 c3        1 NIR     -0.133500
      4 C6         -2.0230   -1.3280    2.8200 c         1 NIR      0.668100
      5 O6         -2.9080   -0.6030    3.2240 o         1 NIR     -0.607100
      6 C8         -1.9340    0.0800   -1.2690 c3        1 NIR      0.191000
      7 N9         -1.0800    0.7230   -0.0930 n3        1 NIR     -0.744600
      8 C1'         0.3370    0.3670   -0.2640 c3        1 NIR      0.339300
      9 C2'         1.2510    1.6540   -0.1250 c3        1 NIR      0.147100
     10 O2'         0.4930    2.7730   -0.1460 oh        1 NIR     -0.574800
     11 C3'         2.1750    1.6230   -1.3160 c3        1 NIR      0.079100
     12 C4N        -2.1730   -1.9000    0.4280 c2        1 NIR     -0.182200
     13 O3'         1.7680    2.6650   -2.3160 oh        1 NIR     -0.588800
     14 C4'         2.0230    0.4140   -1.8300 c3        1 NIR      0.101100
     15 C5N        -2.1080   -1.3490   -1.1110 c2        1 NIR     -0.170200
     16 O4'         0.5430   -0.0610   -1.4330 os        1 NIR     -0.415600
     17 C5'         3.0350   -0.5220   -1.2450 c3        1 NIR     -0.099100
     18 H1N1       -1.9320   -2.5850    4.4930 hn        1 NIR      0.310500
     19 H1N2       -1.0000   -3.0710    3.2850 hn        1 NIR      0.310500
     20 H4         -2.3020    0.8600    1.0970 h1        1 NIR      0.085200
     21 H41        -0.7900    0.9280    1.5760 h1        1 NIR      0.085200
     22 H55        -0.5540   -1.4990    1.4670 hc        1 NIR      0.069700
     23 H8         -1.6140    0.2530   -2.1540 h1        1 NIR      0.072200
     24 H81        -2.8090    0.5540   -1.2980 h1        1 NIR      0.072200
     25 H1'         0.5960   -0.3010    0.3880 h2        1 NIR      0.057700
     26 H2'         1.7820    1.6110    0.7250 h1        1 NIR      0.080700
     27 HB          0.9400    3.4410    0.2320 ho        1 NIR      0.436000
     28 H3'         3.0950    1.7610   -1.0380 h1        1 NIR      0.054700
     29 H4N        -2.2670   -2.8500    0.5770 ha        1 NIR      0.123000
     30 HA          2.5120    3.0760   -2.6480 ho        1 NIR      0.409000
     31 H4'         2.1180    0.4480   -2.8120 h1        1 NIR      0.060700
     32 H5N        -2.4980   -1.8730   -1.8300 ha        1 NIR      0.132000
     33 H5'1        2.7590   -1.4410   -1.4080 hc        1 NIR      0.047033
     34 H5'2        3.1030   -0.3670   -0.2720 hc        1 NIR      0.047033
     35 H5'3        3.9040   -0.3650   -1.6610 hc        1 NIR      0.047033
@<TRIPOS>BOND
     1    1    4 1   
     2    1   18 1   
     3    1   19 1   
     4    2    3 1   
     5    2    7 1   
     6    2   20 1   
     7    2   21 1   
     8    3    4 1   
     9    3   12 1   
    10    3   22 1   
    11    4    5 2   
    12    6    7 1   
    13    6   15 1   
    14    6   23 1   
    15    6   24 1   
    16    7    8 1   
    17    8    9 1   
    18    8   16 1   
    19    8   25 1   
    20    9   10 1   
    21    9   11 1   
    22    9   26 1   
    23   10   27 1   
    24   11   13 1   
    25   11   14 1   
    26   11   28 1   
    27   12   15 2   
    28   12   29 1   
    29   13   30 1   
    30   14   16 1   
    31   14   17 1   
    32   14   31 1   
    33   15   32 1   
    34   17   33 1   
    35   17   34 1   
    36   17   35 1   
@<TRIPOS>SUBSTRUCTURE
     1 NIR         1 TEMP              0 ****  ****    0 ROOT
