@<TRIPOS>MOLECULE
NIR
   35    36     1     0     0
SMALL
bcc


@<TRIPOS>ATOM
      1 N1         -4.3160   -0.8370   -1.4990 n         1 NIR     -0.680000
      2 C4         -1.0470   -0.3810    0.3220 c3        1 NIR      0.185800
      3 C5         -2.1940    0.0790   -0.5990 c3        1 NIR     -0.100500
      4 C6         -3.3010   -0.9700   -0.5810 c         1 NIR      0.663100
      5 O6         -3.3050   -1.9370    0.2060 o         1 NIR     -0.608100
      6 C8         -0.6360    1.8840    1.1050 c3        1 NIR      0.193000
      7 N9         -0.0640    0.6720    0.5260 n3        1 NIR     -0.762600
      8 C1'         1.1330    0.2510    1.2600 c3        1 NIR      0.350300
      9 C2'         2.4440    0.9570    0.7690 c3        1 NIR      0.145100
     10 O2'         2.2750    2.2090    0.1690 oh        1 NIR     -0.576800
     11 C3'         3.1190   -0.0890   -0.1490 c3        1 NIR      0.078100
     12 C4N        -2.7060    1.4180   -0.2000 c2        1 NIR     -0.173200
     13 O3'         3.0160    0.3800   -1.4810 oh        1 NIR     -0.590800
     14 C4'         2.3260   -1.3940    0.0650 c3        1 NIR      0.102100
     15 C5N        -1.9810    2.2420    0.5620 c2        1 NIR     -0.151200
     16 O4'         1.3890   -1.1560    1.1280 os        1 NIR     -0.409600
     17 C5'         3.1970   -2.5600    0.4760 c3        1 NIR     -0.100100
     18 H1N1       -4.3590   -0.0580   -2.1010 hn        1 NIR      0.310500
     19 H1N2       -5.0610   -1.4880   -1.5010 hn        1 NIR      0.310500
     20 H41        -0.5340   -1.2590   -0.1620 h1        1 NIR      0.062200
     21 H55        -1.7960    0.1540   -1.6530 hc        1 NIR      0.081700
     22 H8          0.0900    2.7210    0.8840 h1        1 NIR      0.053700
     23 H81        -0.7360    1.8090    2.2310 h1        1 NIR      0.053700
     24 H1'         1.0100    0.4010    2.3770 h2        1 NIR      0.060700
     25 H2'         3.0930    1.1550    1.6660 h1        1 NIR      0.081700
     26 HB          1.8380    2.0780   -0.6850 ho        1 NIR      0.434000
     27 H3'         4.2000   -0.2200    0.1230 h1        1 NIR      0.055700
     28 H4N        -3.6970    1.7070   -0.5790 ha        1 NIR      0.124000
     29 HA          3.4060   -0.2980   -2.0460 ho        1 NIR      0.409000
     30 H4'         1.7350   -1.6420   -0.8610 h1        1 NIR      0.060700
     31 H5N        -2.3390    3.2430    0.8470 ha        1 NIR      0.132000
     32 H5'1        2.5600   -3.4510    0.6950 hc        1 NIR      0.048033
     33 H5'2        3.9030   -2.8080   -0.3510 hc        1 NIR      0.048033
     34 H5'3        3.7800   -2.3120    1.3950 hc        1 NIR      0.048033
     35 H4         -1.4880   -0.7420    1.2960 h1        1 NIR      0.062200
@<TRIPOS>BOND
     1    1    4 1   
     2    1   18 1   
     3    1   19 1   
     4    2    3 1   
     5    2    7 1   
     6    2   20 1   
     7    2   35 1   
     8    3    4 1   
     9    3   12 1   
    10    3   21 1   
    11    4    5 2   
    12    6    7 1   
    13    6   15 1   
    14    6   22 1   
    15    6   23 1   
    16    7    8 1   
    17    8    9 1   
    18    8   16 1   
    19    8   24 1   
    20    9   10 1   
    21    9   11 1   
    22    9   25 1   
    23   10   26 1   
    24   11   13 1   
    25   11   14 1   
    26   11   27 1   
    27   12   15 2   
    28   12   28 1   
    29   13   29 1   
    30   14   16 1   
    31   14   17 1   
    32   14   30 1   
    33   15   31 1   
    34   17   32 1   
    35   17   33 1   
    36   17   34 1   
@<TRIPOS>SUBSTRUCTURE
     1 NIR         1 TEMP              0 ****  ****    0 ROOT
