@<TRIPOS>MOLECULE
NIS
   13    12     1     0     0
SMALL
bcc


@<TRIPOS>ATOM
      1 C1         -1.3240   -0.2820   -0.2660 c3        1 NIS     -0.111100
      2 C2          0.1880   -0.2820   -0.2660 c3        1 NIS     -0.054000
      3 C4          0.6930   -0.2820    1.1600 c3        1 NIS     -0.111100
      4 N3          0.6620    0.8780   -0.9360 no        1 NIS      0.225300
      5 O6          0.3670    1.9880   -0.5180 o         1 NIS     -0.211000
      6 O5          1.4470    0.7520   -2.0460 o         1 NIS     -0.211000
      7 H11        -1.6500   -1.1200    0.1150 hc        1 NIS      0.063033
      8 H12        -1.6500    0.4670    0.2680 hc        1 NIS      0.063033
      9 H13        -1.6500   -0.1940   -1.1830 hc        1 NIS      0.063033
     10 H2          0.5140   -1.0790   -0.7270 h1        1 NIS      0.097700
     11 H41         0.2970    0.4670    1.6450 hc        1 NIS      0.063033
     12 H42         0.4420   -1.1200    1.5940 hc        1 NIS      0.063033
     13 H43         1.6650   -0.1940    1.1610 hc        1 NIS      0.063033
@<TRIPOS>BOND
     1    1    2 1   
     2    1    7 1   
     3    1    8 1   
     4    1    9 1   
     5    2    3 1   
     6    2    4 1   
     7    2   10 1   
     8    3   11 1   
     9    3   12 1   
    10    3   13 1   
    11    4    5 1   
    12    4    6 1   
@<TRIPOS>SUBSTRUCTURE
     1 NIS         1 TEMP              0 ****  ****    0 ROOT
