@<TRIPOS>MOLECULE
NIS
   13    12     1     0     0
SMALL
bcc


@<TRIPOS>ATOM
      1 C1         -0.0020    0.0160   -0.0000 c3        1 NIS     -0.111100
      2 C2          1.5160   -0.0250    0.0200 c3        1 NIS     -0.054000
      3 C4          2.0400    0.0160    1.4450 c3        1 NIS     -0.111100
      4 N3          2.0320   -1.2790   -0.7090 no        1 NIS      0.225300
      5 O6          1.7360   -2.3630   -0.2910 o         1 NIS     -0.211000
      6 O5          2.7190   -1.1230   -1.6800 o         1 NIS     -0.211000
      7 H11        -0.3390    0.9370    0.5340 hc        1 NIS      0.063033
      8 H12        -0.3900    0.0490   -1.0470 hc        1 NIS      0.063033
      9 H13        -0.4310   -0.8780    0.5150 hc        1 NIS      0.063033
     10 H2          1.9350    0.8410   -0.5720 h1        1 NIS      0.097700
     11 H41         1.6960   -0.8780    2.0210 hc        1 NIS      0.063033
     12 H42         1.6480    0.9370    1.9410 hc        1 NIS      0.063033
     13 H43         3.1560    0.0490    1.4620 hc        1 NIS      0.063033
@<TRIPOS>BOND
     1    1    2 1   
     2    1    7 1   
     3    1    8 1   
     4    1    9 1   
     5    2    3 1   
     6    2    4 1   
     7    2   10 1   
     8    3   11 1   
     9    3   12 1   
    10    3   13 1   
    11    4    5 1   
    12    4    6 1   
@<TRIPOS>SUBSTRUCTURE
     1 NIS         1 TEMP              0 ****  ****    0 ROOT
