@<TRIPOS>MOLECULE
NIS
   13    12     1     0     0
SMALL
bcc


@<TRIPOS>ATOM
      1 C1          1.3950    1.2510    0.0250 c3        1 NIS     -0.111100
      2 C2          0.6800    0.0000   -0.4570 c3        1 NIS     -0.054000
      3 C4          1.3960   -1.2510    0.0240 c3        1 NIS     -0.111100
      4 N3         -0.7840   -0.0010    0.0150 no        1 NIS      0.225300
      5 O6         -1.0220   -0.0010    1.1900 o         1 NIS     -0.211000
      6 O5         -1.6450   -0.0010   -0.8210 o         1 NIS     -0.211000
      7 H11         1.3960    1.3030    1.1420 hc        1 NIS      0.063033
      8 H12         2.4510    1.2180   -0.3360 hc        1 NIS      0.063033
      9 H13         0.9090    2.1720   -0.3780 hc        1 NIS      0.063033
     10 H2          0.6170    0.0010   -1.5840 h1        1 NIS      0.097700
     11 H41         1.3970   -1.3030    1.1410 hc        1 NIS      0.063033
     12 H42         0.9100   -2.1720   -0.3800 hc        1 NIS      0.063033
     13 H43         2.4520   -1.2160   -0.3370 hc        1 NIS      0.063033
@<TRIPOS>BOND
     1    1    2 1   
     2    1    7 1   
     3    1    8 1   
     4    1    9 1   
     5    2    3 1   
     6    2    4 1   
     7    2   10 1   
     8    3   11 1   
     9    3   12 1   
    10    3   13 1   
    11    4    5 1   
    12    4    6 1   
@<TRIPOS>SUBSTRUCTURE
     1 NIS         1 TEMP              0 ****  ****    0 ROOT
