@<TRIPOS>MOLECULE
NIT
   16    16     1     0     0
SMALL
bcc


@<TRIPOS>ATOM
      1 N1         -0.0130    0.1020   -0.0080 nh        1 NIT     -0.849200
      2 C1          1.3640    0.0250   -0.0020 ca        1 NIT      0.221600
      3 C2          2.0920    0.1330    1.2140 ca        1 NIT     -0.224000
      4 C3          3.4760    0.1260    1.2120 ca        1 NIT     -0.017000
      5 C4          4.1760    0.0030   -0.0010 ca        1 NIT     -0.242200
      6 N4          5.6530   -0.0090   -0.0010 no        1 NIT      0.323200
      7 ON1         6.2400    0.0880    1.0450 o         1 NIT     -0.220000
      8 ON2         6.2380   -0.1160   -1.0480 o         1 NIT     -0.220000
      9 C5          3.4740   -0.1110   -1.2150 ca        1 NIT     -0.017000
     10 C6          2.0900   -0.1040   -1.2160 ca        1 NIT     -0.224000
     11 HN11       -0.4880   -0.0180    0.8530 hn        1 NIT      0.421800
     12 HN12       -0.4890   -0.1820   -0.8290 hn        1 NIT      0.421800
     13 H2          1.5570    0.2310    2.1700 ha        1 NIT      0.145000
     14 H3          4.0320    0.2140    2.1630 ha        1 NIT      0.168000
     15 H5          4.0280   -0.2070   -2.1650 ha        1 NIT      0.168000
     16 H6          1.5540   -0.1920   -2.1730 ha        1 NIT      0.145000
@<TRIPOS>BOND
     1    1    2 1   
     2    1   11 1   
     3    1   12 1   
     4    2    3 ar  
     5    2   10 ar  
     6    3    4 ar  
     7    3   13 1   
     8    4    5 ar  
     9    4   14 1   
    10    5    6 1   
    11    5    9 ar  
    12    6    7 1   
    13    6    8 1   
    14    9   10 ar  
    15    9   15 1   
    16   10   16 1   
@<TRIPOS>SUBSTRUCTURE
     1 NIT         1 TEMP              0 ****  ****    0 ROOT
