@<TRIPOS>MOLECULE
NIT
   16    16     1     0     0
SMALL
bcc


@<TRIPOS>ATOM
      1 N1          3.5570    0.0000   -0.1110 nh        1 NIT     -0.849200
      2 C1          2.1810    0.0000   -0.0300 ca        1 NIT      0.221600
      3 C2          1.4540    1.2200   -0.0170 ca        1 NIT     -0.224000
      4 C3          0.0700    1.2190   -0.0070 ca        1 NIT     -0.017000
      5 C4         -0.6300   -0.0000   -0.0010 ca        1 NIT     -0.242200
      6 N4         -2.1080   -0.0000    0.0150 no        1 NIT      0.323200
      7 ON1        -2.6940    1.0510    0.0210 o         1 NIT     -0.220000
      8 ON2        -2.6940   -1.0510    0.0210 o         1 NIT     -0.220000
      9 C5          0.0700   -1.2190   -0.0070 ca        1 NIT     -0.017000
     10 C6          1.4540   -1.2200   -0.0170 ca        1 NIT     -0.224000
     11 HN11        4.0340    0.8450    0.0920 hn        1 NIT      0.421800
     12 HN12        4.0340   -0.8450    0.0920 hn        1 NIT      0.421800
     13 H2          1.9890    2.1820   -0.0240 ha        1 NIT      0.145000
     14 H3         -0.4850    2.1740   -0.0010 ha        1 NIT      0.168000
     15 H5         -0.4850   -2.1740   -0.0020 ha        1 NIT      0.168000
     16 H6          1.9890   -2.1820   -0.0240 ha        1 NIT      0.145000
@<TRIPOS>BOND
     1    1    2 1   
     2    1   11 1   
     3    1   12 1   
     4    2    3 ar  
     5    2   10 ar  
     6    3    4 ar  
     7    3   13 1   
     8    4    5 ar  
     9    4   14 1   
    10    5    6 1   
    11    5    9 ar  
    12    6    7 1   
    13    6    8 1   
    14    9   10 ar  
    15    9   15 1   
    16   10   16 1   
@<TRIPOS>SUBSTRUCTURE
     1 NIT         1 TEMP              0 ****  ****    0 ROOT
