@<TRIPOS>MOLECULE
NIT
   16    16     1     0     0
SMALL
bcc


@<TRIPOS>ATOM
      1 N1         -0.0130   -0.0960   -0.0370 nh        1 NIT     -0.849200
      2 C1          1.3640   -0.0230   -0.0160 ca        1 NIT      0.221600
      3 C2          2.0800   -0.1520    1.2040 ca        1 NIT     -0.224000
      4 C3          3.4640   -0.1490    1.2160 ca        1 NIT     -0.017000
      5 C4          4.1750   -0.0090    0.0120 ca        1 NIT     -0.242200
      6 N4          5.6530   -0.0020    0.0260 no        1 NIT      0.323200
      7 ON1         6.2290   -0.1160    1.0760 o         1 NIT     -0.220000
      8 ON2         6.2490    0.1200   -1.0130 o         1 NIT     -0.220000
      9 C5          3.4860    0.1260   -1.2060 ca        1 NIT     -0.017000
     10 C6          2.1020    0.1230   -1.2210 ca        1 NIT     -0.224000
     11 HN11       -0.4810    0.2030   -0.8570 hn        1 NIT      0.421800
     12 HN12       -0.4960    0.0120    0.8210 hn        1 NIT      0.421800
     13 H2          1.5360   -0.2640    2.1540 ha        1 NIT      0.145000
     14 H3          4.0100   -0.2540    2.1710 ha        1 NIT      0.168000
     15 H5          4.0500    0.2360   -2.1500 ha        1 NIT      0.168000
     16 H6          1.5760    0.2270   -2.1810 ha        1 NIT      0.145000
@<TRIPOS>BOND
     1    1    2 1   
     2    1   11 1   
     3    1   12 1   
     4    2    3 ar  
     5    2   10 ar  
     6    3    4 ar  
     7    3   13 1   
     8    4    5 ar  
     9    4   14 1   
    10    5    6 1   
    11    5    9 ar  
    12    6    7 1   
    13    6    8 1   
    14    9   10 ar  
    15    9   15 1   
    16   10   16 1   
@<TRIPOS>SUBSTRUCTURE
     1 NIT         1 TEMP              0 ****  ****    0 ROOT
