@<TRIPOS>MOLECULE
NIU
   44    46     1     0     0
SMALL
bcc


@<TRIPOS>ATOM
      1 CA          0.0140    0.0070   -0.0670 cc        1 NIU     -0.254400
      2 CA2         1.4560    0.1320   -0.0400 c         1 NIU      0.738800
      3 OA2         2.2830    0.2700   -0.9430 o         1 NIU     -0.583500
      4 OA3         2.1250    0.0870    1.1950 os        1 NIU     -0.329200
      5 CA4         1.4100   -0.0090    2.3530 cc        1 NIU      0.170900
      6 CA5         0.0440   -0.0700    2.3870 cd        1 NIU     -0.257200
      7 CA6        -0.6630   -0.0960    1.1270 cd        1 NIU      0.222100
      8 OA6        -2.0290   -0.1990    1.0690 oh        1 NIU     -0.485100
      9 CB1        -0.6450   -1.3740   -2.0130 ca        1 NIU     -0.074300
     10 CB2        -1.8140   -2.1410   -2.0990 ca        1 NIU     -0.124500
     11 CB3        -1.7870   -3.4050   -2.6870 ca        1 NIU     -0.134000
     12 CB4        -0.5930   -3.9170   -3.1930 ca        1 NIU     -0.133000
     13 CB5         0.5750   -3.1600   -3.1060 ca        1 NIU     -0.134000
     14 CB6         0.5510   -1.8960   -2.5190 ca        1 NIU     -0.124500
     15 CG1        -0.7040   -0.0130   -1.3820 c3        1 NIU      0.050800
     16 CG2        -0.1860    1.0780   -2.3180 c3        1 NIU     -0.079400
     17 CG3        -1.1440    1.3420   -3.4500 c3        1 NIU     -0.092100
     18 CD1         2.3040   -0.0290    3.5480 c3        1 NIU     -0.048200
     19 CD2         2.1410   -1.2990    4.3630 c3        1 NIU     -0.074400
     20 CD3         0.9190   -1.2890    5.2570 c3        1 NIU     -0.079400
     21 CD4        -0.3910   -1.3400    4.5010 c3        1 NIU     -0.080400
     22 CD5        -0.6580   -0.0780    3.6990 c3        1 NIU     -0.018200
     23 HO6        -2.3530   -0.5440    1.9130 ho        1 NIU      0.432000
     24 HB2        -2.7600   -1.7450   -1.7000 ha        1 NIU      0.142500
     25 HB3        -2.7110   -3.9980   -2.7520 ha        1 NIU      0.129000
     26 HB4        -0.5720   -4.9130   -3.6570 ha        1 NIU      0.128000
     27 HB5         1.5200   -3.5590   -3.5020 ha        1 NIU      0.129000
     28 HB6         1.4790   -1.3040   -2.4480 ha        1 NIU      0.142500
     29 HG1        -1.7920    0.2250   -1.1700 hc        1 NIU      0.071700
     30 HG21        0.8170    0.7820   -2.7250 hc        1 NIU      0.054700
     31 HG22       -0.0380    2.0190   -1.7240 hc        1 NIU      0.054700
     32 HG31       -1.3290    0.4090   -4.0350 hc        1 NIU      0.034033
     33 HG32       -0.7200    2.1130   -4.1380 hc        1 NIU      0.034033
     34 HG33       -2.1240    1.7150   -3.0650 hc        1 NIU      0.034033
     35 HD11        2.0690    0.8710    4.1790 hc        1 NIU      0.075700
     36 HD12        3.3720    0.0590    3.2080 hc        1 NIU      0.075700
     37 HD21        2.1030   -2.1850    3.6770 hc        1 NIU      0.053700
     38 HD22        3.0530   -1.4150    5.0090 hc        1 NIU      0.053700
     39 HD31        0.9400   -0.3750    5.9080 hc        1 NIU      0.044200
     40 HD32        0.9720   -2.1810    5.9370 hc        1 NIU      0.044200
     41 HD41       -0.4020   -2.2320    3.8210 hc        1 NIU      0.047700
     42 HD42       -1.2230   -1.4730    5.2430 hc        1 NIU      0.047700
     43 HD51       -1.7650    0.0460    3.5670 hc        1 NIU      0.047700
     44 HD52       -0.3170    0.8170    4.2920 hc        1 NIU      0.047700
@<TRIPOS>BOND
     1    1    2 1   
     2    1    7 2   
     3    1   15 1   
     4    2    3 2   
     5    2    4 1   
     6    4    5 1   
     7    5    6 2   
     8    5   18 1   
     9    6    7 1   
    10    6   22 1   
    11    7    8 1   
    12    8   23 1   
    13    9   10 ar  
    14    9   14 ar  
    15    9   15 1   
    16   10   11 ar  
    17   10   24 1   
    18   11   12 ar  
    19   11   25 1   
    20   12   13 ar  
    21   12   26 1   
    22   13   14 ar  
    23   13   27 1   
    24   14   28 1   
    25   15   16 1   
    26   15   29 1   
    27   16   17 1   
    28   16   30 1   
    29   16   31 1   
    30   17   32 1   
    31   17   33 1   
    32   17   34 1   
    33   18   19 1   
    34   18   35 1   
    35   18   36 1   
    36   19   20 1   
    37   19   37 1   
    38   19   38 1   
    39   20   21 1   
    40   20   39 1   
    41   20   40 1   
    42   21   22 1   
    43   21   41 1   
    44   21   42 1   
    45   22   43 1   
    46   22   44 1   
@<TRIPOS>SUBSTRUCTURE
     1 NIU         1 TEMP              0 ****  ****    0 ROOT
