@<TRIPOS>MOLECULE
NIU
   44    46     1     0     0
SMALL
bcc


@<TRIPOS>ATOM
      1 CA          0.0150    0.0060   -0.0690 cc        1 NIU     -0.254400
      2 CA2         1.4580    0.1270   -0.0440 c         1 NIU      0.738800
      3 OA2         2.2840    0.2610   -0.9470 o         1 NIU     -0.583500
      4 OA3         2.1280    0.0820    1.1910 os        1 NIU     -0.329200
      5 CA4         1.4140   -0.0100    2.3500 cc        1 NIU      0.170900
      6 CA5         0.0470   -0.0660    2.3850 cd        1 NIU     -0.257200
      7 CA6        -0.6600   -0.0920    1.1260 cd        1 NIU      0.222100
      8 OA6        -2.0270   -0.1910    1.0690 oh        1 NIU     -0.485100
      9 CB1        -0.6490   -1.3770   -2.0110 ca        1 NIU     -0.074300
     10 CB2        -1.8200   -2.1410   -2.0960 ca        1 NIU     -0.124500
     11 CB3        -1.7980   -3.4060   -2.6810 ca        1 NIU     -0.134000
     12 CB4        -0.6050   -3.9220   -3.1860 ca        1 NIU     -0.133000
     13 CB5         0.5650   -3.1680   -3.1020 ca        1 NIU     -0.134000
     14 CB6         0.5450   -1.9030   -2.5180 ca        1 NIU     -0.124500
     15 CG1        -0.7040   -0.0140   -1.3830 c3        1 NIU      0.050800
     16 CG2        -0.1840    1.0730   -2.3210 c3        1 NIU     -0.079400
     17 CG3        -1.1420    1.3380   -3.4540 c3        1 NIU     -0.092100
     18 CD1         2.3090   -0.0300    3.5440 c3        1 NIU     -0.048200
     19 CD2         2.1430   -1.2970    4.3620 c3        1 NIU     -0.074400
     20 CD3         0.9220   -1.2820    5.2560 c3        1 NIU     -0.079400
     21 CD4        -0.3890   -1.3310    4.5020 c3        1 NIU     -0.080400
     22 CD5        -0.6530   -0.0700    3.6970 c3        1 NIU     -0.018200
     23 HO6        -2.3510   -0.5340    1.9150 ho        1 NIU      0.432000
     24 HB2        -2.7650   -1.7410   -1.6970 ha        1 NIU      0.142500
     25 HB3        -2.7230   -3.9960   -2.7440 ha        1 NIU      0.129000
     26 HB4        -0.5880   -4.9190   -3.6490 ha        1 NIU      0.128000
     27 HB5         1.5090   -3.5710   -3.4980 ha        1 NIU      0.129000
     28 HB6         1.4750   -1.3140   -2.4490 ha        1 NIU      0.142500
     29 HG1        -1.7910    0.2270   -1.1710 hc        1 NIU      0.071700
     30 HG21       -0.0320    2.0140   -1.7300 hc        1 NIU      0.054700
     31 HG22        0.8180    0.7740   -2.7290 hc        1 NIU      0.054700
     32 HG31       -2.1200    1.7150   -3.0680 hc        1 NIU      0.034033
     33 HG32       -0.7160    2.1070   -4.1430 hc        1 NIU      0.034033
     34 HG33       -1.3310    0.4040   -4.0360 hc        1 NIU      0.034033
     35 HD11        2.0770    0.8720    4.1730 hc        1 NIU      0.075700
     36 HD12        3.3770    0.0550    3.2030 hc        1 NIU      0.075700
     37 HD21        3.0550   -1.4150    5.0060 hc        1 NIU      0.053700
     38 HD22        2.1010   -2.1850    3.6770 hc        1 NIU      0.053700
     39 HD31        0.9730   -2.1740    5.9380 hc        1 NIU      0.044200
     40 HD32        0.9460   -0.3670    5.9060 hc        1 NIU      0.044200
     41 HD41       -0.4030   -2.2240    3.8240 hc        1 NIU      0.047700
     42 HD42       -1.2210   -1.4600    5.2450 hc        1 NIU      0.047700
     43 HD51       -1.7600    0.0580    3.5670 hc        1 NIU      0.047700
     44 HD52       -0.3090    0.8250    4.2890 hc        1 NIU      0.047700
@<TRIPOS>BOND
     1    1    2 1   
     2    1    7 2   
     3    1   15 1   
     4    2    3 2   
     5    2    4 1   
     6    4    5 1   
     7    5    6 2   
     8    5   18 1   
     9    6    7 1   
    10    6   22 1   
    11    7    8 1   
    12    8   23 1   
    13    9   10 ar  
    14    9   14 ar  
    15    9   15 1   
    16   10   11 ar  
    17   10   24 1   
    18   11   12 ar  
    19   11   25 1   
    20   12   13 ar  
    21   12   26 1   
    22   13   14 ar  
    23   13   27 1   
    24   14   28 1   
    25   15   16 1   
    26   15   29 1   
    27   16   17 1   
    28   16   30 1   
    29   16   31 1   
    30   17   32 1   
    31   17   33 1   
    32   17   34 1   
    33   18   19 1   
    34   18   35 1   
    35   18   36 1   
    36   19   20 1   
    37   19   37 1   
    38   19   38 1   
    39   20   21 1   
    40   20   39 1   
    41   20   40 1   
    42   21   22 1   
    43   21   41 1   
    44   21   42 1   
    45   22   43 1   
    46   22   44 1   
@<TRIPOS>SUBSTRUCTURE
     1 NIU         1 TEMP              0 ****  ****    0 ROOT
