@<TRIPOS>MOLECULE
NIU
   44    46     1     0     0
SMALL
bcc


@<TRIPOS>ATOM
      1 CA          0.7130   -0.3860    0.2910 cc        1 NIU     -0.326400
      2 CA2         1.5340    0.7350   -0.1140 c         1 NIU      0.743800
      3 OA2         2.2360    1.5080    0.5400 o         1 NIU     -0.589500
      4 OA3         1.5890    1.0900   -1.4690 os        1 NIU     -0.329200
      5 CA4         0.8290    0.4160   -2.3850 cc        1 NIU      0.156900
      6 CA5        -0.0180   -0.6010   -2.0460 cd        1 NIU     -0.204200
      7 CA6        -0.0810   -0.9920   -0.6550 cd        1 NIU      0.242100
      8 OA6        -0.9560   -2.0060   -0.3790 oh        1 NIU     -0.484100
      9 CB1        -0.3820   -0.2290    2.4970 ca        1 NIU     -0.088300
     10 CB2        -1.3720   -1.0380    3.0660 ca        1 NIU     -0.129000
     11 CB3        -2.4160   -0.4670    3.7920 ca        1 NIU     -0.127000
     12 CB4        -2.4790    0.9170    3.9540 ca        1 NIU     -0.130000
     13 CB5        -1.4950    1.7280    3.3900 ca        1 NIU     -0.127000
     14 CB6        -0.4500    1.1600    2.6640 ca        1 NIU     -0.129000
     15 CG1         0.7400   -0.8490    1.7150 c3        1 NIU      0.047800
     16 CG2         2.0900   -0.6010    2.3840 c3        1 NIU     -0.074400
     17 CG3         2.2700   -1.4600    3.6090 c3        1 NIU     -0.094100
     18 CD1         1.0590    0.9310   -3.7660 c3        1 NIU     -0.045200
     19 CD2        -0.2050    1.4860   -4.3940 c3        1 NIU     -0.073400
     20 CD3        -1.1430    0.4120   -4.9010 c3        1 NIU     -0.081400
     21 CD4        -1.7990   -0.3910   -3.7980 c3        1 NIU     -0.077400
     22 CD5        -0.8360   -1.3090   -3.0660 c3        1 NIU     -0.017200
     23 HO6        -1.0810   -2.0580    0.5840 ho        1 NIU      0.441000
     24 HB2        -1.3230   -2.1320    2.9530 ha        1 NIU      0.138500
     25 HB3        -3.1880   -1.1100    4.2380 ha        1 NIU      0.132500
     26 HB4        -3.3030    1.3670    4.5270 ha        1 NIU      0.132000
     27 HB5        -1.5410    2.8200    3.5180 ha        1 NIU      0.132500
     28 HB6         0.3310    1.7970    2.2150 ha        1 NIU      0.138500
     29 HG1         0.5940   -1.9730    1.7060 hc        1 NIU      0.044700
     30 HG21        2.1790    0.4840    2.6600 hc        1 NIU      0.061700
     31 HG22        2.9060   -0.8190    1.6450 hc        1 NIU      0.061700
     32 HG31        3.2360   -1.2090    4.1110 hc        1 NIU      0.034700
     33 HG32        1.4380   -1.2920    4.3350 hc        1 NIU      0.034700
     34 HG33        2.2870   -2.5430    3.3380 hc        1 NIU      0.034700
     35 HD11        1.8420    1.7360   -3.7310 hc        1 NIU      0.074200
     36 HD12        1.4610    0.0860   -4.3900 hc        1 NIU      0.074200
     37 HD21       -0.7390    2.1390   -3.6550 hc        1 NIU      0.051700
     38 HD22        0.0950    2.1360   -5.2590 hc        1 NIU      0.051700
     39 HD31       -1.9480    0.9050   -5.5090 hc        1 NIU      0.042200
     40 HD32       -0.5850   -0.2790   -5.5880 hc        1 NIU      0.042200
     41 HD41       -2.2920    0.3010   -3.0670 hc        1 NIU      0.047200
     42 HD42       -2.6070   -1.0240   -4.2550 hc        1 NIU      0.047200
     43 HD51       -0.1480   -1.7990   -3.8080 hc        1 NIU      0.058700
     44 HD52       -1.4270   -2.1270   -2.5720 hc        1 NIU      0.058700
@<TRIPOS>BOND
     1    1    2 1   
     2    1    7 2   
     3    1   15 1   
     4    2    3 2   
     5    2    4 1   
     6    4    5 1   
     7    5    6 2   
     8    5   18 1   
     9    6    7 1   
    10    6   22 1   
    11    7    8 1   
    12    8   23 1   
    13    9   10 ar  
    14    9   14 ar  
    15    9   15 1   
    16   10   11 ar  
    17   10   24 1   
    18   11   12 ar  
    19   11   25 1   
    20   12   13 ar  
    21   12   26 1   
    22   13   14 ar  
    23   13   27 1   
    24   14   28 1   
    25   15   16 1   
    26   15   29 1   
    27   16   17 1   
    28   16   30 1   
    29   16   31 1   
    30   17   32 1   
    31   17   33 1   
    32   17   34 1   
    33   18   19 1   
    34   18   35 1   
    35   18   36 1   
    36   19   20 1   
    37   19   37 1   
    38   19   38 1   
    39   20   21 1   
    40   20   39 1   
    41   20   40 1   
    42   21   22 1   
    43   21   41 1   
    44   21   42 1   
    45   22   43 1   
    46   22   44 1   
@<TRIPOS>SUBSTRUCTURE
     1 NIU         1 TEMP              0 ****  ****    0 ROOT
