@<TRIPOS>MOLECULE
NIV
   34    37     1     0     0
SMALL
bcc


@<TRIPOS>ATOM
      1 C1         -0.1270    0.1330    0.1990 ca        1 NIV      0.392200
      2 C2          1.2690    0.0700    0.0700 ca        1 NIV     -0.232300
      3 C3          2.0550   -0.0110    1.2200 ca        1 NIV     -0.070300
      4 C4          1.4150   -0.0200    2.4900 ca        1 NIV     -0.037700
      5 N2          2.1900   -0.0760    3.6520 ns        1 NIV     -0.460100
      6 C5          1.8830   -0.7150    4.8450 c         1 NIV      0.737100
      7 O1          2.7110   -0.6170    5.7730 o         1 NIV     -0.633500
      8 C6          0.6600   -1.5390    4.9810 ca        1 NIV     -0.250900
      9 C7          0.7570   -2.7420    5.6920 ca        1 NIV     -0.034000
     10 C8         -0.3780   -3.5300    5.8600 ca        1 NIV     -0.269300
     11 C9         -1.5870   -3.0710    5.3070 ca        1 NIV      0.434200
     12 N3         -1.7190   -1.9210    4.6300 nb        1 NIV     -0.693000
     13 C10        -0.6100   -1.1380    4.4690 ca        1 NIV      0.647200
     14 N4         -0.6650    0.1360    3.8080 na        1 NIV     -0.694000
     15 C11        -0.0230    0.0690    2.5140 ca        1 NIV      0.576200
     16 N1         -0.7670    0.1230    1.3760 nb        1 NIV     -0.660000
     17 C12         3.5300   -0.0740    1.1060 c3        1 NIV     -0.061800
     18 C13        -1.8440    0.9510    3.8580 cx        1 NIV      0.152500
     19 C14        -3.2810    0.5440    3.6100 cx        1 NIV     -0.129900
     20 C15        -2.8460    0.9410    4.9910 cx        1 NIV     -0.129900
     21 H1         -0.7780    0.1920   -0.6920 h4        1 NIV      0.028100
     22 H2          1.7340    0.0800   -0.9250 ha        1 NIV      0.148000
     23 HN2         3.0630    0.4090    3.6230 hn        1 NIV      0.331500
     24 H7          1.7290   -3.0410    6.1180 ha        1 NIV      0.162000
     25 H8         -0.3380   -4.4790    6.4090 ha        1 NIV      0.152000
     26 H9         -2.5170   -3.6630    5.4070 h4        1 NIV      0.028100
     27 H121        3.9980    0.8380    1.5560 hc        1 NIV      0.052700
     28 H122        3.8460   -0.1320    0.0350 hc        1 NIV      0.052700
     29 H123        3.9310   -0.9740    1.6370 hc        1 NIV      0.052700
     30 H13        -1.5500    1.9580    3.4710 h1        1 NIV      0.094700
     31 H141       -3.9110    1.2360    3.0240 hc        1 NIV      0.078200
     32 H142       -3.5360   -0.5100    3.4040 hc        1 NIV      0.078200
     33 H151       -2.7960    0.1770    5.7850 hc        1 NIV      0.078200
     34 H152       -3.1570    1.9220    5.3940 hc        1 NIV      0.078200
@<TRIPOS>BOND
     1    1    2 ar  
     2    1   16 ar  
     3    1   21 1   
     4    2    3 ar  
     5    2   22 1   
     6    3    4 ar  
     7    3   17 1   
     8    4    5 1   
     9    4   15 ar  
    10    5    6 1   
    11    5   23 1   
    12    6    7 2   
    13    6    8 1   
    14    8    9 ar  
    15    8   13 ar  
    16    9   10 ar  
    17    9   24 1   
    18   10   11 ar  
    19   10   25 1   
    20   11   12 ar  
    21   11   26 1   
    22   12   13 ar  
    23   13   14 1   
    24   14   15 1   
    25   14   18 1   
    26   15   16 ar  
    27   17   27 1   
    28   17   28 1   
    29   17   29 1   
    30   18   19 1   
    31   18   20 1   
    32   18   30 1   
    33   19   20 1   
    34   19   31 1   
    35   19   32 1   
    36   20   33 1   
    37   20   34 1   
@<TRIPOS>SUBSTRUCTURE
     1 NIV         1 TEMP              0 ****  ****    0 ROOT
