@<TRIPOS>MOLECULE
NIV
   34    37     1     0     0
SMALL
bcc


@<TRIPOS>ATOM
      1 C1         -0.1280    0.1390    0.2010 ca        1 NIV      0.392200
      2 C2          1.2680    0.0720    0.0700 ca        1 NIV     -0.232300
      3 C3          2.0540   -0.0130    1.2190 ca        1 NIV     -0.070300
      4 C4          1.4160   -0.0220    2.4900 ca        1 NIV     -0.037700
      5 N2          2.1910   -0.0820    3.6510 n         1 NIV     -0.460100
      6 C5          1.8830   -0.7230    4.8430 c         1 NIV      0.737100
      7 O1          2.7130   -0.6290    5.7710 o         1 NIV     -0.633500
      8 C6          0.6580   -1.5440    4.9790 ca        1 NIV     -0.250900
      9 C7          0.7530   -2.7480    5.6880 ca        1 NIV     -0.034000
     10 C8         -0.3840   -3.5330    5.8550 ca        1 NIV     -0.269300
     11 C9         -1.5930   -3.0690    5.3040 ca        1 NIV      0.434200
     12 N3         -1.7220   -1.9180    4.6300 nb        1 NIV     -0.693000
     13 C10        -0.6110   -1.1380    4.4680 ca        1 NIV      0.647200
     14 N4         -0.6630    0.1370    3.8090 na        1 NIV     -0.694000
     15 C11        -0.0220    0.0710    2.5150 ca        1 NIV      0.576200
     16 N1         -0.7670    0.1290    1.3780 nb        1 NIV     -0.660000
     17 C12         3.5290   -0.0800    1.1030 c3        1 NIV     -0.061800
     18 C13        -1.8390    0.9560    3.8630 cx        1 NIV      0.152500
     19 C14        -3.2770    0.5530    3.6150 cx        1 NIV     -0.129900
     20 C15        -2.8410    0.9460    4.9960 cx        1 NIV     -0.129900
     21 H1         -0.7800    0.2020   -0.6900 h4        1 NIV      0.028100
     22 H2          1.7320    0.0830   -0.9250 ha        1 NIV      0.148000
     23 HN2         3.0660    0.4000    3.6220 hn        1 NIV      0.331500
     24 H7          1.7240   -3.0500    6.1120 ha        1 NIV      0.162000
     25 H8         -0.3470   -4.4830    6.4030 ha        1 NIV      0.152000
     26 H9         -2.5240   -3.6590    5.4040 h4        1 NIV      0.028100
     27 H121        3.8440   -0.1380    0.0320 hc        1 NIV      0.052700
     28 H122        3.9280   -0.9830    1.6320 hc        1 NIV      0.052700
     29 H123        4.0010    0.8300    1.5540 hc        1 NIV      0.052700
     30 H13        -1.5430    1.9630    3.4770 h1        1 NIV      0.094700
     31 H141       -3.5360   -0.4990    3.4080 hc        1 NIV      0.078200
     32 H142       -3.9060    1.2480    3.0310 hc        1 NIV      0.078200
     33 H151       -3.1480    1.9280    5.4020 hc        1 NIV      0.078200
     34 H152       -2.7920    0.1810    5.7890 hc        1 NIV      0.078200
@<TRIPOS>BOND
     1    1    2 ar  
     2    1   16 ar  
     3    1   21 1   
     4    2    3 ar  
     5    2   22 1   
     6    3    4 ar  
     7    3   17 1   
     8    4    5 1   
     9    4   15 ar  
    10    5    6 1   
    11    5   23 1   
    12    6    7 2   
    13    6    8 1   
    14    8    9 ar  
    15    8   13 ar  
    16    9   10 ar  
    17    9   24 1   
    18   10   11 ar  
    19   10   25 1   
    20   11   12 ar  
    21   11   26 1   
    22   12   13 ar  
    23   13   14 1   
    24   14   15 1   
    25   14   18 1   
    26   15   16 ar  
    27   17   27 1   
    28   17   28 1   
    29   17   29 1   
    30   18   19 1   
    31   18   20 1   
    32   18   30 1   
    33   19   20 1   
    34   19   31 1   
    35   19   32 1   
    36   20   33 1   
    37   20   34 1   
@<TRIPOS>SUBSTRUCTURE
     1 NIV         1 TEMP              0 ****  ****    0 ROOT
