@<TRIPOS>MOLECULE
NIV
   34    37     1     0     0
SMALL
bcc


@<TRIPOS>ATOM
      1 C1         -1.8910    0.9380    2.6150 ca        1 NIV      0.392200
      2 C2         -0.7850    0.8310    3.4710 ca        1 NIV     -0.232300
      3 C3          0.3830    0.2290    3.0020 ca        1 NIV     -0.070300
      4 C4          0.4130   -0.2650    1.6690 ca        1 NIV     -0.037700
      5 N2          1.5660   -0.8920    1.1910 n         1 NIV     -0.460100
      6 C5          2.0780   -0.8570   -0.0980 c         1 NIV      0.737100
      7 O1          3.1150   -1.5150   -0.3180 o         1 NIV     -0.633500
      8 C6          1.4590   -0.0130   -1.1460 ca        1 NIV     -0.250900
      9 C7          2.3110    0.6740   -2.0210 ca        1 NIV     -0.034000
     10 C8          1.7630    1.4570   -3.0320 ca        1 NIV     -0.269300
     11 C9          0.3610    1.5150   -3.1360 ca        1 NIV      0.434200
     12 N3         -0.4820    0.8630   -2.3240 nb        1 NIV     -0.693000
     13 C10         0.0480    0.0850   -1.3330 ca        1 NIV      0.647200
     14 N4         -0.7750   -0.6940   -0.4510 na        1 NIV     -0.694000
     15 C11        -0.7830   -0.1240    0.8770 ca        1 NIV      0.576200
     16 N1         -1.9020    0.4890    1.3530 nb        1 NIV     -0.660000
     17 C12         1.5600    0.1020    3.8920 c3        1 NIV     -0.061800
     18 C13        -2.0300   -1.2350   -0.8870 cx        1 NIV      0.152500
     19 C14        -3.1500   -0.5350   -1.6270 cx        1 NIV     -0.129900
     20 C15        -2.3540   -1.6040   -2.3180 cx        1 NIV     -0.129900
     21 H1         -2.8290    1.4140    2.9540 h4        1 NIV      0.028100
     22 H2         -0.8390    1.2200    4.4970 ha        1 NIV      0.148000
     23 HN2         2.0780   -1.4380    1.8550 hn        1 NIV      0.331500
     24 H7          3.4020    0.5740   -1.9010 ha        1 NIV      0.162000
     25 H8          2.4000    2.0100   -3.7340 ha        1 NIV      0.152000
     26 H9         -0.1230    2.1280   -3.9190 h4        1 NIV      0.028100
     27 H121        1.7820   -0.9760    4.0980 hc        1 NIV      0.052700
     28 H122        2.4640    0.5650    3.4210 hc        1 NIV      0.052700
     29 H123        1.3780    0.6110    4.8700 hc        1 NIV      0.052700
     30 H13        -2.3470   -1.9700   -0.1050 h1        1 NIV      0.094700
     31 H141       -4.1840   -0.7550   -1.3080 hc        1 NIV      0.078200
     32 H142       -3.0380    0.5150   -1.9470 hc        1 NIV      0.078200
     33 H151       -1.6750   -1.3290   -3.1420 hc        1 NIV      0.078200
     34 H152       -2.8130   -2.5960   -2.4870 hc        1 NIV      0.078200
@<TRIPOS>BOND
     1    1    2 ar  
     2    1   16 ar  
     3    1   21 1   
     4    2    3 ar  
     5    2   22 1   
     6    3    4 ar  
     7    3   17 1   
     8    4    5 1   
     9    4   15 ar  
    10    5    6 1   
    11    5   23 1   
    12    6    7 2   
    13    6    8 1   
    14    8    9 ar  
    15    8   13 ar  
    16    9   10 ar  
    17    9   24 1   
    18   10   11 ar  
    19   10   25 1   
    20   11   12 ar  
    21   11   26 1   
    22   12   13 ar  
    23   13   14 1   
    24   14   15 1   
    25   14   18 1   
    26   15   16 ar  
    27   17   27 1   
    28   17   28 1   
    29   17   29 1   
    30   18   19 1   
    31   18   20 1   
    32   18   30 1   
    33   19   20 1   
    34   19   31 1   
    35   19   32 1   
    36   20   33 1   
    37   20   34 1   
@<TRIPOS>SUBSTRUCTURE
     1 NIV         1 TEMP              0 ****  ****    0 ROOT
