@<TRIPOS>MOLECULE
NIX
   28    24     1     0     0
SMALL
bcc


@<TRIPOS>ATOM
      1 N1          0.4860    0.1300   -1.0520 n2        1 NIX     -0.197000
      2 C2          1.8570    0.1310   -1.0420 c1        1 NIX     -0.023000
      3 C3          2.5480    0.1140    0.1710 c1        1 NIX     -0.222000
      4 C4          1.8510    0.0940    1.3610 c1        1 NIX      0.325000
      5 O4          2.4540   -0.0420    2.4210 o         1 NIX     -0.318000
      6 C4A         0.4600    0.0930    1.3500 c1        1 NIX     -0.236000
      7 C5         -0.2470    0.0740    2.5450 c2        1 NIX     -0.015000
      8 C6         -1.6210    0.0720    2.5300 c1        1 NIX     -0.264000
      9 C7         -2.3040    0.0910    1.3180 c1        1 NIX      0.030000
     10 N8         -1.6060    0.1100    0.1350 n1        1 NIX     -0.222000
     11 C8A        -0.2200    0.1110    0.1470 c1        1 NIX      0.155000
     12 C9         -3.8450    0.1260    1.2370 c3        1 NIX     -0.170000
     13 C1E        -0.0400    0.3880   -2.3740 c3        1 NIX     -0.012000
     14 C2E        -0.1810   -0.9360   -3.1330 c3        1 NIX     -0.236000
     15 C1L         4.0570    0.1670    0.2780 c2        1 NIX      0.381000
     16 O1L         4.6630    1.2600    0.1100 o         1 NIX     -0.552500
     17 O2L         4.7100   -0.8850    0.5240 o         1 NIX     -0.552500
     18 H2          2.3560    0.1220   -1.8940 ha        1 NIX      0.169000
     19 H5          0.2330    0.1230    3.3980 ha        1 NIX      0.156000
     20 H6         -2.1120    0.1190    3.3600 ha        1 NIX      0.129000
     21 H91        -4.2130   -0.6920    1.6390 hc        1 NIX      0.083333
     22 H92        -4.1800    0.9090    1.7220 hc        1 NIX      0.083333
     23 H93        -4.1210    0.1810    0.2990 hc        1 NIX      0.083333
     24 HE11        0.5740    0.9800   -2.8600 h1        1 NIX      0.093500
     25 HE21       -0.9230    0.8190   -2.2990 h1        1 NIX      0.093500
     26 HE12       -1.1350   -1.1730   -3.2050 hc        1 NIX      0.080000
     27 HE22        0.2970   -1.6450   -2.6470 hc        1 NIX      0.080000
     28 HE32        0.2030   -0.8400   -4.0370 hc        1 NIX      0.080000
@<TRIPOS>BOND
     1    1    2 1   
     2    1   13 1   
     3    2   18 1   
     4    3    4 1   
     5    3   15 1   
     6    4    5 1   
     7    6    7 1   
     8    6   11 1   
     9    7    8 1   
    10    7   19 1   
    11    8   20 1   
    12    9   10 1   
    13    9   12 1   
    14   12   21 1   
    15   12   22 1   
    16   12   23 1   
    17   13   14 1   
    18   13   24 1   
    19   13   25 1   
    20   14   26 1   
    21   14   27 1   
    22   14   28 1   
    23   15   16 1   
    24   15   17 1   
@<TRIPOS>SUBSTRUCTURE
     1 NIX         1 TEMP              0 ****  ****    0 ROOT
