@<TRIPOS>MOLECULE
NIX
   28    29     1     0     0
SMALL
bcc


@<TRIPOS>ATOM
      1 N1          0.3400    8.7150    3.6380 na        1 NIX     -0.630100
      2 C2          1.7160    8.6980    3.3800 cc        1 NIX      0.059000
      3 C3          2.2730    8.5430    2.1530 cd        1 NIX     -0.260400
      4 C4          1.4280    8.3440    0.9800 c         1 NIX      0.603900
      5 O4          1.8160    8.0040   -0.1470 o         1 NIX     -0.557100
      6 C4A        -0.0210    8.5490    1.2300 ca        1 NIX     -0.321900
      7 C5         -0.9210    8.5480    0.1600 ca        1 NIX     -0.015000
      8 C6         -2.2760    8.7430    0.3880 ca        1 NIX     -0.329300
      9 C7         -2.7140    8.9430    1.7190 ca        1 NIX      0.452600
     10 N8         -1.8870    8.9540    2.7780 nb        1 NIX     -0.748000
     11 C8A        -0.5410    8.7530    2.5530 ca        1 NIX      0.676200
     12 C9         -4.1790    9.1610    1.9380 c3        1 NIX     -0.146400
     13 C1E        -0.1070    8.9630    4.9920 c3        1 NIX      0.224800
     14 C2E        -0.2900   10.4290    5.3590 c3        1 NIX     -0.118100
     15 C1L         3.8000    8.6060    2.0610 c         1 NIX      0.930800
     16 O1L         4.4440    7.9370    2.9170 o         1 NIX     -0.817800
     17 O2L         4.3110    9.3600    1.1940 o         1 NIX     -0.817800
     18 H2          2.3630    8.7870    4.2750 h4        1 NIX      0.169000
     19 H5         -0.5270    8.3870   -0.8570 ha        1 NIX      0.156000
     20 H6         -3.0000    8.7460   -0.4340 ha        1 NIX      0.129000
     21 H91        -4.7480    8.3090    1.4930 hc        1 NIX      0.044033
     22 H92        -4.4890   10.1050    1.4260 hc        1 NIX      0.044033
     23 H93        -4.4440    9.2400    3.0210 hc        1 NIX      0.044033
     24 HE11        0.6580    8.5100    5.6860 h1        1 NIX      0.054200
     25 HE21       -1.0800    8.4190    5.1600 h1        1 NIX      0.054200
     26 HE12       -1.0730   10.9060    4.7230 hc        1 NIX      0.040700
     27 HE22        0.6640   10.9950    5.2330 hc        1 NIX      0.040700
     28 HE32       -0.6080   10.4940    6.4270 hc        1 NIX      0.040700
@<TRIPOS>BOND
     1    1    2 1   
     2    1   11 1   
     3    1   13 1   
     4    2    3 2   
     5    2   18 1   
     6    3    4 1   
     7    3   15 1   
     8    4    5 2   
     9    4    6 1   
    10    6    7 ar  
    11    6   11 ar  
    12    7    8 ar  
    13    7   19 1   
    14    8    9 ar  
    15    8   20 1   
    16    9   10 ar  
    17    9   12 1   
    18   10   11 ar  
    19   12   21 1   
    20   12   22 1   
    21   12   23 1   
    22   13   14 1   
    23   13   24 1   
    24   13   25 1   
    25   14   26 1   
    26   14   27 1   
    27   14   28 1   
    28   15   16 1   
    29   15   17 1   
@<TRIPOS>SUBSTRUCTURE
     1 NIX         1 TEMP              0 ****  ****    0 ROOT
