@<TRIPOS>MOLECULE
NIX
   28    29     1     0     0
SMALL
bcc


@<TRIPOS>ATOM
      1 N1         -0.0160    0.1110    0.0080 na        1 NIX     -0.630100
      2 C2          1.3790   -0.0070    0.0190 cc        1 NIX      0.059000
      3 C3          2.1500    0.0040    1.1350 cd        1 NIX     -0.260400
      4 C4          1.5410    0.1800    2.4490 c         1 NIX      0.603900
      5 O4          2.1470    0.3970    3.5090 o         1 NIX     -0.557100
      6 C4A         0.0580    0.1170    2.4480 ca        1 NIX     -0.321900
      7 C5         -0.6420    0.1080    3.6590 ca        1 NIX     -0.015000
      8 C6         -2.0280    0.0440    3.6630 ca        1 NIX     -0.329300
      9 C7         -2.7040   -0.0140    2.4210 ca        1 NIX      0.452600
     10 N8         -2.0760   -0.0100    1.2330 nb        1 NIX     -0.748000
     11 C8A        -0.6980    0.0610    1.2280 ca        1 NIX      0.676200
     12 C9         -4.2000   -0.0940    2.4510 c3        1 NIX     -0.146400
     13 C1E        -0.7110    0.0090   -1.2570 c3        1 NIX      0.224800
     14 C2E        -1.0930   -1.4020   -1.6780 c3        1 NIX     -0.118100
     15 C1L         3.6570   -0.1930    0.9500 c         1 NIX      0.930800
     16 O1L         4.2050    0.4840    0.0350 o         1 NIX     -0.817800
     17 O2L         4.2340   -1.0500    1.6650 o         1 NIX     -0.817800
     18 H2          1.8510   -0.0790   -0.9810 h4        1 NIX      0.169000
     19 H5         -0.0660    0.1540    4.5980 ha        1 NIX      0.156000
     20 H6         -2.5980    0.0360    4.5990 ha        1 NIX      0.129000
     21 H91        -4.5040   -1.0660    2.9120 hc        1 NIX      0.043700
     22 H92        -4.6000    0.7400    3.0780 hc        1 NIX      0.043700
     23 H93        -4.6540   -0.0250    1.4330 hc        1 NIX      0.043700
     24 HE11       -1.6410    0.6440   -1.2150 h1        1 NIX      0.054200
     25 HE21       -0.0350    0.4510   -2.0470 h1        1 NIX      0.054200
     26 HE12       -1.7980   -1.8620   -0.9450 hc        1 NIX      0.040700
     27 HE22       -1.5930   -1.3570   -2.6750 hc        1 NIX      0.040700
     28 HE32       -0.1900   -2.0540   -1.7590 hc        1 NIX      0.040700
@<TRIPOS>BOND
     1    1    2 1   
     2    1   11 1   
     3    1   13 1   
     4    2    3 2   
     5    2   18 1   
     6    3    4 1   
     7    3   15 1   
     8    4    5 2   
     9    4    6 1   
    10    6    7 ar  
    11    6   11 ar  
    12    7    8 ar  
    13    7   19 1   
    14    8    9 ar  
    15    8   20 1   
    16    9   10 ar  
    17    9   12 1   
    18   10   11 ar  
    19   12   21 1   
    20   12   22 1   
    21   12   23 1   
    22   13   14 1   
    23   13   24 1   
    24   13   25 1   
    25   14   26 1   
    26   14   27 1   
    27   14   28 1   
    28   15   16 1   
    29   15   17 1   
@<TRIPOS>SUBSTRUCTURE
     1 NIX         1 TEMP              0 ****  ****    0 ROOT
