@<TRIPOS>MOLECULE
NIX
   28    29     1     0     0
SMALL
bcc


@<TRIPOS>ATOM
      1 N1         -0.0190    0.1210    0.0100 na        1 NIX     -0.630100
      2 C2          1.3770    0.0050    0.0180 cc        1 NIX      0.059000
      3 C3          2.1500    0.0060    1.1320 cd        1 NIX     -0.260400
      4 C4          1.5430    0.1690    2.4490 c         1 NIX      0.603900
      5 O4          2.1500    0.3770    3.5100 o         1 NIX     -0.557100
      6 C4A         0.0600    0.1040    2.4490 ca        1 NIX     -0.321900
      7 C5         -0.6380    0.0840    3.6610 ca        1 NIX     -0.015000
      8 C6         -2.0240    0.0180    3.6670 ca        1 NIX     -0.329300
      9 C7         -2.7020   -0.0290    2.4260 ca        1 NIX      0.452600
     10 N8         -2.0760   -0.0130    1.2380 nb        1 NIX     -0.748000
     11 C8A        -0.6980    0.0590    1.2310 ca        1 NIX      0.676200
     12 C9         -4.1980   -0.1080    2.4590 c3        1 NIX     -0.146400
     13 C1E        -0.7150    0.0300   -1.2550 c3        1 NIX      0.224800
     14 C2E        -1.0960   -1.3790   -1.6880 c3        1 NIX     -0.118100
     15 C1L         3.6560   -0.1870    0.9430 c         1 NIX      0.930800
     16 O1L         4.2030    0.5010    0.0350 o         1 NIX     -0.817800
     17 O2L         4.2360   -1.0520    1.6470 o         1 NIX     -0.817800
     18 H2          1.8470   -0.0570   -0.9830 h4        1 NIX      0.169000
     19 H5         -0.0600    0.1220    4.6000 ha        1 NIX      0.156000
     20 H6         -2.5920    0.0010    4.6040 ha        1 NIX      0.129000
     21 H91        -4.5020   -1.0610    2.9580 hc        1 NIX      0.044033
     22 H92        -4.5970    0.7510    3.0520 hc        1 NIX      0.044033
     23 H93        -4.6520   -0.0790    1.4390 hc        1 NIX      0.044033
     24 HE11       -1.6460    0.6630   -1.2060 h1        1 NIX      0.054200
     25 HE21       -0.0410    0.4790   -2.0420 h1        1 NIX      0.054200
     26 HE12       -1.7990   -1.8450   -0.9570 hc        1 NIX      0.040700
     27 HE22       -1.5980   -1.3240   -2.6830 hc        1 NIX      0.040700
     28 HE32       -0.1930   -2.0280   -1.7770 hc        1 NIX      0.040700
@<TRIPOS>BOND
     1    1    2 1   
     2    1   11 1   
     3    1   13 1   
     4    2    3 2   
     5    2   18 1   
     6    3    4 1   
     7    3   15 1   
     8    4    5 2   
     9    4    6 1   
    10    6    7 ar  
    11    6   11 ar  
    12    7    8 ar  
    13    7   19 1   
    14    8    9 ar  
    15    8   20 1   
    16    9   10 ar  
    17    9   12 1   
    18   10   11 ar  
    19   12   21 1   
    20   12   22 1   
    21   12   23 1   
    22   13   14 1   
    23   13   24 1   
    24   13   25 1   
    25   14   26 1   
    26   14   27 1   
    27   14   28 1   
    28   15   16 1   
    29   15   17 1   
@<TRIPOS>SUBSTRUCTURE
     1 NIX         1 TEMP              0 ****  ****    0 ROOT
