@<TRIPOS>MOLECULE
NIY
   25    25     1     0     0
SMALL
bcc


@<TRIPOS>ATOM
      1 N          -0.3410    0.2080    3.1790 n3        1 NIY     -0.888800
      2 CA          0.9070    0.3480    2.4380 c3        1 NIY      0.017500
      3 C           0.8140    1.3050    1.2020 c         1 NIY      0.888600
      4 O          -0.2220    2.0170    1.0860 o         1 NIY     -0.837300
      5 CB          1.4750   -1.0090    1.9860 c3        1 NIY     -0.020100
      6 CG          2.9000   -1.1710    2.3880 ca        1 NIY     -0.090300
      7 CD1         3.8880   -0.4160    1.7480 ca        1 NIY     -0.028000
      8 CD2         3.2620   -2.0710    3.3960 ca        1 NIY     -0.066000
      9 CE1         5.2410   -0.5770    2.1060 ca        1 NIY     -0.261200
     10 CE2         4.5900   -2.2260    3.7720 ca        1 NIY     -0.196000
     11 CZ          5.5980   -1.4800    3.1370 ca        1 NIY      0.179100
     12 OH          6.8670   -1.7550    3.5740 oh        1 NIY     -0.517100
     13 NN          6.2580    0.2120    1.3850 no        1 NIY      0.320200
     14 O1          5.9800    0.7610    0.3570 o         1 NIY     -0.231000
     15 O2          7.3810    0.2840    1.8410 o         1 NIY     -0.231000
     16 OXT         1.7890    1.3230    0.3990 o         1 NIY     -0.837300
     17 H          -0.6960    1.1370    3.3350 hn        1 NIY      0.334800
     18 H2         -1.0110   -0.2520    2.5870 hn        1 NIY      0.334800
     19 HA          1.6410    0.8320    3.1460 h1        1 NIY      0.045700
     20 HB2         0.8760   -1.8620    2.4030 hc        1 NIY      0.052200
     21 HB3         1.4090   -1.0620    0.8640 hc        1 NIY      0.052200
     22 HD1         3.5680    0.3190    0.9670 ha        1 NIY      0.243000
     23 HD2         2.4810   -2.6570    3.9080 ha        1 NIY      0.139000
     24 HE2         4.8780   -2.9270    4.5680 ha        1 NIY      0.144000
     25 HH          7.4870   -1.0670    3.2860 ho        1 NIY      0.455000
@<TRIPOS>BOND
     1    1    2 1   
     2    1   17 1   
     3    1   18 1   
     4    2    3 1   
     5    2    5 1   
     6    2   19 1   
     7    3    4 1   
     8    3   16 1   
     9    5    6 1   
    10    5   20 1   
    11    5   21 1   
    12    6    7 ar  
    13    6    8 ar  
    14    7    9 ar  
    15    7   22 1   
    16    8   10 ar  
    17    8   23 1   
    18    9   11 ar  
    19    9   13 1   
    20   10   11 ar  
    21   10   24 1   
    22   11   12 1   
    23   12   25 1   
    24   13   14 1   
    25   13   15 1   
@<TRIPOS>SUBSTRUCTURE
     1 NIY         1 TEMP              0 ****  ****    0 ROOT
