@<TRIPOS>MOLECULE
NIZ
   19    18     1     0     0
SMALL
bcc


@<TRIPOS>ATOM
      1 C         712.6210 -413.8090  514.8740 c1        1 NIZ      0.779600
      2 C1        713.0250 -414.2650  516.1300 cc        1 NIZ     -0.212100
      3 N1        713.8370 -415.1820  518.6550 n2        1 NIZ     -0.185000
      4 O1        712.2860 -413.4320  513.8330 o         1 NIZ     -0.123500
      5 C2        712.0740 -414.7970  517.0300 cc        1 NIZ     -0.069000
      6 N2      -1219.5040  711.5710 -887.0230 n3        1 NIZ     -0.673600
      7 C3        712.5440 -415.2400  518.2820 cd        1 NIZ      0.033000
      8 N3      -1220.2940  710.6240 -887.6640 n4        1 NIZ     -0.609400
      9 C4        714.7300 -414.6730  517.7850 cd        1 NIZ      0.033000
     10 C5        714.3860 -414.1970  516.5050 cc        1 NIZ     -0.069000
     11 H2        711.0040 -414.8680  516.7790 ha        1 NIZ      0.188000
     12 H3        711.8410 -415.6670  519.0290 h4        1 NIZ      0.219000
     13 HN3     -1220.9610  710.9960 -888.3610 hn        1 NIZ      0.474800
     14 H4        715.7850 -414.6430  518.1320 h4        1 NIZ      0.219000
     15 H5        715.1590 -413.7900  515.8340 ha        1 NIZ      0.188000
     16 H6      -1220.0750  712.2300 -886.5020 hn        1 NIZ      0.429800
     17 H7      -1219.6600  709.9490 -888.1330 hn        1 NIZ      0.474800
     18 H22     -1218.9240  712.0720 -887.6880 hn        1 NIZ      0.429800
     19 H33     -1220.8230  710.1080 -886.9360 hn        1 NIZ      0.474800
@<TRIPOS>BOND
     1    1    2 2   
     2    1    4 2   
     3    2    5 1   
     4    2   10 1   
     5    3    7 1   
     6    3    9 1   
     7    5    7 2   
     8    5   11 1   
     9    6    8 1   
    10    6   16 1   
    11    6   18 1   
    12    7   12 1   
    13    8   13 1   
    14    8   17 1   
    15    8   19 1   
    16    9   10 2   
    17    9   14 1   
    18   10   15 1   
@<TRIPOS>SUBSTRUCTURE
     1 NIZ         1 TEMP              0 ****  ****    0 ROOT
