@<TRIPOS>MOLECULE
NIZ
   17    14     1     0     0
SMALL
bcc


@<TRIPOS>ATOM
      1 C          -1.2290    0.1240   -0.3810 c1        1 NIZ      0.305000
      2 C1          0.2840    0.1360   -0.4040 c1        1 NIZ     -0.085000
      3 N1          3.0330    0.1060   -0.4490 n1        1 NIZ     -0.120000
      4 O1         -1.8530    0.2040   -1.4200 o         1 NIZ     -0.347000
      5 C2          0.9850    0.0480    0.7640 c1        1 NIZ     -0.151000
      6 N2         -1.9190    0.0230    0.8540 n3        1 NIZ     -0.310000
      7 C3          2.3710    0.0330    0.7400 c2        1 NIZ     -0.077000
      8 N3         -3.1520   -0.6060    0.9090 n3        1 NIZ     -0.193000
      9 C4          2.3340    0.1940   -1.6150 c1        1 NIZ     -0.077000
     10 C5          0.9480    0.2090   -1.5940 c2        1 NIZ     -0.131000
     11 H2          0.5110   -0.0040    1.6150 DU        1 NIZ      0.154000
     12 H3          2.8730   -0.0290    1.5750 h4        1 NIZ      0.166000
     13 HN3        -3.7860   -0.0090    1.1940 hn        1 NIZ      0.147000
     14 H4          2.8100    0.2460   -2.4660 ha        1 NIZ      0.167000
     15 H5          0.4480    0.2720   -2.4290 ha        1 NIZ      0.165000
     16 H6         -1.5470    0.3630    1.6140 hn        1 NIZ      0.240000
     17 H7         -3.1110   -1.3100    1.4930 hn        1 NIZ      0.147000
@<TRIPOS>BOND
     1    1    4 1   
     2    1    6 1   
     3    2    5 1   
     4    2   10 1   
     5    3    7 1   
     6    5    7 1   
     7    6    8 1   
     8    6   16 1   
     9    7   12 1   
    10    8   13 1   
    11    8   17 1   
    12    9   10 1   
    13    9   14 1   
    14   10   15 1   
@<TRIPOS>SUBSTRUCTURE
     1 NIZ         1 TEMP              0 ****  ****    0 ROOT
