@<TRIPOS>MOLECULE
NIZ
   19    18     1     0     0
SMALL
bcc


@<TRIPOS>ATOM
      1 C         615.8990 -311.5240  436.0420 c1        1 NIZ      0.779600
      2 C1        614.9910 -311.4320  434.9850 cc        1 NIZ     -0.212100
      3 N1        613.1660 -311.2490  432.8610 n2        1 NIZ     -0.185000
      4 O1        616.6510 -311.6000  436.9180 o         1 NIZ     -0.123500
      5 C2        613.9740 -310.4500  435.0080 cc        1 NIZ     -0.069000
      6 N2      -1049.9900  533.6670 -746.1840 n8        1 NIZ     -0.673600
      7 C3        613.0900 -310.4100  433.9130 cd        1 NIZ      0.033000
      8 N3      -1050.8730  534.6880 -745.8530 nz        1 NIZ     -0.609400
      9 C4        614.1410 -312.1780  432.8570 cd        1 NIZ      0.033000
     10 C5        615.0860 -312.3210  433.8900 cc        1 NIZ     -0.069000
     11 H2        613.8650 -309.7380  435.8410 ha        1 NIZ      0.188000
     12 H3        612.2710 -309.6590  433.8770 h4        1 NIZ      0.219000
     13 HN3     -1051.6580  534.4180 -745.2360 hn        1 NIZ      0.474800
     14 H4        614.1680 -312.8500  431.9720 h4        1 NIZ      0.219000
     15 H5        615.8630 -313.1000  433.8340 ha        1 NIZ      0.188000
     16 H6      -1050.4650  532.9220 -746.6840 hn        1 NIZ      0.429800
     17 H7      -1050.3280  535.4410 -745.3920 hn        1 NIZ      0.474800
     18 H22     -1049.5410  533.2910 -745.3540 hn        1 NIZ      0.429800
     19 H33     -1051.2580  535.0720 -746.7370 hn        1 NIZ      0.474800
@<TRIPOS>BOND
     1    1    2 2   
     2    1    4 2   
     3    2    5 1   
     4    2   10 1   
     5    3    7 1   
     6    3    9 1   
     7    5    7 2   
     8    5   11 1   
     9    6    8 1   
    10    6   16 1   
    11    6   18 1   
    12    7   12 1   
    13    8   13 1   
    14    8   17 1   
    15    8   19 1   
    16    9   10 2   
    17    9   14 1   
    18   10   15 1   
@<TRIPOS>SUBSTRUCTURE
     1 NIZ         1 TEMP              0 ****  ****    0 ROOT
