@<TRIPOS>MOLECULE
NIZ
   19    18     1     0     0
SMALL
bcc


@<TRIPOS>ATOM
      1 C         551.8630 -166.3870 -357.0400 c1        1 NIZ      0.779600
      2 C1        551.1600 -167.5930 -357.0380 cc        1 NIZ     -0.212100
      3 N1        549.7490 -170.0190 -357.0330 n2        1 NIZ     -0.185000
      4 O1        552.4450 -165.3870 -357.0420 o         1 NIZ     -0.123500
      5 C2        551.7320 -168.7470 -357.6220 cc        1 NIZ     -0.069000
      6 N2       -940.6980  288.2160  613.2080 n3        1 NIZ     -0.673600
      7 C3        550.9730 -169.9330 -357.5880 cd        1 NIZ      0.033000
      8 N3       -942.0800  288.0880  613.2800 n4        1 NIZ     -0.609400
      9 C4        549.2190 -168.9100 -356.4810 cd        1 NIZ      0.033000
     10 C5        549.8760 -167.6650 -356.4520 cc        1 NIZ     -0.069000
     11 H2        552.7290 -168.7350 -358.0890 ha        1 NIZ      0.188000
     12 H3        551.3730 -170.8700 -358.0310 h4        1 NIZ      0.219000
     13 HN3      -942.2910  287.1520  613.6730 hn        1 NIZ      0.474800
     14 H4        548.2080 -169.0240 -356.0360 h4        1 NIZ      0.219000
     15 H5        549.3950 -166.7900 -355.9860 ha        1 NIZ      0.188000
     16 H6       -940.2780  288.1450  614.1300 hn        1 NIZ      0.429800
     17 H7       -942.5670  288.8050  613.8440 hn        1 NIZ      0.474800
     18 H22      -940.4360  289.0980  612.7790 hn        1 NIZ      0.429800
     19 H33      -942.4510  288.1150  612.3110 hn        1 NIZ      0.474800
@<TRIPOS>BOND
     1    1    2 2   
     2    1    4 2   
     3    2    5 1   
     4    2   10 1   
     5    3    7 1   
     6    3    9 1   
     7    5    7 2   
     8    5   11 1   
     9    6    8 1   
    10    6   16 1   
    11    6   18 1   
    12    7   12 1   
    13    8   13 1   
    14    8   17 1   
    15    8   19 1   
    16    9   10 2   
    17    9   14 1   
    18   10   15 1   
@<TRIPOS>SUBSTRUCTURE
     1 NIZ         1 TEMP              0 ****  ****    0 ROOT
