@<TRIPOS>MOLECULE
NIZ
   17    17     1     0     0
SMALL
bcc


@<TRIPOS>ATOM
      1 C          -1.2520   -0.1980    0.3760 c         1 NIZ      0.631700
      2 C1          0.2120   -0.0130    0.1840 ca        1 NIZ     -0.105600
      3 N1          2.9970    0.2350   -0.1630 nb        1 NIZ     -0.646000
      4 O1         -1.7220   -1.1780    0.9860 o         1 NIZ     -0.586100
      5 C2          0.8170    1.2480    0.1870 ca        1 NIZ     -0.206300
      6 N2         -2.0950    0.8140   -0.1170 n         1 NIZ     -0.433300
      7 C3          2.2120    1.3160    0.0110 ca        1 NIZ      0.388200
      8 N3         -3.4490    0.7020   -0.1890 n3        1 NIZ     -0.632800
      9 C4          2.3970   -0.9720   -0.1570 ca        1 NIZ      0.388200
     10 C5          1.0130   -1.1510    0.0170 ca        1 NIZ     -0.206300
     11 H2          0.2380    2.1690    0.3400 ha        1 NIZ      0.159500
     12 H3          2.7320    2.2910    0.0100 h4        1 NIZ      0.029600
     13 HN3        -3.7160   -0.2570   -0.3950 hn        1 NIZ      0.351800
     14 H4          3.0640   -1.8420   -0.2940 h4        1 NIZ      0.029600
     15 H5          0.5670   -2.1550    0.0350 ha        1 NIZ      0.159500
     16 H6         -1.7330    1.3690   -0.8710 hn        1 NIZ      0.326500
     17 H7         -3.8280    0.9080    0.7300 hn        1 NIZ      0.351800
@<TRIPOS>BOND
     1    1    2 1   
     2    1    4 2   
     3    1    6 1   
     4    2    5 ar  
     5    2   10 ar  
     6    3    7 ar  
     7    3    9 ar  
     8    5    7 ar  
     9    5   11 1   
    10    6    8 1   
    11    6   16 1   
    12    7   12 1   
    13    8   13 1   
    14    8   17 1   
    15    9   10 ar  
    16    9   14 1   
    17   10   15 1   
@<TRIPOS>SUBSTRUCTURE
     1 NIZ         1 TEMP              0 ****  ****    0 ROOT
