@<TRIPOS>MOLECULE
NJ8
   34    35     1     0     0
SMALL
bcc


@<TRIPOS>ATOM
      1 C1         -0.1410    0.1320   -0.1440 ca        1 NJ8     -0.210000
      2 C2          1.2540    0.0760   -0.1840 ca        1 NJ8     -0.027300
      3 C3          1.9780   -0.0880    1.0050 ca        1 NJ8     -0.159000
      4 C4          1.3230   -0.1930    2.2270 ca        1 NJ8     -0.090000
      5 C5         -0.0750   -0.1350    2.2720 ca        1 NJ8      0.034100
      6 C6         -0.8140    0.0260    1.0830 ca        1 NJ8      0.132100
      7 O7         -0.7130   -0.0740    3.5110 os        1 NJ8     -0.215200
      8 C8         -1.1660   -1.2740    4.0320 ca        1 NJ8      0.161100
      9 C9         -1.8490   -1.2050    5.2660 ca        1 NJ8     -0.017600
     10 C10        -2.3210   -2.3810    5.8520 ca        1 NJ8     -0.062000
     11 C11        -2.1180   -3.6160    5.2220 ca        1 NJ8     -0.048000
     12 C12        -1.4400   -3.6770    3.9960 ca        1 NJ8     -0.058000
     13 C13        -0.9660   -2.5130    3.4050 ca        1 NJ8     -0.190000
     14 C15        -2.6020   -4.8060    5.8270 cg        1 NJ8      0.237800
     15 CL16       -2.1170    0.2670    6.0660 cl        1 NJ8     -0.059400
     16 O17        -2.1810    0.0630    1.1850 oh        1 NJ8     -0.477100
     17 N20        -2.9980   -5.7820    6.3210 n1        1 NJ8     -0.364800
     18 C21         1.9720    0.1830   -1.4840 c3        1 NJ8     -0.043100
     19 C22         2.6660    1.5240   -1.6340 c3        1 NJ8     -0.077400
     20 C23         3.4180    1.6060   -2.9370 c3        1 NJ8     -0.095100
     21 H1         -0.7180    0.2630   -1.0710 ha        1 NJ8      0.141000
     22 H3          3.0780   -0.1290    0.9690 ha        1 NJ8      0.143000
     23 H4          1.8880   -0.3110    3.1640 ha        1 NJ8      0.154000
     24 H10        -2.8570   -2.3370    6.8150 ha        1 NJ8      0.160000
     25 H12        -1.2820   -4.6480    3.5010 ha        1 NJ8      0.149000
     26 H13        -0.4370   -2.5560    2.4410 ha        1 NJ8      0.156000
     27 HO17       -2.5430    0.2290    0.3010 ho        1 NJ8      0.424000
     28 H21         2.7350   -0.6400   -1.5510 hc        1 NJ8      0.052200
     29 H21A        1.2540    0.0390   -2.3350 hc        1 NJ8      0.052200
     30 H22         3.3750    1.6730   -0.7760 hc        1 NJ8      0.045700
     31 H22A        1.9060    2.3470   -1.5830 hc        1 NJ8      0.045700
     32 H23         2.7230    1.4790   -3.8030 hc        1 NJ8      0.035367
     33 H23A        4.1980    0.8080   -2.9950 hc        1 NJ8      0.035367
     34 H23B        3.9210    2.5980   -3.0310 hc        1 NJ8      0.035367
@<TRIPOS>BOND
     1    1    2 ar  
     2    1    6 ar  
     3    1   21 1   
     4    2    3 ar  
     5    2   18 1   
     6    3    4 ar  
     7    3   22 1   
     8    4    5 ar  
     9    4   23 1   
    10    5    6 ar  
    11    5    7 1   
    12    6   16 1   
    13    7    8 1   
    14    8    9 ar  
    15    8   13 ar  
    16    9   10 ar  
    17    9   15 1   
    18   10   11 ar  
    19   10   24 1   
    20   11   12 ar  
    21   11   14 1   
    22   12   13 ar  
    23   12   25 1   
    24   13   26 1   
    25   14   17 3   
    26   16   27 1   
    27   18   19 1   
    28   18   28 1   
    29   18   29 1   
    30   19   20 1   
    31   19   30 1   
    32   19   31 1   
    33   20   32 1   
    34   20   33 1   
    35   20   34 1   
@<TRIPOS>SUBSTRUCTURE
     1 NJ8         1 TEMP              0 ****  ****    0 ROOT
