@<TRIPOS>MOLECULE
NJ8
   34    35     1     0     0
SMALL
bcc


@<TRIPOS>ATOM
      1 C1          3.0140    0.1630    1.1510 ca        1 NJ8     -0.154000
      2 C2          3.5040    0.5410   -0.1000 ca        1 NJ8     -0.036300
      3 C3          2.6880    0.4380   -1.2360 ca        1 NJ8     -0.156000
      4 C4          1.3840   -0.0360   -1.1330 ca        1 NJ8     -0.098000
      5 C5          0.8880   -0.4070    0.1200 ca        1 NJ8     -0.019900
      6 C6          1.6990   -0.3150    1.2680 ca        1 NJ8      0.142100
      7 O7         -0.3610   -1.0150    0.2690 os        1 NJ8     -0.240200
      8 C8         -1.4700   -0.2140    0.0380 ca        1 NJ8      0.142100
      9 C9         -2.7190   -0.8700   -0.0080 ca        1 NJ8     -0.017600
     10 C10        -3.8770   -0.1160   -0.2080 ca        1 NJ8     -0.063000
     11 C11        -3.7980    1.2740   -0.3630 ca        1 NJ8     -0.039000
     12 C12        -2.5530    1.9180   -0.3170 ca        1 NJ8     -0.059000
     13 C13        -1.3940    1.1770   -0.1180 ca        1 NJ8     -0.187000
     14 C15        -4.9820    2.0310   -0.5680 cg        1 NJ8      0.233800
     15 CL16       -2.8610   -2.5500    0.1760 cl        1 NJ8     -0.056400
     16 O17         1.2700   -0.6810    2.5180 oh        1 NJ8     -0.488100
     17 N20        -5.9520    2.6520   -0.7360 n1        1 NJ8     -0.356800
     18 C21         4.8960    1.0560   -0.2210 c3        1 NJ8     -0.043100
     19 C22         5.9210   -0.0550   -0.0840 c3        1 NJ8     -0.077400
     20 C23         7.3250    0.4830   -0.1760 c3        1 NJ8     -0.094100
     21 H1          3.6420    0.2320    2.0510 ha        1 NJ8      0.158000
     22 H3          3.0820    0.7320   -2.2200 ha        1 NJ8      0.142000
     23 H4          0.7410   -0.1240   -2.0210 ha        1 NJ8      0.150000
     24 H10        -4.8580   -0.6180   -0.2450 ha        1 NJ8      0.163000
     25 H12        -2.4920    3.0110   -0.4380 ha        1 NJ8      0.153000
     26 H13        -0.4140    1.6790   -0.0830 ha        1 NJ8      0.162000
     27 HO17        0.3730   -1.0430    2.4320 ho        1 NJ8      0.438000
     28 H21         5.0330    1.5660   -1.2120 hc        1 NJ8      0.052700
     29 H21A        5.0760    1.8270    0.5770 hc        1 NJ8      0.052700
     30 H22         5.7760   -0.5740    0.9010 hc        1 NJ8      0.046200
     31 H22A        5.7540   -0.8190   -0.8880 hc        1 NJ8      0.046200
     32 H23         7.4920    0.9850   -1.1590 hc        1 NJ8      0.035033
     33 H23A        7.5170    1.2280    0.6340 hc        1 NJ8      0.035033
     34 H23B        8.0640   -0.3480   -0.0740 hc        1 NJ8      0.035033
@<TRIPOS>BOND
     1    1    2 ar  
     2    1    6 ar  
     3    1   21 1   
     4    2    3 ar  
     5    2   18 1   
     6    3    4 ar  
     7    3   22 1   
     8    4    5 ar  
     9    4   23 1   
    10    5    6 ar  
    11    5    7 1   
    12    6   16 1   
    13    7    8 1   
    14    8    9 ar  
    15    8   13 ar  
    16    9   10 ar  
    17    9   15 1   
    18   10   11 ar  
    19   10   24 1   
    20   11   12 ar  
    21   11   14 1   
    22   12   13 ar  
    23   12   25 1   
    24   13   26 1   
    25   14   17 3   
    26   16   27 1   
    27   18   19 1   
    28   18   28 1   
    29   18   29 1   
    30   19   20 1   
    31   19   30 1   
    32   19   31 1   
    33   20   32 1   
    34   20   33 1   
    35   20   34 1   
@<TRIPOS>SUBSTRUCTURE
     1 NJ8         1 TEMP              0 ****  ****    0 ROOT
