@<TRIPOS>MOLECULE
NJ8
   34    35     1     0     0
SMALL
bcc


@<TRIPOS>ATOM
      1 C1         -0.1390    0.1290   -0.1450 ca        1 NJ8     -0.210000
      2 C2          1.2560    0.0750   -0.1830 ca        1 NJ8     -0.027300
      3 C3          1.9790   -0.0860    1.0070 ca        1 NJ8     -0.159000
      4 C4          1.3220   -0.1910    2.2280 ca        1 NJ8     -0.090000
      5 C5         -0.0750   -0.1340    2.2720 ca        1 NJ8      0.034100
      6 C6         -0.8130    0.0240    1.0810 ca        1 NJ8      0.132100
      7 O7         -0.7150   -0.0730    3.5100 os        1 NJ8     -0.215200
      8 C8         -1.1680   -1.2730    4.0320 ca        1 NJ8      0.161100
      9 C9         -1.8540   -1.2030    5.2640 ca        1 NJ8     -0.017600
     10 C10        -2.3260   -2.3790    5.8510 ca        1 NJ8     -0.062000
     11 C11        -2.1200   -3.6140    5.2220 ca        1 NJ8     -0.048000
     12 C12        -1.4390   -3.6760    3.9980 ca        1 NJ8     -0.058000
     13 C13        -0.9650   -2.5120    3.4070 ca        1 NJ8     -0.190000
     14 C15        -2.6040   -4.8040    5.8280 cg        1 NJ8      0.237800
     15 Cl16       -2.1250    0.2690    6.0620 cl        1 NJ8     -0.059400
     16 O17        -2.1810    0.0590    1.1820 oh        1 NJ8     -0.477100
     17 N20        -3.0000   -5.7800    6.3220 n1        1 NJ8     -0.364800
     18 C21         1.9750    0.1810   -1.4820 c3        1 NJ8     -0.043100
     19 C22         2.6670    1.5230   -1.6340 c3        1 NJ8     -0.077400
     20 C23         3.4200    1.6050   -2.9370 c3        1 NJ8     -0.095100
     21 H1         -0.7160    0.2580   -1.0730 ha        1 NJ8      0.141000
     22 H3          3.0780   -0.1260    0.9720 ha        1 NJ8      0.143000
     23 H4          1.8870   -0.3060    3.1660 ha        1 NJ8      0.154000
     24 H10        -2.8630   -2.3340    6.8120 ha        1 NJ8      0.160000
     25 H12        -1.2790   -4.6470    3.5040 ha        1 NJ8      0.149000
     26 H13        -0.4340   -2.5560    2.4440 ha        1 NJ8      0.156000
     27 HO17       -2.5420    0.2230    0.2970 ho        1 NJ8      0.424000
     28 H21         2.7400   -0.6400   -1.5480 hc        1 NJ8      0.052200
     29 H21A        1.2580    0.0350   -2.3350 hc        1 NJ8      0.052200
     30 H22         3.3740    1.6750   -0.7760 hc        1 NJ8      0.045700
     31 H22A        1.9050    2.3450   -1.5850 hc        1 NJ8      0.045700
     32 H23         2.7260    1.4760   -3.8030 hc        1 NJ8      0.035367
     33 H23A        4.2010    0.8090   -2.9930 hc        1 NJ8      0.035367
     34 H23B        3.9200    2.5980   -3.0310 hc        1 NJ8      0.035367
@<TRIPOS>BOND
     1    1    2 ar  
     2    1    6 ar  
     3    1   21 1   
     4    2    3 ar  
     5    2   18 1   
     6    3    4 ar  
     7    3   22 1   
     8    4    5 ar  
     9    4   23 1   
    10    5    6 ar  
    11    5    7 1   
    12    6   16 1   
    13    7    8 1   
    14    8    9 ar  
    15    8   13 ar  
    16    9   10 ar  
    17    9   15 1   
    18   10   11 ar  
    19   10   24 1   
    20   11   12 ar  
    21   11   14 1   
    22   12   13 ar  
    23   12   25 1   
    24   13   26 1   
    25   14   17 3   
    26   16   27 1   
    27   18   19 1   
    28   18   28 1   
    29   18   29 1   
    30   19   20 1   
    31   19   30 1   
    32   19   31 1   
    33   20   32 1   
    34   20   33 1   
    35   20   34 1   
@<TRIPOS>SUBSTRUCTURE
     1 NJ8         1 TEMP              0 ****  ****    0 ROOT
