@<TRIPOS>MOLECULE
NJ8
   34    30     1     0     0
SMALL
bcc


@<TRIPOS>ATOM
      1 C1         -0.8750   -1.3320   -1.6670 c1        1 NJ8     -0.210000
      2 C2          0.5110   -1.3650   -1.6480 c1        1 NJ8     -0.020000
      3 C3          1.1880   -1.3590   -0.4390 c1        1 NJ8     -0.159000
      4 C4          0.4800   -1.3190    0.7510 c1        1 NJ8     -0.090000
      5 C5         -0.9060   -1.2860    0.7330 c1        1 NJ8     -0.011000
      6 C6         -1.5830   -1.2920   -0.4760 c1        1 NJ8      0.087000
      7 O7         -1.6230   -1.2180    1.9400 os        1 NJ8     -0.125000
      8 C8         -1.3830    0.0220    2.5580 c2        1 NJ8      0.116000
      9 C9         -0.6120    0.0840    3.7080 c2        1 NJ8     -0.096000
     10 C10        -0.4100    1.3010    4.3410 c1        1 NJ8     -0.062000
     11 C11        -0.9790    2.4540    3.8250 c1        1 NJ8     -0.044000
     12 C12        -1.7500    2.3910    2.6740 c1        1 NJ8     -0.058000
     13 C13        -1.9520    1.1750    2.0410 c1        1 NJ8     -0.190000
     14 C15        -0.7180    3.7880    4.4880 c1        1 NJ8     -0.092000
     15 CL16        0.0610   -1.3740    4.3870 cl        1 NJ8      0.019000
     16 O17        -2.9900   -1.3120   -0.4940 oh        1 NJ8     -0.231000
     17 N20        -0.5210    4.7940    4.9880 n1        1 NJ8     -0.039000
     18 C21         1.2830   -1.4340   -2.9470 c3        1 NJ8     -0.130000
     19 C22         1.8670   -0.0740   -3.2580 c3        1 NJ8     -0.155000
     20 C23         2.5350   -0.1110   -4.6150 c3        1 NJ8     -0.213000
     21 H1         -1.3520   -1.3360   -2.5180 ha        1 NJ8      0.141000
     22 H3          2.1640   -1.3820   -0.4260 ha        1 NJ8      0.143000
     23 H4          0.9570   -1.3140    1.6030 ha        1 NJ8      0.154000
     24 H10         0.1330    1.3450    5.1510 ha        1 NJ8      0.160000
     25 H12        -2.1500    3.2040    2.3100 ha        1 NJ8      0.149000
     26 H13        -2.4950    1.1310    1.2310 ha        1 NJ8      0.156000
     27 HO17       -3.2850   -0.7880   -1.1490 ho        1 NJ8      0.223000
     28 H21         2.0050   -2.0880   -2.8620 hc        1 NJ8      0.092500
     29 H21A        0.6810   -1.7030   -3.6700 hc        1 NJ8      0.092500
     30 H22         1.1530    0.5940   -3.2640 hc        1 NJ8      0.083500
     31 H22A        2.5280    0.1610   -2.5760 hc        1 NJ8      0.083500
     32 H23         3.0200   -0.9570   -4.7170 hc        1 NJ8      0.075000
     33 H23A        3.1630    0.6370   -4.6900 hc        1 NJ8      0.075000
     34 H23B        1.8540   -0.0380   -5.3160 hc        1 NJ8      0.075000
@<TRIPOS>BOND
     1    1    6 1   
     2    1   21 1   
     3    2    3 1   
     4    2   18 1   
     5    3   22 1   
     6    4    5 1   
     7    4   23 1   
     8    5    7 1   
     9    6   16 1   
    10    7    8 1   
    11    8    9 1   
    12    8   13 1   
    13    9   10 1   
    14    9   15 1   
    15   10   24 1   
    16   11   12 1   
    17   11   14 1   
    18   12   25 1   
    19   13   26 1   
    20   14   17 1   
    21   16   27 1   
    22   18   19 1   
    23   18   28 1   
    24   18   29 1   
    25   19   20 1   
    26   19   30 1   
    27   19   31 1   
    28   20   32 1   
    29   20   33 1   
    30   20   34 1   
@<TRIPOS>SUBSTRUCTURE
     1 NJ8         1 TEMP              0 ****  ****    0 ROOT
