@<TRIPOS>MOLECULE
NJD
   50    54     1     0     0
SMALL
bcc


@<TRIPOS>ATOM
      1 CAJ        -0.1160   -0.3270   -0.0300 ca        1 NJD     -0.096000
      2 CBA         1.2460   -0.3450    0.2390 ca        1 NJD     -0.203900
      3 CAH         2.0840   -0.7540    1.3620 cc        1 NJD      0.347800
      4 NAM         3.3810   -0.5470    1.0670 nd        1 NJD     -0.509100
      5 NAT         3.4610    0.0200   -0.1460 na        1 NJD     -0.020100
      6 CBB         2.1920    0.1290   -0.7440 ca        1 NJD     -0.057200
      7 CAG         1.7570    0.6220   -1.9800 ca        1 NJD     -0.137000
      8 CAD         0.3960    0.6370   -2.2290 ca        1 NJD     -0.069000
      9 CAV        -0.5480    0.1690   -1.2720 ca        1 NJD      0.100600
     10 NAR        -1.9370    0.2770   -1.5380 nh        1 NJD     -0.708300
     11 CAY        -2.5480   -0.4440   -2.5820 ca        1 NJD      0.936900
     12 NAN        -3.9230   -0.5750   -2.5040 nb        1 NJD     -0.860000
     13 NAP        -1.7640   -0.9200   -3.6240 nb        1 NJD     -0.854000
     14 CAZ        -2.4820   -1.5280   -4.6240 ca        1 NJD      0.911300
     15 OAU        -1.8340   -2.0560   -5.7210 os        1 NJD     -0.415100
     16 CAA        -0.4070   -1.9630   -5.7470 c3        1 NJD      0.125700
     17 NAO        -3.8390   -1.7020   -4.6990 nb        1 NJD     -0.801000
     18 CAX        -4.5250   -1.1820   -3.6020 ca        1 NJD      0.935900
     19 NAQ        -5.9140   -1.2280   -3.6030 nh        1 NJD     -0.843900
     20 CAK        -6.6370   -2.0510   -4.5420 c3        1 NJD      0.213800
     21 CAL        -8.1540   -1.9830   -4.3300 c3        1 NJD     -0.017200
     22 CAW        -8.8530   -2.8050   -5.3270 cc        1 NJD     -0.147400
     23 CBD        -9.8080   -3.8570   -5.0450 ca        1 NJD     -0.085800
     24 CAF       -10.3280   -4.4150   -3.8760 ca        1 NJD     -0.085000
     25 CAC       -11.2540   -5.4420   -3.9760 ca        1 NJD     -0.155000
     26 CAB       -11.6760   -5.9280   -5.2270 ca        1 NJD     -0.113000
     27 CAE       -11.1870   -5.4030   -6.4130 ca        1 NJD     -0.143000
     28 CBC       -10.2480   -4.3620   -6.3280 ca        1 NJD     -0.047200
     29 NAS        -9.5900   -3.6400   -7.3260 na        1 NJD     -0.190400
     30 CAI        -8.7490   -2.7090   -6.7160 cd        1 NJD     -0.094100
     31 H1         -0.8290   -0.6880    0.7260 ha        1 NJD      0.141000
     32 H2          1.7560   -1.1690    2.3150 h4        1 NJD      0.055800
     33 H4          2.4700    0.9900   -2.7300 ha        1 NJD      0.142000
     34 H5          0.0360    1.0230   -3.1980 ha        1 NJD      0.156000
     35 H6         -2.5050    0.3980   -0.7230 hn        1 NJD      0.441800
     36 H7         -0.0810   -0.8960   -5.7510 h1        1 NJD      0.053367
     37 H8          0.0410   -2.5100   -4.8840 h1        1 NJD      0.053367
     38 H9         -0.1510   -2.4630   -6.7160 h1        1 NJD      0.053367
     39 H10        -6.3760   -0.9910   -2.7530 hn        1 NJD      0.442800
     40 H11        -6.3030   -3.1260   -4.4610 h1        1 NJD      0.060700
     41 H12        -6.3960   -1.6990   -5.5870 h1        1 NJD      0.060700
     42 H13        -8.5030   -0.9160   -4.4100 hc        1 NJD      0.052700
     43 H14        -8.4150   -2.3440   -3.2990 hc        1 NJD      0.052700
     44 H15       -10.0040   -4.0400   -2.8950 ha        1 NJD      0.132000
     45 H16       -11.6720   -5.8910   -3.0630 ha        1 NJD      0.130000
     46 H17       -12.4120   -6.7450   -5.2610 ha        1 NJD      0.130000
     47 H18       -11.5200   -5.7870   -7.3860 ha        1 NJD      0.132000
     48 H19        -9.6740   -3.7960   -8.2940 hn        1 NJD      0.300700
     49 H20        -8.1310   -2.0380   -7.3170 h4        1 NJD      0.170000
     50 H3          4.3310    0.0390   -0.6240 hn        1 NJD      0.319700
@<TRIPOS>BOND
     1    1    2 ar  
     2    1    9 ar  
     3    1   31 1   
     4    2    3 1   
     5    2    6 ar  
     6    3    4 2   
     7    3   32 1   
     8    4    5 1   
     9    5    6 1   
    10    5   50 1   
    11    6    7 ar  
    12    7    8 ar  
    13    7   33 1   
    14    8    9 ar  
    15    8   34 1   
    16    9   10 1   
    17   10   11 1   
    18   10   35 1   
    19   11   12 ar  
    20   11   13 ar  
    21   12   18 ar  
    22   13   14 ar  
    23   14   15 1   
    24   14   17 ar  
    25   15   16 1   
    26   16   36 1   
    27   16   37 1   
    28   16   38 1   
    29   17   18 ar  
    30   18   19 1   
    31   19   20 1   
    32   19   39 1   
    33   20   21 1   
    34   20   40 1   
    35   20   41 1   
    36   21   22 1   
    37   21   42 1   
    38   21   43 1   
    39   22   23 1   
    40   22   30 2   
    41   23   24 ar  
    42   23   28 ar  
    43   24   25 ar  
    44   24   44 1   
    45   25   26 ar  
    46   25   45 1   
    47   26   27 ar  
    48   26   46 1   
    49   27   28 ar  
    50   27   47 1   
    51   28   29 1   
    52   29   30 1   
    53   29   48 1   
    54   30   49 1   
@<TRIPOS>SUBSTRUCTURE
     1 NJD         1 TEMP              0 ****  ****    0 ROOT
