@<TRIPOS>MOLECULE
NJD
   50    54     1     0     0
SMALL
bcc


@<TRIPOS>ATOM
      1 CAJ        -0.0960   -0.3600   -0.0430 ca        1 NJD     -0.096000
      2 CBA         1.2680   -0.3790    0.2170 ca        1 NJD     -0.203900
      3 CAH         2.1150   -0.8020    1.3280 cc        1 NJD      0.347800
      4 NAM         3.4090   -0.5890    1.0270 nd        1 NJD     -0.509100
      5 NAT         3.4800   -0.0050   -0.1790 na        1 NJD     -0.020100
      6 CBB         2.2070    0.1100   -0.7660 ca        1 NJD     -0.057200
      7 CAG         1.7620    0.6180   -1.9930 ca        1 NJD     -0.137000
      8 CAD         0.3990    0.6340   -2.2320 ca        1 NJD     -0.069000
      9 CAV        -0.5380    0.1510   -1.2750 ca        1 NJD      0.100600
     10 NAR        -1.9280    0.2600   -1.5300 nu        1 NJD     -0.708300
     11 CAY        -2.5450   -0.4490   -2.5790 ca        1 NJD      0.936900
     12 NAN        -3.9190   -0.5840   -2.4930 nb        1 NJD     -0.860000
     13 NAP        -1.7670   -0.9090   -3.6330 nb        1 NJD     -0.854000
     14 CAZ        -2.4910   -1.5060   -4.6350 ca        1 NJD      0.911300
     15 OAU        -1.8490   -2.0190   -5.7430 os        1 NJD     -0.415100
     16 CAA        -0.4220   -1.9210   -5.7780 c3        1 NJD      0.125700
     17 NAO        -3.8480   -1.6830   -4.7030 nb        1 NJD     -0.801000
     18 CAX        -4.5270   -1.1790   -3.5940 ca        1 NJD      0.935900
     19 NAQ        -5.9160   -1.2280   -3.5860 nu        1 NJD     -0.843900
     20 CAK        -6.6430   -2.0430   -4.5300 c3        1 NJD      0.213800
     21 CAL        -8.1590   -1.9820   -4.3060 c3        1 NJD     -0.017200
     22 CAW        -8.8620   -2.7970   -5.3050 cc        1 NJD     -0.147400
     23 CBD        -9.8140   -3.8530   -5.0260 ca        1 NJD     -0.085800
     24 CAF       -10.3260   -4.4200   -3.8580 ca        1 NJD     -0.085000
     25 CAC       -11.2520   -5.4480   -3.9610 ca        1 NJD     -0.155000
     26 CAB       -11.6800   -5.9250   -5.2130 ca        1 NJD     -0.113000
     27 CAE       -11.1980   -5.3910   -6.3980 ca        1 NJD     -0.143000
     28 CBC       -10.2610   -4.3490   -6.3100 ca        1 NJD     -0.047200
     29 NAS        -9.6100   -3.6180   -7.3070 na        1 NJD     -0.190400
     30 CAI        -8.7660   -2.6910   -6.6940 cd        1 NJD     -0.094100
     31 H1         -0.8020   -0.7330    0.7140 ha        1 NJD      0.141000
     32 H2          1.7940   -1.2310    2.2770 h4        1 NJD      0.055800
     33 H4          2.4700    0.9980   -2.7420 ha        1 NJD      0.142000
     34 H5          0.0320    1.0320   -3.1930 ha        1 NJD      0.156000
     35 H6         -2.4910    0.3690   -0.7100 hn        1 NJD      0.441800
     36 H7         -0.1720   -2.4090   -6.7550 h1        1 NJD      0.053367
     37 H8         -0.0990   -0.8530   -5.7710 h1        1 NJD      0.053367
     38 H9          0.0330   -2.4780   -4.9250 h1        1 NJD      0.053367
     39 H10        -6.3720   -1.0040   -2.7300 hn        1 NJD      0.442800
     40 H11        -6.3050   -3.1180   -4.4640 h1        1 NJD      0.060700
     41 H12        -6.4110   -1.6770   -5.5720 h1        1 NJD      0.060700
     42 H13        -8.5120   -0.9160   -4.3740 hc        1 NJD      0.052700
     43 H14        -8.4110   -2.3530   -3.2760 hc        1 NJD      0.052700
     44 H15        -9.9970   -4.0530   -2.8760 ha        1 NJD      0.132000
     45 H16       -11.6630   -5.9050   -3.0490 ha        1 NJD      0.130000
     46 H17       -12.4150   -6.7430   -5.2490 ha        1 NJD      0.130000
     47 H18       -11.5370   -5.7670   -7.3720 ha        1 NJD      0.132000
     48 H19        -9.6980   -3.7670   -8.2750 hn        1 NJD      0.300700
     49 H20        -8.1530   -2.0140   -7.2940 h4        1 NJD      0.170000
     50 H3          4.3470    0.0220   -0.6630 hn        1 NJD      0.319700
@<TRIPOS>BOND
     1    1    2 ar  
     2    1    9 ar  
     3    1   31 1   
     4    2    3 1   
     5    2    6 ar  
     6    3    4 2   
     7    3   32 1   
     8    4    5 1   
     9    5    6 1   
    10    5   50 1   
    11    6    7 ar  
    12    7    8 ar  
    13    7   33 1   
    14    8    9 ar  
    15    8   34 1   
    16    9   10 1   
    17   10   11 1   
    18   10   35 1   
    19   11   12 ar  
    20   11   13 ar  
    21   12   18 ar  
    22   13   14 ar  
    23   14   15 1   
    24   14   17 ar  
    25   15   16 1   
    26   16   36 1   
    27   16   37 1   
    28   16   38 1   
    29   17   18 ar  
    30   18   19 1   
    31   19   20 1   
    32   19   39 1   
    33   20   21 1   
    34   20   40 1   
    35   20   41 1   
    36   21   22 1   
    37   21   42 1   
    38   21   43 1   
    39   22   23 1   
    40   22   30 2   
    41   23   24 ar  
    42   23   28 ar  
    43   24   25 ar  
    44   24   44 1   
    45   25   26 ar  
    46   25   45 1   
    47   26   27 ar  
    48   26   46 1   
    49   27   28 ar  
    50   27   47 1   
    51   28   29 1   
    52   29   30 1   
    53   29   48 1   
    54   30   49 1   
@<TRIPOS>SUBSTRUCTURE
     1 NJD         1 TEMP              0 ****  ****    0 ROOT
