@<TRIPOS>MOLECULE
NJD
   52    56     1     0     0
SMALL
bcc


@<TRIPOS>ATOM
      1 CAJ        -1.0360    1.0280   -1.5000 ca        1 NJD      0.005000
      2 CBA        -0.1740    1.1920   -0.4310 ca        1 NJD     -0.228900
      3 CAH        -0.2230    1.8850    0.8530 cc        1 NJD      0.377800
      4 NAM         0.9410    1.7090    1.5050 nd        1 NJD     -0.441100
      5 NAT         1.7520    0.9520    0.7490 na        1 NJD      0.022900
      6 CBB         1.1560    0.5950   -0.4520 ca        1 NJD     -0.002200
      7 CAG         1.5870   -0.1680   -1.5560 ca        1 NJD     -0.097000
      8 CAD         0.7160   -0.3250   -2.6140 ca        1 NJD     -0.084000
      9 CAV        -0.5760    0.2740   -2.5920 ca        1 NJD     -0.143400
     10 NAR        -1.4310    0.1330   -3.7740 n4        1 NJD     -0.596100
     11 CAY        -2.2060   -1.1530   -3.7350 ca        1 NJD      0.832900
     12 NAN        -3.4410   -1.1090   -3.1260 nb        1 NJD     -0.745000
     13 NAP        -1.6090   -2.2460   -4.2920 nb        1 NJD     -0.741000
     14 CAZ        -2.3570   -3.4130   -4.2020 ca        1 NJD      0.959300
     15 OAU        -1.9230   -4.5860   -4.6980 os        1 NJD     -0.342100
     16 CAA        -0.6360   -4.6410   -5.3570 c3        1 NJD      0.113700
     17 NAO        -3.6140   -3.5110   -3.6030 nb        1 NJD     -0.669000
     18 CAX        -4.0810   -2.3360   -3.1010 ca        1 NJD      0.815900
     19 NAQ        -5.4330   -2.3740   -2.4700 n4        1 NJD     -0.753700
     20 CAK        -6.5180   -2.2100   -3.5050 c3        1 NJD      0.100800
     21 CAL        -7.9160   -2.3190   -2.8800 c3        1 NJD      0.004800
     22 CAW        -8.8960   -2.2730   -3.9650 cc        1 NJD     -0.240400
     23 CBD        -9.1270   -3.3050   -4.9540 ca        1 NJD     -0.086800
     24 CAF        -8.5560   -4.5510   -5.2230 ca        1 NJD     -0.124000
     25 CAC        -9.0500   -5.3030   -6.2770 ca        1 NJD     -0.119000
     26 CAB       -10.1120   -4.8350   -7.0760 ca        1 NJD     -0.103000
     27 CAE       -10.7110   -3.6080   -6.8410 ca        1 NJD     -0.112000
     28 CBC       -10.2200   -2.8380   -5.7740 ca        1 NJD     -0.049200
     29 NAS       -10.6180   -1.5810   -5.2950 na        1 NJD     -0.158400
     30 CAI        -9.8310   -1.2540   -4.2050 cd        1 NJD     -0.041100
     31 H1         -2.0370    1.4910   -1.4790 ha        1 NJD      0.161000
     32 H2         -1.0470    2.4740    1.2670 h4        1 NJD      0.086800
     33 H4          2.5920   -0.6200   -1.5790 ha        1 NJD      0.185000
     34 H5          1.0400   -0.9150   -3.4880 ha        1 NJD      0.160000
     35 H6         -2.0920    0.9250   -3.8180 hn        1 NJD      0.491300
     36 H7          0.1740   -4.3700   -4.6390 h1        1 NJD      0.095033
     37 H8         -0.5880   -5.7280   -5.6430 h1        1 NJD      0.095033
     38 H9         -0.6360   -3.9810   -6.2560 h1        1 NJD      0.095033
     39 H10        -5.5570   -3.2830   -1.9940 hn        1 NJD      0.485800
     40 H11        -6.3830   -1.2040   -3.9910 hx        1 NJD      0.121200
     41 H12        -6.3930   -3.0260   -4.2780 hx        1 NJD      0.121200
     42 H13        -8.0140   -3.2920   -2.3230 hc        1 NJD      0.069200
     43 H14        -8.0850   -1.4780   -2.1550 hc        1 NJD      0.069200
     44 H15        -7.7420   -4.9380   -4.5940 ha        1 NJD      0.112000
     45 H16        -8.6180   -6.2920   -6.4950 ha        1 NJD      0.146000
     46 H17       -10.4770   -5.4680   -7.9010 ha        1 NJD      0.156000
     47 H18       -11.5460   -3.2530   -7.4630 ha        1 NJD      0.156000
     48 H19       -11.3910   -1.0640   -5.6300 hn        1 NJD      0.322700
     49 H20        -9.9890   -0.3200   -3.6570 h4        1 NJD      0.177000
     50 H3          2.6770    0.7360    1.0620 hn        1 NJD      0.362700
     51 HAR2       -0.8350    0.1360   -4.6200 hn        1 NJD      0.491300
     52 HAQ2       -5.5100   -1.6220   -1.7690 hn        1 NJD      0.485800
@<TRIPOS>BOND
     1    1    2 ar  
     2    1    9 ar  
     3    1   31 1   
     4    2    3 1   
     5    2    6 ar  
     6    3    4 2   
     7    3   32 1   
     8    4    5 1   
     9    5    6 1   
    10    5   50 1   
    11    6    7 ar  
    12    7    8 ar  
    13    7   33 1   
    14    8    9 ar  
    15    8   34 1   
    16    9   10 1   
    17   10   11 1   
    18   10   35 1   
    19   10   51 1   
    20   11   12 ar  
    21   11   13 ar  
    22   12   18 ar  
    23   13   14 ar  
    24   14   15 1   
    25   14   17 ar  
    26   15   16 1   
    27   16   36 1   
    28   16   37 1   
    29   16   38 1   
    30   17   18 ar  
    31   18   19 1   
    32   19   20 1   
    33   19   39 1   
    34   19   52 1   
    35   20   21 1   
    36   20   40 1   
    37   20   41 1   
    38   21   22 1   
    39   21   42 1   
    40   21   43 1   
    41   22   23 1   
    42   22   30 2   
    43   23   24 ar  
    44   23   28 ar  
    45   24   25 ar  
    46   24   44 1   
    47   25   26 ar  
    48   25   45 1   
    49   26   27 ar  
    50   26   46 1   
    51   27   28 ar  
    52   27   47 1   
    53   28   29 1   
    54   29   30 1   
    55   29   48 1   
    56   30   49 1   
@<TRIPOS>SUBSTRUCTURE
     1 NJD         1 TEMP              0 ****  ****    0 ROOT
