@<TRIPOS>MOLECULE
NJQ
   60    63     1     0     0
SMALL
bcc


@<TRIPOS>ATOM
      1 C1          2.5120   -0.3950   -1.4210 c3        1 NJQ     -0.019800
      2 C2          2.4710   -1.8390   -1.0470 ca        1 NJQ     -0.061300
      3 C3          3.4630   -2.3540   -0.2070 ca        1 NJQ     -0.102000
      4 C4          3.4820   -3.7010    0.1590 ca        1 NJQ     -0.076600
      5 C5          2.4790   -4.5610   -0.3060 ca        1 NJQ     -0.090000
      6 C6          1.4790   -4.0860   -1.1410 ca        1 NJQ     -0.138000
      7 C7          1.4820   -2.7280   -1.5200 ca        1 NJQ     -0.094400
      8 N8          0.4140   -2.2500   -2.4060 n4        1 NJQ     -0.515200
      9 C9          4.6060   -4.2370    1.0640 c         1 NJQ      0.911200
     10 O10         4.5770   -5.4660    1.3200 o         1 NJQ     -0.786800
     11 O11         5.4510   -3.3960    1.4610 o         1 NJQ     -0.786800
     12 C15         1.2710    0.3550   -1.0730 ca        1 NJQ     -0.115300
     13 C18        -1.0160    1.8260   -0.4080 ca        1 NJQ     -0.127000
     14 C19        -0.5540    1.8100   -1.7240 ca        1 NJQ     -0.125500
     15 C20         0.5850    1.0780   -2.0570 ca        1 NJQ     -0.142000
     16 C21         0.8070    0.3810    0.2490 ca        1 NJQ     -0.142000
     17 C22        -0.3330    1.1130    0.5770 ca        1 NJQ     -0.125500
     18 C28         0.3020   -3.1060   -3.6350 c         1 NJQ      0.474600
     19 O29        -0.6630   -3.8590   -3.6920 o         1 NJQ     -0.450100
     20 C30         1.3720   -2.9760   -4.6560 ca        1 NJQ      0.330800
     21 C32         1.6910   -4.1180   -5.4100 ca        1 NJQ     -0.159300
     22 C33         2.7130   -4.0050   -6.3630 ca        1 NJQ     -0.091000
     23 C34         3.3550   -2.7850   -6.5260 ca        1 NJQ     -0.189300
     24 C35         2.9590   -1.6750   -5.7280 ca        1 NJQ      0.437600
     25 N36         1.9820   -1.7700   -4.8060 nb        1 NJQ     -0.666000
     26 C37         3.6800   -0.3690   -5.9130 c3        1 NJQ     -0.139700
     27 C41         3.3310    0.2880   -7.2430 c3        1 NJQ     -0.061700
     28 C44         4.3390    1.3870   -7.5510 c3        1 NJQ     -0.074400
     29 C45         1.9200    0.8580   -7.2230 c3        1 NJQ     -0.074400
     30 C47         2.5990    2.6270   -8.8560 c3        1 NJQ     -0.078400
     31 C48         4.0110    2.0780   -8.8580 c3        1 NJQ     -0.076400
     32 C57         1.5900    1.5440   -8.5330 c3        1 NJQ     -0.076400
     33 H1          2.7280   -0.3040   -2.5220 hc        1 NJQ      0.076700
     34 H1A         3.3760    0.0960   -0.8870 hc        1 NJQ      0.076700
     35 H3          4.2640   -1.7040    0.1920 ha        1 NJQ      0.185000
     36 H5          2.5140   -5.6200    0.0110 ha        1 NJQ      0.187000
     37 H6          0.6910   -4.7670   -1.5000 ha        1 NJQ      0.132000
     38 HN8         0.6010   -1.2720   -2.6770 hn        1 NJQ      0.466800
     39 H18        -1.9120    2.4090   -0.1460 ha        1 NJQ      0.140000
     40 H19        -1.0820    2.3850   -2.5000 ha        1 NJQ      0.141000
     41 H20         0.9640    1.0960   -3.0910 ha        1 NJQ      0.146000
     42 H21         1.3540   -0.1740    1.0280 ha        1 NJQ      0.146000
     43 H22        -0.6880    1.1330    1.6190 ha        1 NJQ      0.141000
     44 H32         1.1580   -5.0680   -5.2500 ha        1 NJQ      0.173000
     45 H33         3.0010   -4.8800   -6.9670 ha        1 NJQ      0.164000
     46 H34         4.1680   -2.6610   -7.2570 ha        1 NJQ      0.165000
     47 H37         3.4530    0.3420   -5.0740 hc        1 NJQ      0.071700
     48 H37A        4.7830   -0.5840   -5.8810 hc        1 NJQ      0.071700
     49 H41         3.3920   -0.4880   -8.0580 hc        1 NJQ      0.049700
     50 H44         4.3360    2.1380   -6.7170 hc        1 NJQ      0.042450
     51 H44A        5.3690    0.9480   -7.6070 hc        1 NJQ      0.042450
     52 H45         1.8270    1.5930   -6.3810 hc        1 NJQ      0.042450
     53 H45A        1.1850    0.0330   -7.0340 hc        1 NJQ      0.042450
     54 H47         2.3670    3.0690   -9.8600 hc        1 NJQ      0.044200
     55 H47A        2.5190    3.4500   -8.0980 hc        1 NJQ      0.044200
     56 H48         4.7390    2.9140   -9.0290 hc        1 NJQ      0.043200
     57 H48A        4.1280    1.3510   -9.7040 hc        1 NJQ      0.043200
     58 H57         0.5640    1.9910   -8.4710 hc        1 NJQ      0.043200
     59 H57A        1.5770    0.7850   -9.3600 hc        1 NJQ      0.043200
     60 H82        -0.4740   -2.2900   -1.8870 hn        1 NJQ      0.466800
@<TRIPOS>BOND
     1    1    2 1   
     2    1   12 1   
     3    1   33 1   
     4    1   34 1   
     5    2    3 ar  
     6    2    7 ar  
     7    3    4 ar  
     8    3   35 1   
     9    4    5 ar  
    10    4    9 1   
    11    5    6 ar  
    12    5   36 1   
    13    6    7 ar  
    14    6   37 1   
    15    7    8 1   
    16    8   18 1   
    17    8   38 1   
    18    8   60 1   
    19    9   10 1   
    20    9   11 1   
    21   12   15 ar  
    22   12   16 ar  
    23   13   14 ar  
    24   13   17 ar  
    25   13   39 1   
    26   14   15 ar  
    27   14   40 1   
    28   15   41 1   
    29   16   17 ar  
    30   16   42 1   
    31   17   43 1   
    32   18   19 2   
    33   18   20 1   
    34   20   21 ar  
    35   20   25 ar  
    36   21   22 ar  
    37   21   44 1   
    38   22   23 ar  
    39   22   45 1   
    40   23   24 ar  
    41   23   46 1   
    42   24   25 ar  
    43   24   26 1   
    44   26   27 1   
    45   26   47 1   
    46   26   48 1   
    47   27   28 1   
    48   27   29 1   
    49   27   49 1   
    50   28   31 1   
    51   28   50 1   
    52   28   51 1   
    53   29   32 1   
    54   29   52 1   
    55   29   53 1   
    56   30   31 1   
    57   30   32 1   
    58   30   54 1   
    59   30   55 1   
    60   31   56 1   
    61   31   57 1   
    62   32   58 1   
    63   32   59 1   
@<TRIPOS>SUBSTRUCTURE
     1 NJQ         1 TEMP              0 ****  ****    0 ROOT
