@<TRIPOS>MOLECULE
NJQ
   59    56     1     0     0
SMALL
bcc


@<TRIPOS>ATOM
      1 C1         -0.3060    2.6780    3.2490 c3        1 NJQ     -0.085000
      2 C2          0.1890    1.4130    3.9290 c2        1 NJQ     -0.137000
      3 C3          0.5850    1.4500    5.2560 c2        1 NJQ     -0.092000
      4 C4          0.9890    0.2860    5.8930 c1        1 NJQ     -0.112000
      5 C5          0.9950   -0.9160    5.2010 c2        1 NJQ     -0.091000
      6 C6          0.5980   -0.9540    3.8740 c1        1 NJQ     -0.160000
      7 C7          0.1950    0.2110    3.2370 c1        1 NJQ      0.032000
      8 N8         -0.2800    0.1600    1.8950 n         1 NJQ     -0.290000
      9 C9          1.4050    0.3240    7.3470 c1        1 NJQ      0.358000
     10 O10         2.5800    0.6490    7.6560 o         1 NJQ     -0.564500
     11 O11         0.5720    0.0410    8.2470 o         1 NJQ     -0.564500
     12 C15         0.5340    3.8560    3.7010 c2        1 NJQ     -0.064000
     13 C18         2.0610    6.0130    4.5440 c1        1 NJQ     -0.138000
     14 C19         0.8510    6.2290    3.9040 c1        1 NJQ     -0.141000
     15 C20         0.0870    5.1510    3.4830 c2        1 NJQ     -0.146000
     16 C21         1.7440    3.6400    4.3400 c1        1 NJQ     -0.110000
     17 C22         2.5090    4.7190    4.7620 c1        1 NJQ     -0.138000
     18 C28        -0.4570   -1.0950    1.2500 c2        1 NJQ      0.349000
     19 O29        -0.2020   -2.1240    1.8440 o         1 NJQ     -0.369000
     20 C30        -1.0640   -1.1530   -0.1410 c2        1 NJQ     -0.048000
     21 C32        -2.1530   -0.3550   -0.4550 c2        1 NJQ     -0.135000
     22 C33        -2.7340   -0.4470   -1.6870 c1        1 NJQ     -0.106000
     23 C34        -2.2420   -1.3260   -2.6100 c1        1 NJQ     -0.174000
     24 C35        -1.1530   -2.1230   -2.2950 c1        1 NJQ     -0.016000
     25 N36        -0.5730   -2.0300   -1.0630 n2        1 NJQ     -0.131000
     26 C37        -0.6740   -3.1740   -3.2790 c2        1 NJQ     -0.110000
     27 C41        -0.4060   -2.5910   -4.4640 c3        1 NJQ     -0.103000
     28 C44        -1.4990   -2.9470   -5.5610 c3        1 NJQ     -0.153500
     29 C45         0.8410   -3.2870   -5.2070 c3        1 NJQ     -0.153500
     30 C47         0.0910   -1.9610   -7.0270 c3        1 NJQ     -0.156000
     31 C48         1.1480   -2.6700   -6.5490 c3        1 NJQ     -0.152500
     32 C57        -1.2070   -2.3260   -6.9180 c3        1 NJQ     -0.152500
     33 H1         -0.2310    2.5770    2.2800 hc        1 NJQ      0.091500
     34 H1A        -1.2400    2.8330    3.4890 hc        1 NJQ      0.091500
     35 H3          0.5610    2.2920    5.7490 ha        1 NJQ      0.154000
     36 H5          1.2790   -1.7350    5.6490 ha        1 NJQ      0.156000
     37 H6          0.6020   -1.8000    3.3870 ha        1 NJQ      0.140000
     38 HN8        -0.4760    0.9310    1.4520 hn        1 NJQ      0.247000
     39 H18         2.5980    6.7700    4.8400 ha        1 NJQ      0.122500
     40 H19         0.5360    7.1410    3.7510 ha        1 NJQ      0.119000
     41 H20        -0.7670    5.3040    3.0330 ha        1 NJQ      0.133000
     42 H21         2.0580    2.7310    4.4930 ha        1 NJQ      0.159000
     43 H22         3.3600    4.5660    5.2160 ha        1 NJQ      0.122500
     44 H32        -2.5040    0.2730    0.2050 ha        1 NJQ      0.171000
     45 H33        -3.5010    0.1150   -1.9080 ha        1 NJQ      0.135000
     46 H34        -2.6610   -1.3960   -3.4890 ha        1 NJQ      0.137000
     47 H37        -1.3710   -3.8500   -3.3980 ha        1 NJQ      0.094000
     48 H37A        0.1370   -3.5990   -2.9330 ha        1 NJQ      0.094000
     49 H41        -0.2820   -1.6250   -4.3780 hc        1 NJQ      0.111000
     50 H44        -1.5360   -3.9170   -5.6620 hc        1 NJQ      0.078500
     51 H44A       -2.3700   -2.6300   -5.2510 hc        1 NJQ      0.078500
     52 H45         0.6390   -4.2350   -5.3370 hc        1 NJQ      0.078500
     53 H45A        1.6320   -3.2070   -4.6360 hc        1 NJQ      0.078500
     54 H47         0.1560   -1.0730   -6.6190 hc        1 NJQ      0.079500
     55 H47A        0.2570   -1.8440   -7.9870 hc        1 NJQ      0.079500
     56 H48         1.9170   -2.0720   -6.4570 hc        1 NJQ      0.075750
     57 H48A        1.3700   -3.3820   -7.1860 hc        1 NJQ      0.075750
     58 H57        -1.4170   -2.9770   -7.6200 hc        1 NJQ      0.075750
     59 H57A       -1.7720   -1.5340   -7.0360 hc        1 NJQ      0.075750
@<TRIPOS>BOND
     1    1    2 1   
     2    1   12 1   
     3    1   33 1   
     4    1   34 1   
     5    2    3 1   
     6    2    7 1   
     7    3    4 1   
     8    3   35 1   
     9    4    5 1   
    10    5    6 1   
    11    5   36 1   
    12    6   37 1   
    13    7    8 1   
    14    8   18 1   
    15    8   38 1   
    16    9   10 1   
    17    9   11 1   
    18   12   15 1   
    19   12   16 1   
    20   13   17 1   
    21   13   39 1   
    22   14   15 1   
    23   14   40 1   
    24   15   41 1   
    25   16   42 1   
    26   17   43 1   
    27   18   19 1   
    28   18   20 1   
    29   20   21 1   
    30   20   25 1   
    31   21   22 1   
    32   21   44 1   
    33   22   45 1   
    34   23   24 1   
    35   23   46 1   
    36   24   25 1   
    37   26   27 1   
    38   26   47 1   
    39   26   48 1   
    40   27   28 1   
    41   27   29 1   
    42   27   49 1   
    43   28   32 1   
    44   28   50 1   
    45   28   51 1   
    46   29   31 1   
    47   29   52 1   
    48   29   53 1   
    49   30   31 1   
    50   30   32 1   
    51   30   54 1   
    52   30   55 1   
    53   31   56 1   
    54   31   57 1   
    55   32   58 1   
    56   32   59 1   
@<TRIPOS>SUBSTRUCTURE
     1 NJQ         1 TEMP              0 ****  ****    0 ROOT
