@<TRIPOS>MOLECULE
NJQ
   59    62     1     0     0
SMALL
bcc


@<TRIPOS>ATOM
      1 C1          3.2540    0.4130   -1.2640 c3        1 NJQ      0.007200
      2 C2          2.9380   -0.6490   -0.2650 ca        1 NJQ     -0.146300
      3 C3          2.9060   -0.3070    1.0890 ca        1 NJQ     -0.091000
      4 C4          2.6470   -1.2570    2.0780 ca        1 NJQ     -0.133600
      5 C5          2.4280   -2.5820    1.6980 ca        1 NJQ     -0.090000
      6 C6          2.4430   -2.9540    0.3570 ca        1 NJQ     -0.163000
      7 C7          2.6850   -1.9930   -0.6450 ca        1 NJQ      0.026600
      8 N8          2.6340   -2.3230   -2.0210 n         1 NJQ     -0.436100
      9 C9          2.6000   -0.8440    3.5420 c         1 NJQ      0.909200
     10 O10         2.7680    0.3790    3.8140 o         1 NJQ     -0.829800
     11 O11         2.3910   -1.7430    4.4040 o         1 NJQ     -0.829800
     12 C15         2.0550    0.8920   -2.0120 ca        1 NJQ     -0.070300
     13 C18        -0.1780    1.8560   -3.4020 ca        1 NJQ     -0.145000
     14 C19         0.9080    1.3340   -4.1010 ca        1 NJQ     -0.135500
     15 C20         2.0200    0.8510   -3.4110 ca        1 NJQ     -0.129000
     16 C21         0.9570    1.4140   -1.3140 ca        1 NJQ     -0.129000
     17 C22        -0.1520    1.8930   -2.0070 ca        1 NJQ     -0.135500
     18 C28         2.9170   -3.5490   -2.5670 c         1 NJQ      0.566600
     19 O29         3.1890   -4.5800   -1.9200 o         1 NJQ     -0.605100
     20 C30         2.8270   -3.6630   -4.0800 ca        1 NJQ      0.369800
     21 C32         2.3170   -4.8770   -4.5890 ca        1 NJQ     -0.201300
     22 C33         2.2440   -5.0370   -5.9710 ca        1 NJQ     -0.105000
     23 C34         2.6830   -4.0040   -6.7970 ca        1 NJQ     -0.240300
     24 C35         3.1910   -2.8230   -6.2080 ca        1 NJQ      0.407600
     25 N36         3.2580   -2.6520   -4.8660 nb        1 NJQ     -0.656000
     26 C37         3.6830   -1.7210   -7.1050 c3        1 NJQ     -0.125700
     27 C41         2.6760   -0.5860   -7.2260 c3        1 NJQ     -0.064700
     28 C44         1.4480   -1.0230   -8.0130 c3        1 NJQ     -0.074400
     29 C45         3.3290    0.6150   -7.8990 c3        1 NJQ     -0.074400
     30 C47         1.1070    1.3210   -8.8150 c3        1 NJQ     -0.076400
     31 C48         2.3440    1.7550   -8.0550 c3        1 NJQ     -0.077900
     32 C57         0.4610    0.1160   -8.1620 c3        1 NJQ     -0.077900
     33 H1          3.7030    1.2970   -0.7300 hc        1 NJQ      0.053200
     34 H1A         4.0360    0.0450   -1.9830 hc        1 NJQ      0.053200
     35 H3          3.0880    0.7340    1.4100 ha        1 NJQ      0.154000
     36 H5          2.2390   -3.3290    2.4870 ha        1 NJQ      0.156000
     37 H6          2.2740   -4.0060    0.0820 ha        1 NJQ      0.142000
     38 HN8         2.4960   -1.5510   -2.6380 hn        1 NJQ      0.331500
     39 H18        -1.0540    2.2350   -3.9460 ha        1 NJQ      0.118000
     40 H19         0.8910    1.2970   -5.2000 ha        1 NJQ      0.123500
     41 H20         2.8730    0.4360   -3.9700 ha        1 NJQ      0.145500
     42 H21         0.9810    1.4280   -0.2120 ha        1 NJQ      0.145500
     43 H22        -1.0100    2.2980   -1.4510 ha        1 NJQ      0.123500
     44 H32         2.0050   -5.6680   -3.8920 ha        1 NJQ      0.168000
     45 H33         1.8490   -5.9680   -6.4040 ha        1 NJQ      0.135000
     46 H34         2.6390   -4.0970   -7.8900 ha        1 NJQ      0.137000
     47 H37         4.6490   -1.3110   -6.7040 hc        1 NJQ      0.054200
     48 H37A        3.8940   -2.1470   -8.1220 hc        1 NJQ      0.054200
     49 H41         2.3490   -0.2780   -6.1910 hc        1 NJQ      0.071700
     50 H44         1.7640   -1.3810   -9.0290 hc        1 NJQ      0.038950
     51 H44A        0.9600   -1.8850   -7.4890 hc        1 NJQ      0.038950
     52 H45         3.7180    0.3120   -8.9060 hc        1 NJQ      0.038950
     53 H45A        4.2030    0.9570   -7.2860 hc        1 NJQ      0.038950
     54 H47         1.3870    1.0680   -9.8710 hc        1 NJQ      0.035200
     55 H47A        0.3730    2.1670   -8.8540 hc        1 NJQ      0.035200
     56 H48         2.0440    2.1290   -7.0390 hc        1 NJQ      0.041200
     57 H48A        2.8370    2.6050   -8.5940 hc        1 NJQ      0.041200
     58 H57        -0.4120   -0.2240   -8.7790 hc        1 NJQ      0.041200
     59 H57A        0.0680    0.4030   -7.1510 hc        1 NJQ      0.041200
@<TRIPOS>BOND
     1    1    2 1   
     2    1   12 1   
     3    1   33 1   
     4    1   34 1   
     5    2    3 ar  
     6    2    7 ar  
     7    3    4 ar  
     8    3   35 1   
     9    4    5 ar  
    10    4    9 1   
    11    5    6 ar  
    12    5   36 1   
    13    6    7 ar  
    14    6   37 1   
    15    7    8 1   
    16    8   18 1   
    17    8   38 1   
    18    9   10 1   
    19    9   11 1   
    20   12   15 ar  
    21   12   16 ar  
    22   13   14 ar  
    23   13   17 ar  
    24   13   39 1   
    25   14   15 ar  
    26   14   40 1   
    27   15   41 1   
    28   16   17 ar  
    29   16   42 1   
    30   17   43 1   
    31   18   19 2   
    32   18   20 1   
    33   20   21 ar  
    34   20   25 ar  
    35   21   22 ar  
    36   21   44 1   
    37   22   23 ar  
    38   22   45 1   
    39   23   24 ar  
    40   23   46 1   
    41   24   25 ar  
    42   24   26 1   
    43   26   27 1   
    44   26   47 1   
    45   26   48 1   
    46   27   28 1   
    47   27   29 1   
    48   27   49 1   
    49   28   32 1   
    50   28   50 1   
    51   28   51 1   
    52   29   31 1   
    53   29   52 1   
    54   29   53 1   
    55   30   31 1   
    56   30   32 1   
    57   30   54 1   
    58   30   55 1   
    59   31   56 1   
    60   31   57 1   
    61   32   58 1   
    62   32   59 1   
@<TRIPOS>SUBSTRUCTURE
     1 NJQ         1 TEMP              0 ****  ****    0 ROOT
