@<TRIPOS>MOLECULE
NJQ
   59    62     1     0     0
SMALL
bcc


@<TRIPOS>ATOM
      1 C1          3.2600    0.5140   -1.3130 c3        1 NJQ      0.007200
      2 C2          2.9900   -0.5320   -0.2840 ca        1 NJQ     -0.146300
      3 C3          2.9680   -0.1590    1.0620 ca        1 NJQ     -0.091000
      4 C4          2.7510   -1.0930    2.0770 ca        1 NJQ     -0.133600
      5 C5          2.5660   -2.4320    1.7320 ca        1 NJQ     -0.090000
      6 C6          2.5730   -2.8350    0.3990 ca        1 NJQ     -0.163000
      7 C7          2.7710   -1.8920   -0.6280 ca        1 NJQ      0.026600
      8 N8          2.7100   -2.2570   -1.9950 ns        1 NJQ     -0.436100
      9 C9          2.7140   -0.6460    3.5320 c         1 NJQ      0.909200
     10 O10         2.8500    0.5870    3.7720 o         1 NJQ     -0.829800
     11 O11         2.5450   -1.5300    4.4180 o         1 NJQ     -0.829800
     12 C15         2.0360    0.9390   -2.0530 ca        1 NJQ     -0.070300
     13 C18        -0.2440    1.8040   -3.4310 ca        1 NJQ     -0.145000
     14 C19         0.8470    1.2980   -4.1340 ca        1 NJQ     -0.135500
     15 C20         1.9830    0.8650   -3.4500 ca        1 NJQ     -0.129000
     16 C21         0.9340    1.4460   -1.3510 ca        1 NJQ     -0.129000
     17 C22        -0.1990    1.8750   -2.0370 ca        1 NJQ     -0.135500
     18 C28         3.0210   -3.4860   -2.5170 c         1 NJQ      0.566600
     19 O29         3.3330   -4.4940   -1.8500 o         1 NJQ     -0.605100
     20 C30         2.9120   -3.6390   -4.0250 ca        1 NJQ      0.369800
     21 C32         2.4280   -4.8790   -4.4970 ca        1 NJQ     -0.201300
     22 C33         2.3390   -5.0740   -5.8740 ca        1 NJQ     -0.105000
     23 C34         2.7360   -4.0490   -6.7310 ca        1 NJQ     -0.240300
     24 C35         3.2180   -2.8410   -6.1780 ca        1 NJQ      0.407600
     25 N36         3.3010   -2.6350   -4.8410 nb        1 NJQ     -0.656000
     26 C37         3.6650   -1.7470   -7.1080 c3        1 NJQ     -0.125700
     27 C41         2.6230   -0.6440   -7.2400 c3        1 NJQ     -0.064700
     28 C44         1.3980   -1.1350   -7.9980 c3        1 NJQ     -0.074400
     29 C45         3.2310    0.5590   -7.9510 c3        1 NJQ     -0.074400
     30 C47         0.9770    1.1790   -8.8480 c3        1 NJQ     -0.076400
     31 C48         2.2120    1.6660   -8.1170 c3        1 NJQ     -0.077900
     32 C57         0.3760   -0.0290   -8.1580 c3        1 NJQ     -0.077900
     33 H1          3.6900    1.4240   -0.8060 hc        1 NJQ      0.053200
     34 H1A         4.0420    0.1520   -2.0340 hc        1 NJQ      0.053200
     35 H3          3.1240    0.8930    1.3560 ha        1 NJQ      0.154000
     36 H5          2.4110   -3.1650    2.5410 ha        1 NJQ      0.156000
     37 H6          2.4310   -3.8980    0.1520 ha        1 NJQ      0.142000
     38 HN8         2.5410   -1.5040   -2.6280 hn        1 NJQ      0.331500
     39 H18        -1.1390    2.1440   -3.9700 ha        1 NJQ      0.118000
     40 H19         0.8140    1.2340   -5.2320 ha        1 NJQ      0.123500
     41 H20         2.8390    0.4610   -4.0120 ha        1 NJQ      0.145500
     42 H21         0.9730    1.4860   -0.2490 ha        1 NJQ      0.145500
     43 H22        -1.0610    2.2680   -1.4780 ha        1 NJQ      0.123500
     44 H32         2.1500   -5.6620   -3.7760 ha        1 NJQ      0.168000
     45 H33         1.9640   -6.0260   -6.2780 ha        1 NJQ      0.135000
     46 H34         2.6780   -4.1690   -7.8200 ha        1 NJQ      0.137000
     47 H37         4.6250   -1.3000   -6.7320 hc        1 NJQ      0.054200
     48 H37A        3.8730   -2.1910   -8.1170 hc        1 NJQ      0.054200
     49 H41         2.3030   -0.3210   -6.2080 hc        1 NJQ      0.071700
     50 H44         0.9420   -1.9980   -7.4460 hc        1 NJQ      0.038950
     51 H44A        1.7080   -1.5070   -9.0100 hc        1 NJQ      0.038950
     52 H45         3.6140    0.2430   -8.9560 hc        1 NJQ      0.038950
     53 H45A        4.1040    0.9400   -7.3600 hc        1 NJQ      0.038950
     54 H47         1.2490    0.9090   -9.9020 hc        1 NJQ      0.035200
     55 H47A        0.2180    2.0020   -8.8950 hc        1 NJQ      0.035200
     56 H48         1.9160    2.0550   -7.1060 hc        1 NJQ      0.041200
     57 H48A        2.6730    2.5160   -8.6840 hc        1 NJQ      0.041200
     58 H57        -0.0100    0.2720   -7.1480 hc        1 NJQ      0.041200
     59 H57A       -0.4960   -0.4070   -8.7530 hc        1 NJQ      0.041200
@<TRIPOS>BOND
     1    1    2 1   
     2    1   12 1   
     3    1   33 1   
     4    1   34 1   
     5    2    3 ar  
     6    2    7 ar  
     7    3    4 ar  
     8    3   35 1   
     9    4    5 ar  
    10    4    9 1   
    11    5    6 ar  
    12    5   36 1   
    13    6    7 ar  
    14    6   37 1   
    15    7    8 1   
    16    8   18 1   
    17    8   38 1   
    18    9   10 1   
    19    9   11 1   
    20   12   15 ar  
    21   12   16 ar  
    22   13   14 ar  
    23   13   17 ar  
    24   13   39 1   
    25   14   15 ar  
    26   14   40 1   
    27   15   41 1   
    28   16   17 ar  
    29   16   42 1   
    30   17   43 1   
    31   18   19 2   
    32   18   20 1   
    33   20   21 ar  
    34   20   25 ar  
    35   21   22 ar  
    36   21   44 1   
    37   22   23 ar  
    38   22   45 1   
    39   23   24 ar  
    40   23   46 1   
    41   24   25 ar  
    42   24   26 1   
    43   26   27 1   
    44   26   47 1   
    45   26   48 1   
    46   27   28 1   
    47   27   29 1   
    48   27   49 1   
    49   28   32 1   
    50   28   50 1   
    51   28   51 1   
    52   29   31 1   
    53   29   52 1   
    54   29   53 1   
    55   30   31 1   
    56   30   32 1   
    57   30   54 1   
    58   30   55 1   
    59   31   56 1   
    60   31   57 1   
    61   32   58 1   
    62   32   59 1   
@<TRIPOS>SUBSTRUCTURE
     1 NJQ         1 TEMP              0 ****  ****    0 ROOT
