@<TRIPOS>MOLECULE
NJQ
   59    62     1     0     0
SMALL
bcc


@<TRIPOS>ATOM
      1 C1         -1.5830   -1.6120    0.9250 c3        1 NJQ      0.007200
      2 C2         -2.6460   -1.3970   -0.1000 ca        1 NJQ     -0.149300
      3 C3         -3.9390   -1.8490    0.1730 ca        1 NJQ     -0.091000
      4 C4         -4.9780   -1.6980   -0.7460 ca        1 NJQ     -0.134600
      5 C5         -4.7070   -1.0880   -1.9720 ca        1 NJQ     -0.089000
      6 C6         -3.4320   -0.6200   -2.2730 ca        1 NJQ     -0.167000
      7 C7         -2.3840   -0.7570   -1.3410 ca        1 NJQ      0.029600
      8 N8         -1.0900   -0.2390   -1.5880 n         1 NJQ     -0.436100
      9 C9         -6.3790   -2.1860   -0.4050 c         1 NJQ      0.909200
     10 O10        -6.5630   -2.6910    0.7390 o         1 NJQ     -0.829800
     11 O11        -7.2800   -2.0550   -1.2800 o         1 NJQ     -0.829800
     12 C15        -1.2330   -0.3670    1.6700 ca        1 NJQ     -0.069300
     13 C18        -0.5910    1.9420    3.1190 ca        1 NJQ     -0.145000
     14 C19         0.4060    1.2400    2.4450 ca        1 NJQ     -0.135500
     15 C20         0.0880    0.0900    1.7220 ca        1 NJQ     -0.130000
     16 C21        -2.2320    0.3450    2.3480 ca        1 NJQ     -0.130000
     17 C22        -1.9110    1.4930    3.0680 ca        1 NJQ     -0.135500
     18 C28        -0.5340    0.0110   -2.8160 c         1 NJQ      0.568600
     19 O29        -1.1150   -0.0980   -3.9140 o         1 NJQ     -0.602100
     20 C30         0.8970    0.5240   -2.8170 ca        1 NJQ      0.368800
     21 C32         1.1800    1.6080   -3.6740 ca        1 NJQ     -0.203300
     22 C33         2.4920    2.0750   -3.7390 ca        1 NJQ     -0.103000
     23 C34         3.4720    1.4490   -2.9710 ca        1 NJQ     -0.242300
     24 C35         3.1060    0.3630   -2.1430 ca        1 NJQ      0.408600
     25 N36         1.8320   -0.0890   -2.0580 nb        1 NJQ     -0.653000
     26 C37         4.1850   -0.3280   -1.3560 c3        1 NJQ     -0.130700
     27 C41         4.7290    0.5490   -0.2370 c3        1 NJQ     -0.059700
     28 C44         6.0910    0.0320    0.2100 c3        1 NJQ     -0.075900
     29 C45         3.7700    0.5900    0.9450 c3        1 NJQ     -0.075900
     30 C47         5.6920    0.9380    2.5090 c3        1 NJQ     -0.076400
     31 C48         4.3280    1.4330    2.0720 c3        1 NJQ     -0.075900
     32 C57         6.6520    0.8720    1.3390 c3        1 NJQ     -0.075900
     33 H1         -1.9440   -2.3730    1.6730 hc        1 NJQ      0.052700
     34 H1A        -0.6650   -2.0500    0.4460 hc        1 NJQ      0.052700
     35 H3         -4.1700   -2.3410    1.1340 ha        1 NJQ      0.154000
     36 H5         -5.5310   -0.9830   -2.6970 ha        1 NJQ      0.156000
     37 H6         -3.2460   -0.1460   -3.2490 ha        1 NJQ      0.145000
     38 HN8        -0.5020   -0.1610   -0.7860 hn        1 NJQ      0.328500
     39 H18        -0.3390    2.8490    3.6870 ha        1 NJQ      0.118000
     40 H19         1.4480    1.5910    2.4770 ha        1 NJQ      0.123500
     41 H20         0.8830   -0.4570    1.1930 ha        1 NJQ      0.145000
     42 H21        -3.2750   -0.0100    2.2910 ha        1 NJQ      0.145000
     43 H22        -2.7020    2.0470    3.5940 ha        1 NJQ      0.123500
     44 H32         0.3740    2.0470   -4.2800 ha        1 NJQ      0.165000
     45 H33         2.7500    2.9210   -4.3920 ha        1 NJQ      0.135000
     46 H34         4.5170    1.7840   -3.0040 ha        1 NJQ      0.137000
     47 H37         3.8130   -1.2950   -0.9240 hc        1 NJQ      0.059700
     48 H37A        5.0160   -0.5780   -2.0710 hc        1 NJQ      0.059700
     49 H41         4.8590    1.5980   -0.6270 hc        1 NJQ      0.047700
     50 H44         5.9900   -1.0330    0.5460 hc        1 NJQ      0.044950
     51 H44A        6.8020    0.0480   -0.6560 hc        1 NJQ      0.044950
     52 H45         2.7820    1.0040    0.6130 hc        1 NJQ      0.044950
     53 H45A        3.5860   -0.4540    1.3130 hc        1 NJQ      0.044950
     54 H47         6.1060    1.6190    3.2970 hc        1 NJQ      0.037700
     55 H47A        5.5890   -0.0820    2.9650 hc        1 NJQ      0.037700
     56 H48         4.4080    2.5010    1.7370 hc        1 NJQ      0.037450
     57 H48A        3.6230    1.4050    2.9440 hc        1 NJQ      0.037450
     58 H57         7.6280    0.4370    1.6780 hc        1 NJQ      0.037450
     59 H57A        6.8560    1.9100    0.9660 hc        1 NJQ      0.037450
@<TRIPOS>BOND
     1    1    2 1   
     2    1   12 1   
     3    1   33 1   
     4    1   34 1   
     5    2    3 ar  
     6    2    7 ar  
     7    3    4 ar  
     8    3   35 1   
     9    4    5 ar  
    10    4    9 1   
    11    5    6 ar  
    12    5   36 1   
    13    6    7 ar  
    14    6   37 1   
    15    7    8 1   
    16    8   18 1   
    17    8   38 1   
    18    9   10 1   
    19    9   11 1   
    20   12   15 ar  
    21   12   16 ar  
    22   13   14 ar  
    23   13   17 ar  
    24   13   39 1   
    25   14   15 ar  
    26   14   40 1   
    27   15   41 1   
    28   16   17 ar  
    29   16   42 1   
    30   17   43 1   
    31   18   19 2   
    32   18   20 1   
    33   20   21 ar  
    34   20   25 ar  
    35   21   22 ar  
    36   21   44 1   
    37   22   23 ar  
    38   22   45 1   
    39   23   24 ar  
    40   23   46 1   
    41   24   25 ar  
    42   24   26 1   
    43   26   27 1   
    44   26   47 1   
    45   26   48 1   
    46   27   28 1   
    47   27   29 1   
    48   27   49 1   
    49   28   32 1   
    50   28   50 1   
    51   28   51 1   
    52   29   31 1   
    53   29   52 1   
    54   29   53 1   
    55   30   31 1   
    56   30   32 1   
    57   30   54 1   
    58   30   55 1   
    59   31   56 1   
    60   31   57 1   
    61   32   58 1   
    62   32   59 1   
@<TRIPOS>SUBSTRUCTURE
     1 NJQ         1 TEMP              0 ****  ****    0 ROOT
