@<TRIPOS>MOLECULE
NK
   15    15     1     0     0
SMALL
bcc


@<TRIPOS>ATOM
      1 OAH        -2.8460   -0.8110    0.0560 o         1 NK      -0.539100
      2 CAD        -2.0110    0.0950   -0.0210 c         1 NK       0.584500
      3 CAA        -0.5610   -0.1470   -0.0330 ca        1 NK      -0.224600
      4 CAC        -0.0490   -1.4480    0.0460 ca        1 NK      -0.040000
      5 CAG         1.3240   -1.6780    0.0350 ca        1 NK      -0.180000
      6 CAI         2.2110   -0.6030   -0.0540 ca        1 NK      -0.061000
      7 CAE         1.7320    0.7010   -0.1330 ca        1 NK      -0.230000
      8 CAB         0.3470    0.9290   -0.1220 ca        1 NK       0.167100
      9 OAF        -0.1830    2.1940   -0.1980 oh        1 NK      -0.498100
     10 HAD        -2.3130    1.1650   -0.0880 h4        1 NK       0.019200
     11 HAC        -0.7600   -2.2880    0.1160 ha        1 NK       0.158000
     12 HAG         1.7100   -2.7050    0.0970 ha        1 NK       0.141000
     13 HAI         3.2970   -0.7860   -0.0620 ha        1 NK       0.137000
     14 HAE         2.4290    1.5480   -0.2040 ha        1 NK       0.138000
     15 HAF         0.5500    2.8260   -0.2550 ho        1 NK       0.427000
@<TRIPOS>BOND
     1    1    2 2   
     2    2    3 1   
     3    2   10 1   
     4    3    4 ar  
     5    3    8 ar  
     6    4    5 ar  
     7    4   11 1   
     8    5    6 ar  
     9    5   12 1   
    10    6    7 ar  
    11    6   13 1   
    12    7    8 ar  
    13    7   14 1   
    14    8    9 1   
    15    9   15 1   
@<TRIPOS>SUBSTRUCTURE
     1 NK          1 TEMP              0 ****  ****    0 ROOT
