@<TRIPOS>MOLECULE
NK
   15    12     1     0     0
SMALL
bcc


@<TRIPOS>ATOM
      1 OAH        -2.1710    0.0430   -2.1220 o         1 NK      -0.268000
      2 CAD        -0.9550    0.0430   -2.1220 c1        1 NK       0.227000
      3 CAA        -0.1980    0.0430   -0.8110 c1        1 NK      -0.205000
      4 CAC         1.1880    0.0430   -0.8120 c2        1 NK      -0.057000
      5 CAG         1.8810    0.0430    0.3890 c1        1 NK      -0.182000
      6 CAI         1.1880    0.0430    1.5890 c1        1 NK      -0.146500
      7 CAE        -0.1980    0.0430    1.5890 c1        1 NK      -0.146500
      8 CAB        -0.8910    0.0430    0.3890 c1        1 NK       0.141000
      9 OAF        -2.2980    0.0560    0.3890 oh        1 NK      -0.215000
     10 HAD        -0.4670    0.0430   -2.9670 ha        1 NK       0.083000
     11 HAC         1.6760    0.0430   -1.6570 ha        1 NK       0.136000
     12 HAG         2.8570    0.0430    0.3890 ha        1 NK       0.139000
     13 HAI         1.6760    0.0430    2.4350 ha        1 NK       0.138000
     14 HAE        -0.6860    0.0430    2.4350 ha        1 NK       0.138000
     15 HAF        -2.6010   -0.6130    0.8870 ho        1 NK       0.218000
@<TRIPOS>BOND
     1    1    2 1   
     2    2   10 1   
     3    3    4 1   
     4    3    8 1   
     5    4    5 1   
     6    4   11 1   
     7    5   12 1   
     8    6    7 1   
     9    6   13 1   
    10    7   14 1   
    11    8    9 1   
    12    9   15 1   
@<TRIPOS>SUBSTRUCTURE
     1 NK          1 TEMP              0 ****  ****    0 ROOT
