@<TRIPOS>MOLECULE
NK
   15    15     1     0     0
SMALL
bcc


@<TRIPOS>ATOM
      1 OAH        -0.0870    0.0500   -0.0490 o         1 NK      -0.539100
      2 CAD         1.1430   -0.0300    0.0010 c         1 NK       0.584500
      3 CAA         1.8970   -0.0380    1.2630 ca        1 NK      -0.224600
      4 CAC         1.2370    0.0480    2.4950 ca        1 NK      -0.040000
      5 CAG         1.9510    0.0410    3.6900 ca        1 NK      -0.180000
      6 CAI         3.3440   -0.0520    3.6710 ca        1 NK      -0.061000
      7 CAE         4.0280   -0.1380    2.4620 ca        1 NK      -0.230000
      8 CAB         3.3040   -0.1310    1.2590 ca        1 NK       0.167100
      9 OAF         3.9260   -0.2130    0.0360 oh        1 NK      -0.498100
     10 HAD         1.7620   -0.1020   -0.9210 h4        1 NK       0.019200
     11 HAC         0.1360    0.1210    2.4970 ha        1 NK       0.158000
     12 HAG         1.4170    0.1080    4.6490 ha        1 NK       0.141000
     13 HAI         3.9070   -0.0580    4.6170 ha        1 NK       0.137000
     14 HAE         5.1240   -0.2110    2.4460 ha        1 NK       0.138000
     15 HAF         4.8810   -0.2710    0.1860 ho        1 NK       0.427000
@<TRIPOS>BOND
     1    1    2 2   
     2    2    3 1   
     3    2   10 1   
     4    3    4 ar  
     5    3    8 ar  
     6    4    5 ar  
     7    4   11 1   
     8    5    6 ar  
     9    5   12 1   
    10    6    7 ar  
    11    6   13 1   
    12    7    8 ar  
    13    7   14 1   
    14    8    9 1   
    15    9   15 1   
@<TRIPOS>SUBSTRUCTURE
     1 NK          1 TEMP              0 ****  ****    0 ROOT
