@<TRIPOS>MOLECULE
NK0
   55    59     1     0     0
SMALL
bcc


@<TRIPOS>ATOM
      1 C1         -7.1380   -1.3200    1.5670 ca        1 NK0     -0.140500
      2 N1         -1.9150   -1.3210    0.1780 na        1 NK0      0.215200
      3 O1         -5.0480    1.6770   -1.4210 o         1 NK0     -0.542100
      4 C2         -8.2580   -1.4910    0.7520 ca        1 NK0     -0.108000
      5 N2          0.8570   -1.1090    0.4330 nc        1 NK0     -0.787000
      6 O2          5.3420   -0.6250   -2.1500 o         1 NK0     -0.593100
      7 C3         -8.2690   -0.9610   -0.5380 ca        1 NK0     -0.140500
      8 N3         -1.2260   -2.4100    0.5590 nd        1 NK0     -0.551800
      9 C4         -7.1620   -0.2600   -1.0140 ca        1 NK0     -0.091000
     10 N4          0.8050    1.1840   -0.2640 nh        1 NK0     -0.729300
     11 C5         -6.0300   -0.1020   -0.2050 ca        1 NK0     -0.165600
     12 N5          6.5860   -0.4580   -0.2240 n         1 NK0     -0.540900
     13 C6         -6.0250   -0.6300    1.0910 ca        1 NK0     -0.091000
     14 C7         -4.8710    0.6610   -0.7320 c         1 NK0      0.619900
     15 C8         -3.5430    0.1480   -0.4140 cc        1 NK0     -0.240200
     16 C9         -3.2760   -1.1850   -0.0090 cd        1 NK0     -0.061100
     17 C10        -1.2860   -0.0570   -0.1060 cd        1 NK0     -0.288600
     18 C11        -2.2970    0.8540   -0.4820 cc        1 NK0     -0.016200
     19 C12        -2.1200    2.2560   -0.8690 c3        1 NK0     -0.061900
     20 C13         0.1730   -0.0090    0.0410 cd        1 NK0      0.758200
     21 C14         0.0970   -2.2440    0.6600 cc        1 NK0      0.644900
     22 C15         2.1830    1.4260   -0.0700 ca        1 NK0      0.127600
     23 C16         3.1500    0.5460   -0.5960 ca        1 NK0     -0.059000
     24 C17         4.5090    0.8200   -0.4300 ca        1 NK0     -0.132600
     25 C18         4.9230    1.9790    0.2300 ca        1 NK0     -0.110000
     26 C19         3.9710    2.8600    0.7330 ca        1 NK0     -0.124000
     27 C20         2.6040    2.6020    0.6040 ca        1 NK0     -0.085300
     28 C21         1.6230    3.5630    1.1620 c3        1 NK0     -0.063800
     29 C22         5.4940   -0.1400   -1.0120 c         1 NK0      0.678700
     30 C23         7.5640   -1.4010   -0.6300 cx        1 NK0      0.053700
     31 C24         8.1210   -2.4380    0.3280 cx        1 NK0     -0.154400
     32 C25         8.9960   -1.3110   -0.1370 cx        1 NK0     -0.154400
     33 H1         -7.1330   -1.7290    2.5880 ha        1 NK0      0.136500
     34 H2         -9.1340   -2.0400    1.1290 ha        1 NK0      0.135000
     35 H3         -9.1530   -1.0890   -1.1790 ha        1 NK0      0.136500
     36 H4         -7.1690    0.1800   -2.0240 ha        1 NK0      0.145500
     37 HN4         0.2230    1.9920   -0.3220 hn        1 NK0      0.453800
     38 HN5         6.6250   -0.1200    0.7080 hn        1 NK0      0.311500
     39 H6         -5.1440   -0.4910    1.7370 ha        1 NK0      0.145500
     40 H9         -3.9700   -2.0180    0.1380 h4        1 NK0      0.198000
     41 H12        -1.6890    2.8520   -0.0240 hc        1 NK0      0.060700
     42 H12A       -1.4410    2.3380   -1.7560 hc        1 NK0      0.060700
     43 H12B       -3.1040    2.7160   -1.1490 hc        1 NK0      0.060700
     44 H14         0.6760   -3.1380    0.9730 h5        1 NK0      0.067100
     45 H16         2.8540   -0.3620   -1.1500 ha        1 NK0      0.176000
     46 H18         5.9930    2.2110    0.3410 ha        1 NK0      0.141000
     47 H19         4.2990    3.7780    1.2460 ha        1 NK0      0.139000
     48 H21         0.9210    3.0500    1.8670 hc        1 NK0      0.049700
     49 H21A        2.1380    4.3810    1.7240 hc        1 NK0      0.049700
     50 H21B        1.0220    4.0340    0.3430 hc        1 NK0      0.049700
     51 H23         7.4000   -1.7140   -1.6890 h1        1 NK0      0.122700
     52 H24         7.7870   -2.4510    1.3810 hc        1 NK0      0.073950
     53 H24A        8.2970   -3.4570   -0.0580 hc        1 NK0      0.073950
     54 H25         9.8050   -1.5140   -0.8610 hc        1 NK0      0.073950
     55 H25A        9.2820   -0.5280    0.5870 hc        1 NK0      0.073950
@<TRIPOS>BOND
     1    1    4 ar  
     2    1   13 ar  
     3    1   33 1   
     4    2    8 1   
     5    2   16 1   
     6    2   17 1   
     7    3   14 2   
     8    4    7 ar  
     9    4   34 1   
    10    5   20 2   
    11    5   21 1   
    12    6   29 2   
    13    7    9 ar  
    14    7   35 1   
    15    8   21 2   
    16    9   11 ar  
    17    9   36 1   
    18   10   20 1   
    19   10   22 1   
    20   10   37 1   
    21   11   13 ar  
    22   11   14 1   
    23   12   29 1   
    24   12   30 1   
    25   12   38 1   
    26   13   39 1   
    27   14   15 1   
    28   15   16 2   
    29   15   18 1   
    30   16   40 1   
    31   17   18 2   
    32   17   20 1   
    33   18   19 1   
    34   19   41 1   
    35   19   42 1   
    36   19   43 1   
    37   21   44 1   
    38   22   23 ar  
    39   22   27 ar  
    40   23   24 ar  
    41   23   45 1   
    42   24   25 ar  
    43   24   29 1   
    44   25   26 ar  
    45   25   46 1   
    46   26   27 ar  
    47   26   47 1   
    48   27   28 1   
    49   28   48 1   
    50   28   49 1   
    51   28   50 1   
    52   30   31 1   
    53   30   32 1   
    54   30   51 1   
    55   31   32 1   
    56   31   52 1   
    57   31   53 1   
    58   32   54 1   
    59   32   55 1   
@<TRIPOS>SUBSTRUCTURE
     1 NK0         1 TEMP              0 ****  ****    0 ROOT
