@<TRIPOS>MOLECULE
NK0
   56    60     1     0     0
SMALL
bcc


@<TRIPOS>ATOM
      1 C1         -0.0800    0.9490    0.2600 ca        1 NK0     -0.138000
      2 N1         -3.6900   -1.9490    3.0660 na        1 NK0      0.201200
      3 O1          0.0710   -0.0070    4.8940 o         1 NK0     -0.531100
      4 C2          1.2910    0.7500    0.0920 ca        1 NK0     -0.099000
      5 N2         -6.1260   -2.6450    4.2380 nc        1 NK0     -0.804000
      6 O2         -8.5610   -5.7470    7.3570 o         1 NK0     -0.412100
      7 C3          2.0560    0.2410    1.1420 ca        1 NK0     -0.138000
      8 N3         -4.5680   -2.6540    2.3370 nd        1 NK0     -0.508800
      9 C4          1.4520   -0.0710    2.3590 ca        1 NK0     -0.089000
     10 N4         -5.5180   -1.5640    6.2940 nu        1 NK0     -0.741300
     11 C5          0.0720    0.1110    2.5250 ca        1 NK0     -0.174600
     12 N5        -10.6430   -4.7110    7.3240 ny        1 NK0     -0.648800
     13 C6         -0.6900    0.6290    1.4710 ca        1 NK0     -0.089000
     14 C7         -0.5380   -0.2130    3.8340 c         1 NK0      0.616900
     15 C8         -1.8760   -0.8050    3.8170 cc        1 NK0     -0.225200
     16 C9         -2.4320   -1.4980    2.7120 cd        1 NK0     -0.040100
     17 C10        -3.9550   -1.5380    4.4250 cd        1 NK0     -0.295600
     18 C11        -2.8240   -0.8340    4.8910 cc        1 NK0     -0.006200
     19 C12        -2.6410   -0.2400    6.2190 c3        1 NK0     -0.065900
     20 C13        -5.2480   -1.9370    4.9760 cd        1 NK0      0.751200
     21 C14        -5.7130   -2.9600    2.9470 cc        1 NK0      0.627900
     22 C15        -6.7310   -1.8140    6.9520 ca        1 NK0      0.163600
     23 C16        -7.3380   -3.0880    6.8910 ca        1 NK0     -0.044000
     24 C17        -8.5420   -3.3250    7.5650 ca        1 NK0     -0.193600
     25 C18        -9.1330   -2.3270    8.3510 ca        1 NK0     -0.116000
     26 C19        -8.5150   -1.0880    8.4480 ca        1 NK0     -0.106000
     27 C20        -7.3310   -0.8040    7.7550 ca        1 NK0     -0.042300
     28 C21        -6.7220    0.5400    7.8790 c3        1 NK0     -0.082800
     29 C22        -9.1170   -4.6630    7.4370 c         1 NK0      0.589700
     30 C23       -11.2530   -5.4370    8.4480 cx        1 NK0     -0.002500
     31 C24       -12.7570   -5.4550    8.6330 cx        1 NK0     -0.102900
     32 C25       -11.9010   -4.7030    9.6040 cx        1 NK0     -0.102900
     33 H1         -0.6810    1.3630   -0.5630 ha        1 NK0      0.142000
     34 H2          1.7700    1.0000   -0.8670 ha        1 NK0      0.142000
     35 H3          3.1380    0.0900    1.0140 ha        1 NK0      0.142000
     36 H4          2.0520   -0.4530    3.2010 ha        1 NK0      0.144000
     37 HN4        -4.9520   -0.8280    6.6650 hn        1 NK0      0.466800
     38 HN5       -11.0130   -3.7560    7.2720 hn        1 NK0      0.457800
     39 H6         -1.7700    0.7990    1.6050 ha        1 NK0      0.144000
     40 H9         -1.9990   -1.6920    1.7250 h4        1 NK0      0.208000
     41 H12        -1.6160    0.2070    6.3130 hc        1 NK0      0.063033
     42 H12A       -2.7470   -1.0170    7.0180 hc        1 NK0      0.063033
     43 H12B       -3.3890    0.5750    6.3970 hc        1 NK0      0.063033
     44 H14        -6.4450   -3.5420    2.3490 h5        1 NK0      0.069100
     45 H16        -6.8710   -3.9090    6.3180 ha        1 NK0      0.186000
     46 H18       -10.0520   -2.5160    8.9260 ha        1 NK0      0.131000
     47 H19        -8.9660   -0.3040    9.0800 ha        1 NK0      0.163000
     48 H21        -7.3710    1.2260    8.4800 hc        1 NK0      0.069367
     49 H21A       -6.5740    1.0030    6.8700 hc        1 NK0      0.069367
     50 H21B       -5.7270    0.4750    8.3910 hc        1 NK0      0.069367
     51 H23       -10.6720   -6.3690    8.6540 hx        1 NK0      0.157700
     52 H24       -13.2200   -6.4160    8.9340 hc        1 NK0      0.109700
     53 H24A      -13.4090   -4.8900    7.9400 hc        1 NK0      0.109700
     54 H25       -11.7330   -5.1080   10.6210 hc        1 NK0      0.109700
     55 H25A      -11.9410   -3.5970    9.6080 hc        1 NK0      0.109700
     56 H52       -10.8860   -5.2080    6.4570 hn        1 NK0      0.457800
@<TRIPOS>BOND
     1    1    4 ar  
     2    1   13 ar  
     3    1   33 1   
     4    2    8 1   
     5    2   16 1   
     6    2   17 1   
     7    3   14 2   
     8    4    7 ar  
     9    4   34 1   
    10    5   20 2   
    11    5   21 1   
    12    6   29 2   
    13    7    9 ar  
    14    7   35 1   
    15    8   21 2   
    16    9   11 ar  
    17    9   36 1   
    18   10   20 1   
    19   10   22 1   
    20   10   37 1   
    21   11   13 ar  
    22   11   14 1   
    23   12   29 1   
    24   12   30 1   
    25   12   38 1   
    26   12   56 1   
    27   13   39 1   
    28   14   15 1   
    29   15   16 2   
    30   15   18 1   
    31   16   40 1   
    32   17   18 2   
    33   17   20 1   
    34   18   19 1   
    35   19   41 1   
    36   19   42 1   
    37   19   43 1   
    38   21   44 1   
    39   22   23 ar  
    40   22   27 ar  
    41   23   24 ar  
    42   23   45 1   
    43   24   25 ar  
    44   24   29 1   
    45   25   26 ar  
    46   25   46 1   
    47   26   27 ar  
    48   26   47 1   
    49   27   28 1   
    50   28   48 1   
    51   28   49 1   
    52   28   50 1   
    53   30   31 1   
    54   30   32 1   
    55   30   51 1   
    56   31   32 1   
    57   31   52 1   
    58   31   53 1   
    59   32   54 1   
    60   32   55 1   
@<TRIPOS>SUBSTRUCTURE
     1 NK0         1 TEMP              0 ****  ****    0 ROOT
