@<TRIPOS>MOLECULE
NK0
   57    61     1     0     0
SMALL
bcc


@<TRIPOS>ATOM
      1 C1         -0.3510    1.3690    0.5720 ca        1 NK0     -0.131000
      2 N1         -3.5630   -2.1930    3.1130 na        1 NK0      0.197200
      3 O1          0.0870   -0.1780    5.0460 o         1 NK0     -0.509100
      4 C2          1.0310    1.3890    0.3680 ca        1 NK0     -0.080000
      5 N2         -5.8610   -3.2390    4.3010 nc        1 NK0     -0.685000
      6 O2         -9.6540   -5.1210    6.4100 o         1 NK0     -0.389100
      7 C3          1.8880    0.8740    1.3410 ca        1 NK0     -0.131000
      8 N3         -4.4030   -2.8960    2.3570 nd        1 NK0     -0.412800
      9 C4          1.3670    0.3370    2.5170 ca        1 NK0     -0.086000
     10 N4         -5.2930   -2.3610    6.4970 n4        1 NK0     -0.630100
     11 C5         -0.0210    0.2970    2.7160 ca        1 NK0     -0.193600
     12 N5        -11.1700   -4.0070    7.7880 n4        1 NK0     -0.632800
     13 C6         -0.8770    0.8240    1.7400 ca        1 NK0     -0.086000
     14 C7         -0.5330   -0.2610    3.9780 c         1 NK0      0.612900
     15 C8         -1.8300   -0.9650    3.9320 cc        1 NK0     -0.175200
     16 C9         -2.3620   -1.5910    2.7760 cd        1 NK0     -0.002100
     17 C10        -3.8050   -1.9460    4.5340 cd        1 NK0     -0.303600
     18 C11        -2.7200   -1.1850    5.0270 cc        1 NK0     -0.010200
     19 C12        -2.5380   -0.7110    6.4020 c3        1 NK0     -0.083900
     20 C13        -5.0130   -2.5330    5.0450 cd        1 NK0      0.570200
     21 C14        -5.4930   -3.3810    2.9570 cc        1 NK0      0.603900
     22 C15        -6.7030   -2.0910    6.8040 ca        1 NK0     -0.044400
     23 C16        -7.6150   -3.1600    6.8000 ca        1 NK0      0.002000
     24 C17        -8.9660   -2.9210    7.0950 ca        1 NK0     -0.187600
     25 C18        -9.4010   -1.6150    7.3670 ca        1 NK0     -0.045000
     26 C19        -8.4900   -0.5650    7.3630 ca        1 NK0     -0.110000
     27 C20        -7.1300   -0.7720    7.0820 ca        1 NK0      0.039700
     28 C21        -6.2010    0.3800    7.0870 c3        1 NK0     -0.115800
     29 C22        -9.8630   -4.0870    7.0270 c         1 NK0      0.564700
     30 C23       -11.4860   -5.2630    8.4980 cx        1 NK0     -0.018500
     31 C24       -12.6610   -5.3220    9.4550 cx        1 NK0     -0.094400
     32 C25       -11.2650   -5.3960    9.9910 cx        1 NK0     -0.094400
     33 H1         -1.0240    1.7910   -0.1900 ha        1 NK0      0.153000
     34 H2          1.4430    1.8200   -0.5590 ha        1 NK0      0.156000
     35 H3          2.9780    0.8980    1.1850 ha        1 NK0      0.153000
     36 H4          2.0400   -0.0520    3.2990 ha        1 NK0      0.141500
     37 HN4        -4.7080   -1.5780    6.8410 hn        1 NK0      0.483300
     38 HN5       -11.1380   -3.2320    8.4590 hn        1 NK0      0.463800
     39 H6         -1.9650    0.8320    1.9040 ha        1 NK0      0.141500
     40 H9         -1.9480   -1.6390    1.7580 h4        1 NK0      0.235000
     41 H12        -2.4970   -1.5680    7.1220 hc        1 NK0      0.072033
     42 H12A       -3.3580   -0.0060    6.6980 hc        1 NK0      0.072033
     43 H12B       -1.5630   -0.1560    6.5000 hc        1 NK0      0.072033
     44 H14        -6.1970   -3.9730    2.3290 h5        1 NK0      0.109100
     45 H16        -7.2940   -4.1900    6.5470 ha        1 NK0      0.195000
     46 H18       -10.4610   -1.3810    7.5610 ha        1 NK0      0.157000
     47 H19        -8.8420    0.4620    7.5750 ha        1 NK0      0.195000
     48 H21        -5.6770    0.4810    6.1010 hc        1 NK0      0.091700
     49 H21A       -5.4360    0.2730    7.9000 hc        1 NK0      0.091700
     50 H21B       -6.7480    1.3410    7.2720 hc        1 NK0      0.091700
     51 H23       -11.2830   -6.1390    7.8340 hx        1 NK0      0.166700
     52 H24       -13.2670   -4.4180    9.6540 hc        1 NK0      0.117200
     53 H24A      -13.2920   -6.2340    9.4250 hc        1 NK0      0.117200
     54 H25       -10.8660   -6.3630   10.3610 hc        1 NK0      0.117200
     55 H25A      -10.8700   -4.5450   10.5760 hc        1 NK0      0.117200
     56 H42        -5.0030   -3.2280    6.9770 hn        1 NK0      0.483300
     57 H52       -11.9270   -3.8300    7.1120 hn        1 NK0      0.463800
@<TRIPOS>BOND
     1    1    4 ar  
     2    1   13 ar  
     3    1   33 1   
     4    2    8 1   
     5    2   16 1   
     6    2   17 1   
     7    3   14 2   
     8    4    7 ar  
     9    4   34 1   
    10    5   20 2   
    11    5   21 1   
    12    6   29 2   
    13    7    9 ar  
    14    7   35 1   
    15    8   21 2   
    16    9   11 ar  
    17    9   36 1   
    18   10   20 1   
    19   10   22 1   
    20   10   37 1   
    21   10   56 1   
    22   11   13 ar  
    23   11   14 1   
    24   12   29 1   
    25   12   30 1   
    26   12   38 1   
    27   12   57 1   
    28   13   39 1   
    29   14   15 1   
    30   15   16 2   
    31   15   18 1   
    32   16   40 1   
    33   17   18 2   
    34   17   20 1   
    35   18   19 1   
    36   19   41 1   
    37   19   42 1   
    38   19   43 1   
    39   21   44 1   
    40   22   23 ar  
    41   22   27 ar  
    42   23   24 ar  
    43   23   45 1   
    44   24   25 ar  
    45   24   29 1   
    46   25   26 ar  
    47   25   46 1   
    48   26   27 ar  
    49   26   47 1   
    50   27   28 1   
    51   28   48 1   
    52   28   49 1   
    53   28   50 1   
    54   30   31 1   
    55   30   32 1   
    56   30   51 1   
    57   31   32 1   
    58   31   52 1   
    59   31   53 1   
    60   32   54 1   
    61   32   55 1   
@<TRIPOS>SUBSTRUCTURE
     1 NK0         1 TEMP              0 ****  ****    0 ROOT
