@<TRIPOS>MOLECULE
NK0
   55    47     1     0     0
SMALL
bcc


@<TRIPOS>ATOM
      1 C1          6.7070   -1.1780   -5.0730 c1        1 NK0     -0.120833
      2 N1          0.5830   -1.8150   -2.2200 n1        1 NK0     -0.063000
      3 O1          2.9700   -0.1780   -4.4400 o         1 NK0     -0.301000
      4 C2          7.6750   -1.0570   -4.0830 c1        1 NK0     -0.120833
      5 N2         -1.5660   -1.5670   -0.5430 n1        1 NK0     -0.256000
      6 O2         -3.2530    3.1010    1.9610 o         1 NK0     -0.363000
      7 C3          7.2960   -0.8800   -2.7570 c1        1 NK0     -0.120833
      8 N3         -0.5850   -2.4700   -2.5010 n1        1 NK0     -0.063000
      9 C4          5.9470   -0.8240   -2.4210 c1        1 NK0     -0.120833
     10 N4         -0.3450   -1.1260    1.1570 n3        1 NK0     -0.244000
     11 C5          4.9790   -0.9450   -3.4120 c1        1 NK0     -0.145000
     12 N5         -5.2130    2.2900    2.8460 n         1 NK0     -0.346000
     13 C6          5.3590   -1.1220   -4.7380 c1        1 NK0     -0.081000
     14 C7          3.4820   -0.6320   -3.4330 c2        1 NK0      0.340000
     15 C8          2.6280   -0.8990   -2.1950 c2        1 NK0     -0.221000
     16 C9          1.7920   -1.7340   -2.9040 c1        1 NK0     -0.021500
     17 C10         0.6750   -1.0470   -1.1150 c1        1 NK0     -0.199000
     18 C11         1.9560   -0.4690   -1.0940 c1        1 NK0     -0.021500
     19 C12         2.2650    0.8560   -0.3970 c2        1 NK0     -0.183000
     20 C13        -0.4180   -0.9220   -0.2640 c1        1 NK0      0.226000
     21 C14        -1.6580   -2.3460   -1.6640 c1        1 NK0     -0.024000
     22 C15        -1.4610   -0.7730    1.9920 c2        1 NK0      0.022000
     23 C16        -2.0670    0.4720    1.8530 c2        1 NK0     -0.091000
     24 C17        -3.0940    0.8470    2.7160 c1        1 NK0     -0.121000
     25 C18        -3.5140   -0.0230    3.7170 c1        1 NK0     -0.120833
     26 C19        -2.9090   -1.2690    3.8560 c1        1 NK0     -0.120833
     27 C20        -1.8830   -1.6440    2.9950 c1        1 NK0     -0.009000
     28 C21        -1.2370   -3.0240    3.1300 c3        1 NK0     -0.186000
     29 C22        -3.8250    2.1730    2.5010 c2        1 NK0      0.346000
     30 C23        -5.9290    3.5060    2.5530 cx        1 NK0     -0.035000
     31 C24        -5.3520    4.3590    1.4350 cx        1 NK0     -0.217000
     32 C25        -5.1990    4.7980    2.8820 cx        1 NK0     -0.217000
     33 H1          6.9750   -1.3030   -6.0080 ha        1 NK0      0.138167
     34 H2          8.6260   -1.0960   -4.3200 ha        1 NK0      0.138167
     35 H3          7.9790   -0.7940   -2.0580 ha        1 NK0      0.138167
     36 H4          5.6790   -0.6990   -1.4860 ha        1 NK0      0.138167
     37 HN4         0.4120   -1.4820    1.5310 hn        1 NK0      0.242000
     38 HN5        -5.6370    1.6000    3.2770 hn        1 NK0      0.230000
     39 H6          4.6760   -1.2080   -5.4360 ha        1 NK0      0.150000
     40 H9          2.0190   -2.2080   -3.7310 DU        1 NK0      0.197000
     41 H12         2.1250    0.7570    0.5720 ha        1 NK0      0.100333
     42 H12A        1.6690    1.5540   -0.7430 ha        1 NK0      0.100333
     43 H12B        3.1980    1.1060   -0.5690 ha        1 NK0      0.100333
     44 H14        -2.4940   -2.8160   -1.8670 ha        1 NK0      0.202000
     45 H16        -1.7710    1.0850    1.1480 ha        1 NK0      0.157000
     46 H18        -4.2380    0.2410    4.3250 ha        1 NK0      0.138167
     47 H19        -3.2050   -1.8830    4.5620 ha        1 NK0      0.138167
     48 H21        -1.7230   -3.5500    3.8040 hc        1 NK0      0.094667
     49 H21A       -0.3010   -2.9220    3.4080 hc        1 NK0      0.094667
     50 H21B       -1.2720   -3.4890    2.2650 hc        1 NK0      0.094667
     51 H23        -6.9060    3.5330    2.6480 h1        1 NK0      0.120000
     52 H24        -6.0050    4.8640    0.9030 hc        1 NK0      0.121000
     53 H24A       -4.5420    4.0100    1.0090 hc        1 NK0      0.121000
     54 H25        -5.7670    5.5500    3.1610 hc        1 NK0      0.121000
     55 H25A       -4.3030    4.6940    3.2660 hc        1 NK0      0.121000
@<TRIPOS>BOND
     1    1    4 1   
     2    1   33 1   
     3    2    8 1   
     4    3   14 1   
     5    4   34 1   
     6    5   21 1   
     7    6   29 1   
     8    7    9 1   
     9    7   35 1   
    10    9   36 1   
    11   10   20 1   
    12   10   22 1   
    13   10   37 1   
    14   11   13 1   
    15   11   14 1   
    16   12   29 1   
    17   12   30 1   
    18   12   38 1   
    19   13   39 1   
    20   14   15 1   
    21   15   16 1   
    22   15   18 1   
    23   17   20 1   
    24   19   41 1   
    25   19   42 1   
    26   19   43 1   
    27   21   44 1   
    28   22   23 1   
    29   22   27 1   
    30   23   24 1   
    31   23   45 1   
    32   24   29 1   
    33   25   26 1   
    34   25   46 1   
    35   26   47 1   
    36   27   28 1   
    37   28   48 1   
    38   28   49 1   
    39   28   50 1   
    40   30   31 1   
    41   30   32 1   
    42   30   51 1   
    43   31   32 1   
    44   31   52 1   
    45   31   53 1   
    46   32   54 1   
    47   32   55 1   
@<TRIPOS>SUBSTRUCTURE
     1 NK0         1 TEMP              0 ****  ****    0 ROOT
