@<TRIPOS>MOLECULE
NK0
   56    60     1     0     0
SMALL
bcc


@<TRIPOS>ATOM
      1 C1         -0.0770    0.9300    0.2530 ca        1 NK0     -0.138000
      2 N1         -3.6840   -1.9600    3.0710 na        1 NK0      0.201200
      3 O1          0.0650    0.0110    4.8940 o         1 NK0     -0.531100
      4 C2          1.2950    0.7360    0.0900 ca        1 NK0     -0.099000
      5 N2         -6.1200   -2.6570    4.2420 nc        1 NK0     -0.804000
      6 O2         -8.5510   -5.7450    7.3790 o         1 NK0     -0.412100
      7 C3          2.0590    0.2380    1.1460 ca        1 NK0     -0.138000
      8 N3         -4.5560   -2.6740    2.3450 nd        1 NK0     -0.508800
      9 C4          1.4530   -0.0670    2.3640 ca        1 NK0     -0.089000
     10 N4         -5.5220   -1.5580    6.2920 nh        1 NK0     -0.741300
     11 C5          0.0720    0.1110    2.5240 ca        1 NK0     -0.174600
     12 N5        -10.6360   -4.7180    7.3340 n4        1 NK0     -0.648800
     13 C6         -0.6890    0.6170    1.4640 ca        1 NK0     -0.089000
     14 C7         -0.5400   -0.2060    3.8340 c         1 NK0      0.616900
     15 C8         -1.8760   -0.8040    3.8180 cc        1 NK0     -0.225200
     16 C9         -2.4270   -1.5070    2.7170 cd        1 NK0     -0.040100
     17 C10        -3.9540   -1.5400    4.4260 cd        1 NK0     -0.295600
     18 C11        -2.8270   -0.8270    4.8900 cc        1 NK0     -0.006200
     19 C12        -2.6500   -0.2230    6.2130 c3        1 NK0     -0.065900
     20 C13        -5.2470   -1.9400    4.9770 cd        1 NK0      0.751200
     21 C14        -5.7020   -2.9810    2.9550 cc        1 NK0      0.627900
     22 C15        -6.7350   -1.8080    6.9490 ca        1 NK0      0.163600
     23 C16        -7.3370   -3.0840    6.8950 ca        1 NK0     -0.044000
     24 C17        -8.5420   -3.3210    7.5680 ca        1 NK0     -0.193600
     25 C18        -9.1390   -2.3190    8.3460 ca        1 NK0     -0.116000
     26 C19        -8.5250   -1.0770    8.4340 ca        1 NK0     -0.106000
     27 C20        -7.3410   -0.7940    7.7410 ca        1 NK0     -0.042300
     28 C21        -6.7380    0.5540    7.8570 c3        1 NK0     -0.082800
     29 C22        -9.1110   -4.6630    7.4490 c         1 NK0      0.589700
     30 C23       -11.2450   -5.4390    8.4620 cx        1 NK0     -0.002500
     31 C24       -12.7500   -5.4610    8.6440 cx        1 NK0     -0.102900
     32 C25       -11.8980   -4.6990    9.6110 cx        1 NK0     -0.102900
     33 H1         -0.6770    1.3350   -0.5760 ha        1 NK0      0.142000
     34 H2          1.7760    0.9810   -0.8690 ha        1 NK0      0.142000
     35 H3          3.1430    0.0910    1.0220 ha        1 NK0      0.142000
     36 H4          2.0520   -0.4400    3.2100 ha        1 NK0      0.144000
     37 HN4        -4.9600   -0.8170    6.6580 hn        1 NK0      0.466800
     38 HN5       -10.8760   -5.2220    6.4700 hn        1 NK0      0.457800
     39 H6         -1.7700    0.7830    1.5930 ha        1 NK0      0.144000
     40 H9         -1.9890   -1.7070    1.7330 h4        1 NK0      0.208000
     41 H12        -2.7550   -0.9940    7.0190 hc        1 NK0      0.063033
     42 H12A       -1.6270    0.2290    6.3070 hc        1 NK0      0.063033
     43 H12B       -3.4020    0.5910    6.3830 hc        1 NK0      0.063033
     44 H14        -6.4300   -3.5700    2.3590 h5        1 NK0      0.069100
     45 H16        -6.8650   -3.9080    6.3300 ha        1 NK0      0.186000
     46 H18       -10.0590   -2.5080    8.9190 ha        1 NK0      0.131000
     47 H19        -8.9820   -0.2910    9.0590 ha        1 NK0      0.163000
     48 H21        -6.5890    1.0090    6.8450 hc        1 NK0      0.069367
     49 H21A       -5.7440    0.4960    8.3710 hc        1 NK0      0.069367
     50 H21B       -7.3910    1.2410    8.4510 hc        1 NK0      0.069367
     51 H23       -10.6610   -6.3670    8.6750 hx        1 NK0      0.157700
     52 H24       -13.4030   -4.9040    7.9460 hc        1 NK0      0.109700
     53 H24A      -13.2100   -6.4210    8.9510 hc        1 NK0      0.109700
     54 H25       -11.9430   -3.5930    9.6070 hc        1 NK0      0.109700
     55 H25A      -11.7310   -5.0960   10.6320 hc        1 NK0      0.109700
     56 H52       -11.0100   -3.7650    7.2740 hn        1 NK0      0.457800
@<TRIPOS>BOND
     1    1    4 ar  
     2    1   13 ar  
     3    1   33 1   
     4    2    8 1   
     5    2   16 1   
     6    2   17 1   
     7    3   14 2   
     8    4    7 ar  
     9    4   34 1   
    10    5   20 2   
    11    5   21 1   
    12    6   29 2   
    13    7    9 ar  
    14    7   35 1   
    15    8   21 2   
    16    9   11 ar  
    17    9   36 1   
    18   10   20 1   
    19   10   22 1   
    20   10   37 1   
    21   11   13 ar  
    22   11   14 1   
    23   12   29 1   
    24   12   30 1   
    25   12   38 1   
    26   12   56 1   
    27   13   39 1   
    28   14   15 1   
    29   15   16 2   
    30   15   18 1   
    31   16   40 1   
    32   17   18 2   
    33   17   20 1   
    34   18   19 1   
    35   19   41 1   
    36   19   42 1   
    37   19   43 1   
    38   21   44 1   
    39   22   23 ar  
    40   22   27 ar  
    41   23   24 ar  
    42   23   45 1   
    43   24   25 ar  
    44   24   29 1   
    45   25   26 ar  
    46   25   46 1   
    47   26   27 ar  
    48   26   47 1   
    49   27   28 1   
    50   28   48 1   
    51   28   49 1   
    52   28   50 1   
    53   30   31 1   
    54   30   32 1   
    55   30   51 1   
    56   31   32 1   
    57   31   52 1   
    58   31   53 1   
    59   32   54 1   
    60   32   55 1   
@<TRIPOS>SUBSTRUCTURE
     1 NK0         1 TEMP              0 ****  ****    0 ROOT
