@<TRIPOS>MOLECULE
NK1
   27    28     1     0     0
SMALL
bcc


@<TRIPOS>ATOM
      1 O7          2.2870   -4.2070   -2.8820 oh        1 NK1     -0.585800
      2 C7          2.0230   -2.8160   -2.9020 c3        1 NK1      0.110100
      3 C6          1.4650   -2.4640   -1.5230 c3        1 NK1      0.050600
      4 C5         -0.0370   -2.1780   -1.5470 c3        1 NK1      0.158100
      5 O5         -0.4700   -2.3420   -0.2020 oh        1 NK1     -0.606800
      6 C4         -0.3700   -0.7770   -2.0490 c3        1 NK1     -0.137400
      7 C3          0.2320    0.2980   -1.1720 c3        1 NK1     -0.079400
      8 C2          1.7380    0.3200   -1.2550 c3        1 NK1      0.018900
      9 S1          2.4590   -1.2050   -0.7680 s4        1 NK1     -0.136900
     10 C9          3.7970   -1.3520   -1.8810 c3        1 NK1     -0.038100
     11 C8          3.3530   -2.0570   -3.1630 c3        1 NK1      0.121100
     12 O8          4.3400   -2.9240   -3.6530 oh        1 NK1     -0.550800
     13 HO7         2.3680   -4.5020   -3.8020 ho        1 NK1      0.447000
     14 H7          1.2830   -2.5640   -3.7110 h1        1 NK1      0.087700
     15 H6          1.6030   -3.3700   -0.8470 h1        1 NK1      0.176700
     16 H5         -0.5280   -2.9480   -2.2100 h1        1 NK1      0.087700
     17 HO5        -1.4270   -2.4770   -0.2200 ho        1 NK1      0.442000
     18 H41        -1.4880   -0.6580   -2.0480 hc        1 NK1      0.079700
     19 H42        -0.0240   -0.6660   -3.1090 hc        1 NK1      0.079700
     20 H31        -0.1580    1.3040   -1.4900 hc        1 NK1      0.094200
     21 H32        -0.0960    0.1370   -0.1070 hc        1 NK1      0.094200
     22 H21         2.0520    0.6380   -2.2830 h1        1 NK1      0.125200
     23 H22         2.1380    1.0930   -0.5400 h1        1 NK1      0.125200
     24 H91         4.6030   -1.9540   -1.3770 h1        1 NK1      0.144700
     25 H92         4.2600   -0.3630   -2.1310 h1        1 NK1      0.144700
     26 H8          3.2140   -1.3040   -3.9930 h1        1 NK1      0.114700
     27 HO8         4.4380   -3.6680   -3.0370 ho        1 NK1      0.430000
@<TRIPOS>BOND
     1    1    2 1   
     2    1   13 1   
     3    2    3 1   
     4    2   11 1   
     5    2   14 1   
     6    3    4 1   
     7    3    9 1   
     8    3   15 1   
     9    4    5 1   
    10    4    6 1   
    11    4   16 1   
    12    5   17 1   
    13    6    7 1   
    14    6   18 1   
    15    6   19 1   
    16    7    8 1   
    17    7   20 1   
    18    7   21 1   
    19    8    9 1   
    20    8   22 1   
    21    8   23 1   
    22    9   10 1   
    23   10   11 1   
    24   10   24 1   
    25   10   25 1   
    26   11   12 1   
    27   11   26 1   
    28   12   27 1   
@<TRIPOS>SUBSTRUCTURE
     1 NK1         1 TEMP              0 ****  ****    0 ROOT
