@<TRIPOS>MOLECULE
NK1
   27    28     1     0     0
SMALL
bcc


@<TRIPOS>ATOM
      1 O7         -0.0360   -0.5610    0.1740 oh        1 NK1     -0.569800
      2 C7          1.2920   -0.1150    0.0240 c3        1 NK1      0.110100
      3 C6          1.9780    0.0130    1.3910 c3        1 NK1     -0.016400
      4 C5          1.7260    1.3660    2.0620 c3        1 NK1      0.162100
      5 O5          1.9820    1.2390    3.4500 oh        1 NK1     -0.589800
      6 C4          2.6310    2.4760    1.5330 c3        1 NK1     -0.105400
      7 C3          4.0960    2.1640    1.7320 c3        1 NK1     -0.079400
      8 C2          4.5500    1.0100    0.8700 c3        1 NK1      0.013900
      9 S1          3.6710   -0.4670    1.2160 s4        1 NK1     -0.134900
     10 C9          3.5020   -1.1910   -0.3800 c3        1 NK1      0.010900
     11 C8          2.0300   -1.2210   -0.7750 c3        1 NK1      0.157100
     12 O8          1.5520   -2.5050   -0.4320 oh        1 NK1     -0.584800
     13 HO7        -0.5980    0.2150    0.3110 ho        1 NK1      0.435000
     14 H7          1.3360    0.8640   -0.5280 h1        1 NK1      0.072700
     15 H6          1.5350   -0.7850    2.0640 h1        1 NK1      0.159700
     16 H5          0.6490    1.6430    1.8750 h1        1 NK1      0.071700
     17 HO5         1.1520    1.0120    3.8890 ho        1 NK1      0.433000
     18 H41         2.3860    3.4180    2.0960 hc        1 NK1      0.082200
     19 H42         2.4030    2.6540    0.4500 hc        1 NK1      0.082200
     20 H31         4.7100    3.0690    1.4670 hc        1 NK1      0.097200
     21 H32         4.2880    1.9410    2.8180 hc        1 NK1      0.097200
     22 H21         4.5000    1.3100   -0.2090 h1        1 NK1      0.124700
     23 H22         5.6310    0.7840    1.0930 h1        1 NK1      0.124700
     24 H91         3.8830   -2.2510   -0.3110 h1        1 NK1      0.146700
     25 H92         4.1060   -0.6760   -1.1680 h1        1 NK1      0.146700
     26 H8          1.9020   -1.0400   -1.8790 h1        1 NK1      0.097700
     27 HO8         0.6050   -2.5340   -0.6380 ho        1 NK1      0.454000
@<TRIPOS>BOND
     1    1    2 1   
     2    1   13 1   
     3    2    3 1   
     4    2   11 1   
     5    2   14 1   
     6    3    4 1   
     7    3    9 1   
     8    3   15 1   
     9    4    5 1   
    10    4    6 1   
    11    4   16 1   
    12    5   17 1   
    13    6    7 1   
    14    6   18 1   
    15    6   19 1   
    16    7    8 1   
    17    7   20 1   
    18    7   21 1   
    19    8    9 1   
    20    8   22 1   
    21    8   23 1   
    22    9   10 1   
    23   10   11 1   
    24   10   24 1   
    25   10   25 1   
    26   11   12 1   
    27   11   26 1   
    28   12   27 1   
@<TRIPOS>SUBSTRUCTURE
     1 NK1         1 TEMP              0 ****  ****    0 ROOT
