@<TRIPOS>MOLECULE
NK1
   27    28     1     0     0
SMALL
bcc


@<TRIPOS>ATOM
      1 O7         -0.1440   -0.1430    0.2010 oh        1 NK1     -0.551800
      2 C7          1.2360    0.0390    0.0530 c3        1 NK1      0.148100
      3 C6          1.9530    0.0680    1.4120 c3        1 NK1     -0.008400
      4 C5          1.7630    1.4080    2.1310 c3        1 NK1      0.161100
      5 O5          2.0430    1.2100    3.5070 oh        1 NK1     -0.598800
      6 C4          2.6960    2.5000    1.6160 c3        1 NK1     -0.109400
      7 C3          4.1550    2.1240    1.7500 c3        1 NK1     -0.081400
      8 C2          4.5340    0.9900    0.8290 c3        1 NK1      0.020900
      9 S1          3.6220   -0.4670    1.1810 s4        1 NK1     -0.146900
     10 C9          3.3720   -1.1650   -0.4170 c3        1 NK1     -0.009100
     11 C8          1.8930   -1.0830   -0.7910 c3        1 NK1      0.110100
     12 O8          1.2530   -2.2920   -0.4310 oh        1 NK1     -0.598800
     13 HO7        -0.3130   -1.0660    0.4520 ho        1 NK1      0.438000
     14 H7          1.3370    1.0330   -0.4700 h1        1 NK1      0.107700
     15 H6          1.4940   -0.7300    2.0700 h1        1 NK1      0.148700
     16 H5          0.6910    1.7240    1.9690 h1        1 NK1      0.097700
     17 HO5         1.2020    1.1690    3.9800 ho        1 NK1      0.436000
     18 H41         2.5090    3.4270    2.2240 hc        1 NK1      0.082700
     19 H42         2.4410    2.7340    0.5500 hc        1 NK1      0.082700
     20 H31         4.7950    3.0150    1.5000 hc        1 NK1      0.096200
     21 H32         4.3730    1.8510    2.8190 hc        1 NK1      0.096200
     22 H21         5.6160    0.7250    0.9890 h1        1 NK1      0.123200
     23 H22         4.4350    1.3260   -0.2360 h1        1 NK1      0.123200
     24 H91         4.0010   -0.6830   -1.2060 h1        1 NK1      0.139200
     25 H92         3.6830   -2.2450   -0.3590 h1        1 NK1      0.139200
     26 H8          1.7710   -0.8590   -1.8850 h1        1 NK1      0.104700
     27 HO8         1.0460   -2.7780   -1.2400 ho        1 NK1      0.447000
@<TRIPOS>BOND
     1    1    2 1   
     2    1   13 1   
     3    2    3 1   
     4    2   11 1   
     5    2   14 1   
     6    3    4 1   
     7    3    9 1   
     8    3   15 1   
     9    4    5 1   
    10    4    6 1   
    11    4   16 1   
    12    5   17 1   
    13    6    7 1   
    14    6   18 1   
    15    6   19 1   
    16    7    8 1   
    17    7   20 1   
    18    7   21 1   
    19    8    9 1   
    20    8   22 1   
    21    8   23 1   
    22    9   10 1   
    23   10   11 1   
    24   10   24 1   
    25   10   25 1   
    26   11   12 1   
    27   11   26 1   
    28   12   27 1   
@<TRIPOS>SUBSTRUCTURE
     1 NK1         1 TEMP              0 ****  ****    0 ROOT
