@<TRIPOS>MOLECULE
NK1
   27    28     1     0     0
SMALL
bcc


@<TRIPOS>ATOM
      1 O7         -2.6050   -0.1460   -0.5220 oh        1 NK1     -0.548800
      2 C7         -1.3270   -0.1470   -0.5230 c3        1 NK1      0.148100
      3 C6         -0.8250   -0.1500    0.8410 c3        1 NK1      0.016600
      4 C5         -0.5840    1.3160    1.3240 c3        1 NK1      0.159100
      5 O5         -0.2380    1.2960    2.6170 oh        1 NK1     -0.607800
      6 C4          0.5880    2.0720    0.4750 c3        1 NK1     -0.135400
      7 C3          2.0100    1.1880    0.4000 c3        1 NK1     -0.080400
      8 C2          1.7830   -0.2650   -0.0900 c3        1 NK1      0.018900
      9 S1          0.5900   -1.0430    0.7720 s4        1 NK1     -0.143900
     10 C9          0.5640   -1.8290   -0.8340 c3        1 NK1     -0.009100
     11 C8         -0.7100   -1.6440   -1.3010 c3        1 NK1      0.110100
     12 O8         -1.4740   -2.6810   -0.9690 oh        1 NK1     -0.597800
     13 HO7        -2.9030    0.2370   -1.2720 ho        1 NK1      0.438000
     14 H7         -0.9920    0.6420   -1.0020 h1        1 NK1      0.106700
     15 H6         -1.4720   -0.5950    1.4330 h1        1 NK1      0.161700
     16 H5         -1.4210    1.8230    1.2280 h1        1 NK1      0.097700
     17 HO5        -0.7870    1.8240    3.0810 ho        1 NK1      0.440000
     18 H41         0.7760    2.9400    0.8980 hc        1 NK1      0.080200
     19 H42         0.2650    2.2290   -0.4390 hc        1 NK1      0.080200
     20 H31         2.6310    1.6370   -0.2150 hc        1 NK1      0.093700
     21 H32         2.4140    1.1610    1.2960 hc        1 NK1      0.093700
     22 H21         1.5290   -0.2440   -1.0360 h1        1 NK1      0.123700
     23 H22         2.6240   -0.7680    0.0040 h1        1 NK1      0.123700
     24 H91         0.7600   -2.7900   -0.7480 h1        1 NK1      0.139700
     25 H92         1.2120   -1.4010   -1.4330 h1        1 NK1      0.139700
     26 H8         -0.6970   -1.5350   -2.2790 h1        1 NK1      0.104700
     27 HO8        -1.7080   -3.1270   -1.7060 ho        1 NK1      0.447000
@<TRIPOS>BOND
     1    1    2 1   
     2    1   13 1   
     3    2    3 1   
     4    2   11 1   
     5    2   14 1   
     6    3    4 1   
     7    3    9 1   
     8    3   15 1   
     9    4    5 1   
    10    4    6 1   
    11    4   16 1   
    12    5   17 1   
    13    6    7 1   
    14    6   18 1   
    15    6   19 1   
    16    7    8 1   
    17    7   20 1   
    18    7   21 1   
    19    8    9 1   
    20    8   22 1   
    21    8   23 1   
    22    9   10 1   
    23   10   11 1   
    24   10   24 1   
    25   10   25 1   
    26   11   12 1   
    27   11   26 1   
    28   12   27 1   
@<TRIPOS>SUBSTRUCTURE
     1 NK1         1 TEMP              0 ****  ****    0 ROOT
