@<TRIPOS>MOLECULE
NK2
   26    27     1     0     0
SMALL
bcc


@<TRIPOS>ATOM
      1 O7         -0.0350   -0.5650    0.0990 oh        1 NK2     -0.569800
      2 C7          1.2980   -0.1250   -0.0210 c3        1 NK2      0.108100
      3 C6          1.9580    0.0050    1.3600 c3        1 NK2      0.031600
      4 C5          1.7230    1.3440    2.0190 c3        1 NK2     -0.079400
      5 C4          2.6080    2.4550    1.5000 c3        1 NK2     -0.108400
      6 C3          4.0760    2.1590    1.7190 c3        1 NK2     -0.083400
      7 C2          4.5470    1.0000    0.8750 c3        1 NK2      0.023900
      8 S1          3.6580   -0.4780    1.2050 s4        1 NK2     -0.183900
      9 C9          3.5120   -1.2050   -0.3960 c3        1 NK2      0.026900
     10 C8          2.0430   -1.2350   -0.8070 c3        1 NK2      0.157100
     11 O8          1.5620   -2.5170   -0.4630 oh        1 NK2     -0.586800
     12 HO7        -0.5760    0.1940    0.3550 ho        1 NK2      0.437000
     13 H7          1.3530    0.8540   -0.5730 h1        1 NK2      0.073700
     14 H6          1.5000   -0.7970    2.0170 h1        1 NK2      0.155700
     15 H51         1.8710    1.2400    3.1290 hc        1 NK2      0.083200
     16 H52         0.6450    1.6260    1.8610 hc        1 NK2      0.083200
     17 H41         2.4100    2.6400    0.4110 hc        1 NK2      0.077700
     18 H42         2.3460    3.4030    2.0450 hc        1 NK2      0.077700
     19 H31         4.2710    1.9540    2.8060 hc        1 NK2      0.088200
     20 H32         4.6840    3.0660    1.4460 hc        1 NK2      0.088200
     21 H21         5.6220    0.7710    1.1200 h1        1 NK2      0.124700
     22 H22         4.5180    1.2950   -0.2070 h1        1 NK2      0.124700
     23 H91         3.8930   -2.2640   -0.3210 h1        1 NK2      0.146700
     24 H92         4.1240   -0.6860   -1.1740 h1        1 NK2      0.146700
     25 H8          1.9280   -1.0600   -1.9130 h1        1 NK2      0.098700
     26 HO8         0.6170   -2.5480   -0.6800 ho        1 NK2      0.456000
@<TRIPOS>BOND
     1    1    2 1   
     2    1   12 1   
     3    2    3 1   
     4    2   10 1   
     5    2   13 1   
     6    3    4 1   
     7    3    8 1   
     8    3   14 1   
     9    4    5 1   
    10    4   15 1   
    11    4   16 1   
    12    5    6 1   
    13    5   17 1   
    14    5   18 1   
    15    6    7 1   
    16    6   19 1   
    17    6   20 1   
    18    7    8 1   
    19    7   21 1   
    20    7   22 1   
    21    8    9 1   
    22    9   10 1   
    23    9   23 1   
    24    9   24 1   
    25   10   11 1   
    26   10   25 1   
    27   11   26 1   
@<TRIPOS>SUBSTRUCTURE
     1 NK2         1 TEMP              0 ****  ****    0 ROOT
