@<TRIPOS>MOLECULE
NK2
   26    27     1     0     0
SMALL
bcc


@<TRIPOS>ATOM
      1 O7         -0.0450   -0.5720    0.1580 oh        1 NK2     -0.569800
      2 C7          1.2840   -0.1300    0.0080 c3        1 NK2      0.108100
      3 C6          1.9740    0.0080    1.3740 c3        1 NK2      0.031600
      4 C5          1.7500    1.3490    2.0310 c3        1 NK2     -0.079400
      5 C4          2.6230    2.4600    1.4880 c3        1 NK2     -0.108400
      6 C3          4.0950    2.1670    1.6770 c3        1 NK2     -0.083400
      7 C2          4.5500    1.0040    0.8300 c3        1 NK2      0.023900
      8 S1          3.6700   -0.4730    1.1860 s4        1 NK2     -0.183900
      9 C9          3.4910   -1.2080   -0.4080 c3        1 NK2      0.026900
     10 C8          2.0150   -1.2430   -0.7880 c3        1 NK2      0.157100
     11 O8          1.5430   -2.5240   -0.4270 oh        1 NK2     -0.586800
     12 HO7        -0.5820    0.1880    0.4230 ho        1 NK2      0.437000
     13 H7          1.3260    0.8460   -0.5490 h1        1 NK2      0.073700
     14 H6          1.5310   -0.7920    2.0450 h1        1 NK2      0.155700
     15 H51         1.9220    1.2510    3.1390 hc        1 NK2      0.083200
     16 H52         0.6690    1.6290    1.8950 hc        1 NK2      0.083200
     17 H41         2.3700    3.4100    2.0350 hc        1 NK2      0.077700
     18 H42         2.4010    2.6380    0.4030 hc        1 NK2      0.077700
     19 H31         4.3130    1.9680    2.7610 hc        1 NK2      0.088200
     20 H32         4.6960    3.0740    1.3870 hc        1 NK2      0.088200
     21 H21         5.6300    0.7780    1.0530 h1        1 NK2      0.124700
     22 H22         4.4980    1.2940   -0.2530 h1        1 NK2      0.124700
     23 H91         3.8760   -2.2670   -0.3360 h1        1 NK2      0.146700
     24 H92         4.0860   -0.6920   -1.2010 h1        1 NK2      0.146700
     25 H8          1.8760   -1.0730   -1.8910 h1        1 NK2      0.098700
     26 HO8         0.5940   -2.5580   -0.6250 ho        1 NK2      0.456000
@<TRIPOS>BOND
     1    1    2 1   
     2    1   12 1   
     3    2    3 1   
     4    2   10 1   
     5    2   13 1   
     6    3    4 1   
     7    3    8 1   
     8    3   14 1   
     9    4    5 1   
    10    4   15 1   
    11    4   16 1   
    12    5    6 1   
    13    5   17 1   
    14    5   18 1   
    15    6    7 1   
    16    6   19 1   
    17    6   20 1   
    18    7    8 1   
    19    7   21 1   
    20    7   22 1   
    21    8    9 1   
    22    9   10 1   
    23    9   23 1   
    24    9   24 1   
    25   10   11 1   
    26   10   25 1   
    27   11   26 1   
@<TRIPOS>SUBSTRUCTURE
     1 NK2         1 TEMP              0 ****  ****    0 ROOT
