@<TRIPOS>MOLECULE
NK2
   26    27     1     0     0
SMALL
bcc


@<TRIPOS>ATOM
      1 O7         -2.6380   -0.0830   -0.3870 oh        1 NK2     -0.546800
      2 C7         -1.3580   -0.0850   -0.3890 c3        1 NK2      0.145100
      3 C6         -0.8560   -0.0860    0.9720 c3        1 NK2      0.042600
      4 C5         -0.6120    1.3940    1.4570 c3        1 NK2     -0.079400
      5 C4          0.5740    2.1540    0.5960 c3        1 NK2     -0.107400
      6 C3          1.9920    1.2680    0.5240 c3        1 NK2     -0.085400
      7 C2          1.7610   -0.1970    0.0340 c3        1 NK2      0.031900
      8 S1          0.5570   -0.9780    0.9050 s4        1 NK2     -0.202900
      9 C9          0.5300   -1.7680   -0.6980 c3        1 NK2      0.008900
     10 C8         -0.7410   -1.5840   -1.1630 c3        1 NK2      0.106100
     11 O8         -1.5070   -2.6210   -0.8280 oh        1 NK2     -0.598800
     12 HO7        -2.9360    0.3300   -1.1210 ho        1 NK2      0.436000
     13 H7         -1.0220    0.7030   -0.8690 h1        1 NK2      0.109700
     14 H6         -1.5030   -0.5290    1.5650 h1        1 NK2      0.142700
     15 H51        -0.3550    1.3790    2.4060 hc        1 NK2      0.092700
     16 H52        -1.4480    1.9020    1.3620 hc        1 NK2      0.092700
     17 H41         0.7640    3.0230    1.0180 hc        1 NK2      0.078700
     18 H42         0.2510    2.3090   -0.3180 hc        1 NK2      0.078700
     19 H31         2.3960    1.2420    1.4200 hc        1 NK2      0.087700
     20 H32         2.6150    1.7140   -0.0920 hc        1 NK2      0.087700
     21 H21         2.6010   -0.7010    0.1290 h1        1 NK2      0.123700
     22 H22         1.5070   -0.1780   -0.9120 h1        1 NK2      0.123700
     23 H91         1.1780   -1.3410   -1.2980 h1        1 NK2      0.139200
     24 H92         0.7260   -2.7280   -0.6090 h1        1 NK2      0.139200
     25 H8         -0.7290   -1.4760   -2.1410 h1        1 NK2      0.105700
     26 HO8        -1.7470   -3.0640   -1.5650 ho        1 NK2      0.447000
@<TRIPOS>BOND
     1    1    2 1   
     2    1   12 1   
     3    2    3 1   
     4    2   10 1   
     5    2   13 1   
     6    3    4 1   
     7    3    8 1   
     8    3   14 1   
     9    4    5 1   
    10    4   15 1   
    11    4   16 1   
    12    5    6 1   
    13    5   17 1   
    14    5   18 1   
    15    6    7 1   
    16    6   19 1   
    17    6   20 1   
    18    7    8 1   
    19    7   21 1   
    20    7   22 1   
    21    8    9 1   
    22    9   10 1   
    23    9   23 1   
    24    9   24 1   
    25   10   11 1   
    26   10   25 1   
    27   11   26 1   
@<TRIPOS>SUBSTRUCTURE
     1 NK2         1 TEMP              0 ****  ****    0 ROOT
