@<TRIPOS>MOLECULE
NK2
   26    27     1     0     0
SMALL
bcc


@<TRIPOS>ATOM
      1 O7          4.8900    0.2420   -0.5530 oh        1 NK2     -0.546800
      2 C7          4.2270   -0.3550    0.5240 c3        1 NK2      0.145100
      3 C6          3.1740   -1.3720    0.0530 c3        1 NK2      0.042600
      4 C5          1.9070   -0.7170   -0.4440 c3        1 NK2     -0.079400
      5 C4          0.9850   -0.2370    0.6550 c3        1 NK2     -0.107400
      6 C3          0.5360   -1.3650    1.5590 c3        1 NK2     -0.085400
      7 C2          1.6800   -1.9280    2.3670 c3        1 NK2      0.031900
      8 S1          2.9530   -2.5730    1.3410 s4        1 NK2     -0.202900
      9 C9          4.4210   -2.1680    2.2320 c3        1 NK2      0.008900
     10 C8          5.2040   -1.1020    1.4680 c3        1 NK2      0.106100
     11 O8          6.1640   -1.7360    0.6440 oh        1 NK2     -0.598800
     12 HO7         5.4770   -0.4140   -0.9620 ho        1 NK2      0.436000
     13 H7          3.7340    0.5030    1.0650 h1        1 NK2      0.109700
     14 H6          3.6250   -1.9590   -0.8020 h1        1 NK2      0.142700
     15 H51         1.3540   -1.4360   -1.1080 hc        1 NK2      0.092700
     16 H52         2.2080    0.1600   -1.0860 hc        1 NK2      0.092700
     17 H41         0.0770    0.2260    0.1780 hc        1 NK2      0.078700
     18 H42         1.4810    0.5680    1.2590 hc        1 NK2      0.078700
     19 H31        -0.2450   -0.9820    2.2720 hc        1 NK2      0.087700
     20 H32         0.0520   -2.1770    0.9530 hc        1 NK2      0.087700
     21 H21         2.0490   -1.1470    3.0820 h1        1 NK2      0.123700
     22 H22         1.3140   -2.7920    2.9870 h1        1 NK2      0.123700
     23 H91         5.0360   -3.1070    2.3030 h1        1 NK2      0.139200
     24 H92         4.2120   -1.8270    3.2770 h1        1 NK2      0.139200
     25 H8          5.6810   -0.3740    2.1780 h1        1 NK2      0.105700
     26 HO8         7.0420   -1.5470    1.0020 ho        1 NK2      0.447000
@<TRIPOS>BOND
     1    1    2 1   
     2    1   12 1   
     3    2    3 1   
     4    2   10 1   
     5    2   13 1   
     6    3    4 1   
     7    3    8 1   
     8    3   14 1   
     9    4    5 1   
    10    4   15 1   
    11    4   16 1   
    12    5    6 1   
    13    5   17 1   
    14    5   18 1   
    15    6    7 1   
    16    6   19 1   
    17    6   20 1   
    18    7    8 1   
    19    7   21 1   
    20    7   22 1   
    21    8    9 1   
    22    9   10 1   
    23    9   23 1   
    24    9   24 1   
    25   10   11 1   
    26   10   25 1   
    27   11   26 1   
@<TRIPOS>SUBSTRUCTURE
     1 NK2         1 TEMP              0 ****  ****    0 ROOT
