@<TRIPOS>MOLECULE
NK7
   70    72     1     0     0
SMALL
bcc


@<TRIPOS>ATOM
      1 C1         87.7070 -148.8620  339.6140 c3        1 NK7      0.068500
      2 C2         87.8120 -147.3590  340.0650 c3        1 NK7      0.154500
      3 C3         88.1740 -147.5230  341.5720 c3        1 NK7      0.121800
      4 N4         88.8820 -148.7840  341.7430 n3        1 NK7     -0.790200
      5 C5         88.7040 -149.6010  340.5500 c3        1 NK7      0.149800
      6 N6         87.9600 -149.0200  338.1550 n4        1 NK7     -0.751000
      7 C7         87.7180 -150.4180  337.6650 c3        1 NK7      0.166100
      8 C8         86.2650 -150.7320  337.5380 ca        1 NK7     -0.152300
      9 C9         85.6310 -151.5180  338.5060 ca        1 NK7     -0.108000
     10 C10        84.2840 -151.8500  338.3600 ca        1 NK7     -0.071500
     11 C11        83.5750 -151.3860  337.2500 ca        1 NK7     -0.128300
     12 C12        84.2030 -150.6000  336.2800 ca        1 NK7     -0.071500
     13 C13        85.5500 -150.2740  336.4250 ca        1 NK7     -0.108000
     14 C14        83.1590 -146.6630  339.4930 ca        1 NK7     -0.127500
     15 C15        82.0700 -145.9730  338.9640 ca        1 NK7     -0.072500
     16 C16        82.1340 -144.5850  338.8190 ca        1 NK7     -0.154300
     17 C17        80.9540 -143.8330  338.2100 c3        1 NK7      0.687200
     18 F18        80.8230 -142.5370  338.6450 f         1 NK7     -0.228300
     19 F19        81.0140 -143.7300  336.8410 f         1 NK7     -0.228300
     20 F20        79.7310 -144.4060  338.4560 f         1 NK7     -0.228300
     21 N21        86.6650 -146.5960  339.6630 n3        1 NK7     -0.850200
     22 C22        85.4680 -146.7120  340.4800 c3        1 NK7      0.207100
     23 C23        84.3080 -145.9680  339.8830 ca        1 NK7     -0.076300
     24 C24        83.2760 -143.8830  339.2130 ca        1 NK7     -0.072500
     25 C25        84.3610 -144.5770  339.7460 ca        1 NK7     -0.127500
     26 C26      -229.3000  397.6060 -916.2300 c         1 NK7      0.536700
     27 S27      -234.0270  399.1940 -919.3590 s4        1 NK7      1.648300
     28 O28      -234.3190  400.5030 -919.4040 o         1 NK7     -0.341400
     29 O29      -234.6850  398.2030 -919.9810 o         1 NK7     -0.341400
     30 C30      -232.7800  398.7760 -918.4710 ca        1 NK7     -0.549500
     31 C31      -232.0130  399.7450 -917.7800 ca        1 NK7      0.048000
     32 C32      -230.9040  399.3870 -917.0200 ca        1 NK7     -0.099500
     33 C34      -231.2710  397.0550 -917.6020 ca        1 NK7     -0.099500
     34 C35      -232.3830  397.4230 -918.3580 ca        1 NK7      0.048000
     35 N36      -229.0710  398.1470 -914.8410 n4        1 NK7     -0.753400
     36 O37      -228.4500  396.8410 -916.6470 o         1 NK7     -0.320100
     37 C38        82.0990 -151.7570  337.0860 c3        1 NK7      0.686200
     38 F39        81.4340 -151.9270  338.2740 f         1 NK7     -0.219967
     39 F40        81.3630 -150.8210  336.4050 f         1 NK7     -0.219967
     40 F41        81.9010 -152.9290  336.4000 f         1 NK7     -0.219967
     41 C42      -230.5300  398.0400 -916.9340 ca        1 NK7     -0.051600
     42 H1         86.6640 -149.2580  339.8010 hx        1 NK7      0.127700
     43 H2         88.7110 -146.8950  339.5550 h1        1 NK7      0.061700
     44 H3         87.2430 -147.5750  342.2020 h1        1 NK7      0.082700
     45 H3A        88.7840 -146.6470  341.9200 h1        1 NK7      0.082700
     46 HN4        89.8540 -148.6440  341.9470 hn        1 NK7      0.387800
     47 H5         88.2560 -150.5820  340.8720 h1        1 NK7      0.065200
     48 H5A        89.6770 -149.8180  340.0280 h1        1 NK7      0.065200
     49 HN6        88.9280 -148.7560  337.9470 hn        1 NK7      0.456300
     50 H7         88.2220 -151.1260  338.3860 hx        1 NK7      0.110200
     51 H7A        88.2200 -150.5080  336.6560 hx        1 NK7      0.110200
     52 H9         86.1910 -151.8930  339.3780 ha        1 NK7      0.148000
     53 H10        83.7790 -152.4750  339.1170 ha        1 NK7      0.178500
     54 H12        83.6320 -150.2430  335.4050 ha        1 NK7      0.178500
     55 H13        86.0470 -149.6710  335.6490 ha        1 NK7      0.148000
     56 H14        83.1030 -147.7550  339.6110 ha        1 NK7      0.138000
     57 H15        81.1560 -146.5150  338.6670 ha        1 NK7      0.164500
     58 H22        85.6320 -146.3120  341.5260 h1        1 NK7      0.051200
     59 H22A       85.2110 -147.8050  340.5770 h1        1 NK7      0.051200
     60 H24        83.3100 -142.7860  339.1090 ha        1 NK7      0.164500
     61 H25        85.2520 -144.0190  340.0700 ha        1 NK7      0.138000
     62 H31      -232.2930  400.8190 -917.8490 ha        1 NK7      0.209500
     63 H32      -230.3210  400.1850 -916.5260 ha        1 NK7      0.197000
     64 H34      -230.9710  395.9890 -917.5540 ha        1 NK7      0.197000
     65 H35      -232.9560  396.6290 -918.8870 ha        1 NK7      0.209500
     66 HN36     -229.0460  399.1730 -914.8480 hn        1 NK7      0.487467
     67 HN3A     -228.1670  397.7970 -914.4780 hn        1 NK7      0.487467
     68 H62        87.3270 -148.3750  337.6580 hn        1 NK7      0.456300
     69 H211       86.9040 -145.6310  339.5230 hn        1 NK7      0.398800
     70 H363     -229.8190  397.8350 -914.2080 hn        1 NK7      0.487467
@<TRIPOS>BOND
     1    1    2 1   
     2    1    5 1   
     3    1    6 1   
     4    1   42 1   
     5    2    3 1   
     6    2   21 1   
     7    2   43 1   
     8    3    4 1   
     9    3   44 1   
    10    3   45 1   
    11    4    5 1   
    12    4   46 1   
    13    5   47 1   
    14    5   48 1   
    15    6    7 1   
    16    6   49 1   
    17    6   68 1   
    18    7    8 1   
    19    7   50 1   
    20    7   51 1   
    21    8    9 ar  
    22    8   13 ar  
    23    9   10 ar  
    24    9   52 1   
    25   10   11 ar  
    26   10   53 1   
    27   11   12 ar  
    28   11   37 1   
    29   12   13 ar  
    30   12   54 1   
    31   13   55 1   
    32   14   15 ar  
    33   14   23 ar  
    34   14   56 1   
    35   15   16 ar  
    36   15   57 1   
    37   16   17 1   
    38   16   24 ar  
    39   17   18 1   
    40   17   19 1   
    41   17   20 1   
    42   21   22 1   
    43   21   69 1   
    44   22   23 1   
    45   22   58 1   
    46   22   59 1   
    47   23   25 ar  
    48   24   25 ar  
    49   24   60 1   
    50   25   61 1   
    51   26   35 1   
    52   26   36 2   
    53   26   41 1   
    54   27   28 1   
    55   27   29 1   
    56   27   30 1   
    57   30   31 ar  
    58   30   34 ar  
    59   31   32 ar  
    60   31   62 1   
    61   32   41 ar  
    62   32   63 1   
    63   33   34 ar  
    64   33   41 ar  
    65   33   64 1   
    66   34   65 1   
    67   35   66 1   
    68   35   67 1   
    69   35   70 1   
    70   37   38 1   
    71   37   39 1   
    72   37   40 1   
@<TRIPOS>SUBSTRUCTURE
     1 NK7         1 TEMP              0 ****  ****    0 ROOT
