@<TRIPOS>MOLECULE
NK7
   70    72     1     0     0
SMALL
bcc


@<TRIPOS>ATOM
      1 C1         -1.1120  -30.8080   88.6770 c3        1 NK7      0.072500
      2 C2          0.2600  -30.4100   88.0230 c3        1 NK7      0.149500
      3 C3          0.2470  -28.8620   88.1870 c3        1 NK7      0.120800
      4 N4         -0.6170  -28.5140   89.3060 n3        1 NK7     -0.794200
      5 C5         -1.3700  -29.6870   89.7220 c3        1 NK7      0.150800
      6 N6         -1.0830  -32.1940   89.2250 n4        1 NK7     -0.752000
      7 C7         -2.4280  -32.6680   89.6920 c3        1 NK7      0.166100
      8 C8         -3.3200  -33.0460   88.5560 ca        1 NK7     -0.152300
      9 C9         -3.1680  -34.2940   87.9400 ca        1 NK7     -0.108000
     10 C10        -4.0230  -34.6680   86.9050 ca        1 NK7     -0.071500
     11 C11        -5.0290  -33.7910   86.4900 ca        1 NK7     -0.125300
     12 C12        -5.1910  -32.5490   87.1070 ca        1 NK7     -0.071500
     13 C13        -4.3320  -32.1750   88.1400 ca        1 NK7     -0.108000
     14 C14        -0.2350  -28.0950   84.6940 ca        1 NK7     -0.130000
     15 C15         0.3890  -27.0890   83.9570 ca        1 NK7     -0.071500
     16 C16         1.6340  -27.3310   83.3730 ca        1 NK7     -0.152300
     17 C17         2.3330  -26.2220   82.5900 c3        1 NK7      0.687200
     18 F18         3.1520  -25.4360   83.3630 f         1 NK7     -0.227967
     19 F19         3.1450  -26.6700   81.5780 f         1 NK7     -0.227967
     20 F20         1.4800  -25.3350   81.9830 f         1 NK7     -0.227967
     21 N21         0.4300  -31.0050   86.7230 n3        1 NK7     -0.839200
     22 C22        -0.3060  -30.4370   85.6090 c3        1 NK7      0.198100
     23 C23         0.3810  -29.3410   84.8450 ca        1 NK7     -0.116300
     24 C24         2.2510  -28.5770   83.5100 ca        1 NK7     -0.071500
     25 C25         1.6220  -29.5800   84.2450 ca        1 NK7     -0.130000
     26 C26         2.7650   83.9990 -239.2870 c         1 NK7      0.536700
     27 S27        -1.8650   80.6000 -240.5800 s4        1 NK7      1.648300
     28 O28        -1.7860   79.3200 -240.1850 o         1 NK7     -0.341400
     29 O29        -2.8960   81.1850 -241.2080 o         1 NK7     -0.341400
     30 C30        -0.6030   81.5160 -240.2820 ca        1 NK7     -0.548500
     31 C31         0.5360   81.0010 -239.6220 ca        1 NK7      0.048000
     32 C32         1.6340   81.8100 -239.3340 ca        1 NK7     -0.099500
     33 C34         0.5060   83.6980 -240.3710 ca        1 NK7     -0.099500
     34 C35        -0.5880   82.8840 -240.6510 ca        1 NK7      0.048000
     35 N36         3.3570   84.9300 -240.3160 n4        1 NK7     -0.753400
     36 O37         3.3000   84.0100 -238.1930 o         1 NK7     -0.320100
     37 C38        -5.9540  -34.1910   85.3370 c3        1 NK7      0.686200
     38 F39        -7.2120  -33.6500   85.4170 f         1 NK7     -0.219300
     39 F40        -5.4830  -33.8040   84.1070 f         1 NK7     -0.219300
     40 F41        -6.1560  -35.5430   85.2250 f         1 NK7     -0.219300
     41 C42         1.6160   83.1610 -239.7080 ca        1 NK7     -0.051600
     42 H1         -1.9400  -30.7900   87.9060 hx        1 NK7      0.126700
     43 H2          1.0980  -30.8080   88.6740 h1        1 NK7      0.061700
     44 H3          1.2950  -28.4840   88.3290 h1        1 NK7      0.084700
     45 H3A        -0.1760  -28.3720   87.2630 h1        1 NK7      0.084700
     46 HN4        -0.1010  -28.1210   90.0710 hn        1 NK7      0.388800
     47 H5         -1.1050  -30.0260   90.7620 h1        1 NK7      0.063200
     48 H5A        -2.4620  -29.4140   89.7150 h1        1 NK7      0.063200
     49 HN6        -0.7460  -32.8180   88.4760 hn        1 NK7      0.455300
     50 H7         -2.8880  -31.8420   90.3080 hx        1 NK7      0.110700
     51 H7A        -2.2530  -33.5640   90.3580 hx        1 NK7      0.110700
     52 H9         -2.3890  -34.9950   88.2780 ha        1 NK7      0.148000
     53 H10        -3.9160  -35.6540   86.4210 ha        1 NK7      0.178000
     54 H12        -6.0010  -31.8730   86.7820 ha        1 NK7      0.178000
     55 H13        -4.4680  -31.1980   88.6320 ha        1 NK7      0.148000
     56 H14        -1.2200  -27.9010   85.1460 ha        1 NK7      0.141500
     57 H15        -0.0980  -26.1080   83.8280 ha        1 NK7      0.165000
     58 H22        -1.3110  -30.0720   85.9660 h1        1 NK7      0.069700
     59 H22A       -0.4870  -31.2960   84.8940 h1        1 NK7      0.069700
     60 H24         3.2260  -28.7640   83.0300 ha        1 NK7      0.165000
     61 H25         2.1010  -30.5680   84.3310 ha        1 NK7      0.141500
     62 H31         0.5640   79.9330 -239.3130 ha        1 NK7      0.209500
     63 H32         2.5020   81.3820 -238.7930 ha        1 NK7      0.196500
     64 H34         0.4560   84.7650 -240.6510 ha        1 NK7      0.196500
     65 H35        -1.4670   83.3250 -241.1680 ha        1 NK7      0.209500
     66 HN36        2.6470   85.5810 -240.6690 hn        1 NK7      0.487467
     67 HN3A        3.7400   84.3940 -241.1050 hn        1 NK7      0.487467
     68 H62        -0.4230  -32.2350   90.0080 hn        1 NK7      0.455300
     69 H211        1.4080  -31.0670   86.4980 hn        1 NK7      0.397800
     70 H363        4.1240   85.4770 -239.8870 hn        1 NK7      0.487467
@<TRIPOS>BOND
     1    1    2 1   
     2    1    5 1   
     3    1    6 1   
     4    1   42 1   
     5    2    3 1   
     6    2   21 1   
     7    2   43 1   
     8    3    4 1   
     9    3   44 1   
    10    3   45 1   
    11    4    5 1   
    12    4   46 1   
    13    5   47 1   
    14    5   48 1   
    15    6    7 1   
    16    6   49 1   
    17    6   68 1   
    18    7    8 1   
    19    7   50 1   
    20    7   51 1   
    21    8    9 ar  
    22    8   13 ar  
    23    9   10 ar  
    24    9   52 1   
    25   10   11 ar  
    26   10   53 1   
    27   11   12 ar  
    28   11   37 1   
    29   12   13 ar  
    30   12   54 1   
    31   13   55 1   
    32   14   15 ar  
    33   14   23 ar  
    34   14   56 1   
    35   15   16 ar  
    36   15   57 1   
    37   16   17 1   
    38   16   24 ar  
    39   17   18 1   
    40   17   19 1   
    41   17   20 1   
    42   21   22 1   
    43   21   69 1   
    44   22   23 1   
    45   22   58 1   
    46   22   59 1   
    47   23   25 ar  
    48   24   25 ar  
    49   24   60 1   
    50   25   61 1   
    51   26   35 1   
    52   26   36 2   
    53   26   41 1   
    54   27   28 1   
    55   27   29 1   
    56   27   30 1   
    57   30   31 ar  
    58   30   34 ar  
    59   31   32 ar  
    60   31   62 1   
    61   32   41 ar  
    62   32   63 1   
    63   33   34 ar  
    64   33   41 ar  
    65   33   64 1   
    66   34   65 1   
    67   35   66 1   
    68   35   67 1   
    69   35   70 1   
    70   37   38 1   
    71   37   39 1   
    72   37   40 1   
@<TRIPOS>SUBSTRUCTURE
     1 NK7         1 TEMP              0 ****  ****    0 ROOT
