@<TRIPOS>MOLECULE
NK7
   70    72     1     0     0
SMALL
bcc


@<TRIPOS>ATOM
      1 C1        -22.0330 -125.3540  505.3190 c3        1 NK7      0.072500
      2 C2        -20.5220 -125.1440  505.6940 c3        1 NK7      0.149500
      3 C3        -20.2970 -123.6630  505.2670 c3        1 NK7      0.120800
      4 N4        -21.5770 -122.9670  505.2880 n7        1 NK7     -0.794200
      5 C5        -22.6530 -123.9340  505.4440 c3        1 NK7      0.150800
      6 N6        -22.6710 -126.4030  506.1650 ny        1 NK7     -0.752000
      7 C7        -24.0580 -126.7570  505.7140 c3        1 NK7      0.166100
      8 C8        -24.0540 -127.6130  504.4920 ca        1 NK7     -0.152300
      9 C9        -23.7230 -128.9700  504.5950 ca        1 NK7     -0.108000
     10 C10       -23.7550 -129.7820  503.4630 ca        1 NK7     -0.071500
     11 C11       -24.1220 -129.2350  502.2310 ca        1 NK7     -0.125300
     12 C12       -24.4650 -127.8850  502.1250 ca        1 NK7     -0.071500
     13 C13       -24.4260 -127.0720  503.2570 ca        1 NK7     -0.108000
     14 C14       -16.8900 -125.8080  503.8930 ca        1 NK7     -0.130000
     15 C15       -15.7250 -125.1440  503.5130 ca        1 NK7     -0.071500
     16 C16       -15.7970 -124.0980  502.5900 ca        1 NK7     -0.152300
     17 C17       -14.5240 -123.3540  502.1900 c3        1 NK7      0.687200
     18 F18       -14.5550 -122.8180  500.9280 f         1 NK7     -0.227967
     19 F19       -14.2300 -122.2900  503.0080 f         1 NK7     -0.227967
     20 F20       -13.3890 -124.1250  502.2120 f         1 NK7     -0.227967
     21 N21       -19.6870 -126.1900  505.1670 n7        1 NK7     -0.839200
     22 C22       -19.3720 -126.1660  503.7500 c3        1 NK7      0.198100
     23 C23       -18.1250 -125.4270  503.3580 ca        1 NK7     -0.116300
     24 C24       -17.0230 -123.7210  502.0390 ca        1 NK7     -0.071500
     25 C25       -18.1860 -124.3850  502.4260 ca        1 NK7     -0.130000
     26 C26        55.2980  337.7850-1360.8240 c         1 NK7      0.536700
     27 S27        50.9160  340.4270-1357.9130 s4        1 NK7      1.648300
     28 O28        50.6360  339.9380-1356.6950 o         1 NK7     -0.341400
     29 O29        50.3230  341.4690-1358.5160 o         1 NK7     -0.341400
     30 C30        52.0610  339.6930-1358.7310 ca        1 NK7     -0.549500
     31 C31        52.7540  338.5860-1358.1870 ca        1 NK7      0.048000
     32 C32        53.7800  337.9570-1358.8900 ca        1 NK7     -0.099500
     33 C34        53.4600  339.5110-1360.7330 ca        1 NK7     -0.099500
     34 C35        52.4390  340.1350-1360.0220 ca        1 NK7      0.048000
     35 N36        55.1480  337.4060-1362.2760 nz        1 NK7     -0.753400
     36 O37        56.3710  337.5170-1360.3150 o         1 NK7     -0.320100
     37 C38       -24.1390 -130.1170  500.9800 c3        1 NK7      0.686200
     38 F39       -25.1270 -129.7950  500.0850 f         1 NK7     -0.219300
     39 F40       -22.9750 -130.0500  500.2550 f         1 NK7     -0.219300
     40 F41       -24.3140 -131.4530  501.2360 f         1 NK7     -0.219300
     41 C42        54.1340  338.4230-1360.1640 ca        1 NK7     -0.051600
     42 H1        -22.1320 -125.7060  504.2490 hx        1 NK7      0.126700
     43 H2        -20.4220 -125.1850  506.8220 h1        1 NK7      0.061700
     44 H3        -19.8990 -123.6140  504.2140 h1        1 NK7      0.084700
     45 H3A       -19.5430 -123.1800  505.9450 h1        1 NK7      0.084700
     46 HN4       -21.6110 -122.2650  506.0030 hn        1 NK7      0.388800
     47 H5        -23.3840 -123.7700  504.6030 h1        1 NK7      0.063200
     48 H5A       -23.2090 -123.8110  506.4150 h1        1 NK7      0.063200
     49 HN6       -22.0760 -127.2430  506.1190 hn        1 NK7      0.455300
     50 H7        -24.5540 -127.3090  506.5670 hx        1 NK7      0.110700
     51 H7A       -24.6160 -125.7940  505.5310 hx        1 NK7      0.110700
     52 H9        -23.4530 -129.4080  505.5680 ha        1 NK7      0.148000
     53 H10       -23.5020 -130.8540  503.5380 ha        1 NK7      0.178000
     54 H12       -24.7720 -127.4700  501.1490 ha        1 NK7      0.178000
     55 H13       -24.7040 -126.0090  503.1710 ha        1 NK7      0.148000
     56 H14       -16.8260 -126.6460  504.6040 ha        1 NK7      0.141500
     57 H15       -14.7490 -125.4460  503.9270 ha        1 NK7      0.165000
     58 H22       -20.2490 -125.7560  503.1740 h1        1 NK7      0.069700
     59 H22A      -19.2400 -127.2490  503.4490 h1        1 NK7      0.069700
     60 H24       -17.0670 -122.9060  501.2980 ha        1 NK7      0.165000
     61 H25       -19.1500 -124.0890  501.9840 ha        1 NK7      0.141500
     62 H31        52.4900  338.2080-1357.1740 ha        1 NK7      0.209500
     63 H32        54.3210  337.1080-1358.4260 ha        1 NK7      0.197000
     64 H34        53.7380  339.9140-1361.7230 ha        1 NK7      0.197000
     65 H35        51.9200  341.0050-1360.4800 ha        1 NK7      0.209500
     66 HN36       54.4130  336.6950-1362.3850 hn        1 NK7      0.487467
     67 HN3A       56.0390  337.0120-1362.6250 hn        1 NK7      0.487467
     68 H62       -22.7080 -126.0790  507.1370 hn        1 NK7      0.455300
     69 H211      -18.8430 -126.2640  505.7090 hn        1 NK7      0.396800
     70 H363       54.9060  338.2250-1362.8450 hn        1 NK7      0.487467
@<TRIPOS>BOND
     1    1    2 1   
     2    1    5 1   
     3    1    6 1   
     4    1   42 1   
     5    2    3 1   
     6    2   21 1   
     7    2   43 1   
     8    3    4 1   
     9    3   44 1   
    10    3   45 1   
    11    4    5 1   
    12    4   46 1   
    13    5   47 1   
    14    5   48 1   
    15    6    7 1   
    16    6   49 1   
    17    6   68 1   
    18    7    8 1   
    19    7   50 1   
    20    7   51 1   
    21    8    9 ar  
    22    8   13 ar  
    23    9   10 ar  
    24    9   52 1   
    25   10   11 ar  
    26   10   53 1   
    27   11   12 ar  
    28   11   37 1   
    29   12   13 ar  
    30   12   54 1   
    31   13   55 1   
    32   14   15 ar  
    33   14   23 ar  
    34   14   56 1   
    35   15   16 ar  
    36   15   57 1   
    37   16   17 1   
    38   16   24 ar  
    39   17   18 1   
    40   17   19 1   
    41   17   20 1   
    42   21   22 1   
    43   21   69 1   
    44   22   23 1   
    45   22   58 1   
    46   22   59 1   
    47   23   25 ar  
    48   24   25 ar  
    49   24   60 1   
    50   25   61 1   
    51   26   35 1   
    52   26   36 2   
    53   26   41 1   
    54   27   28 1   
    55   27   29 1   
    56   27   30 1   
    57   30   31 ar  
    58   30   34 ar  
    59   31   32 ar  
    60   31   62 1   
    61   32   41 ar  
    62   32   63 1   
    63   33   34 ar  
    64   33   41 ar  
    65   33   64 1   
    66   34   65 1   
    67   35   66 1   
    68   35   67 1   
    69   35   70 1   
    70   37   38 1   
    71   37   39 1   
    72   37   40 1   
@<TRIPOS>SUBSTRUCTURE
     1 NK7         1 TEMP              0 ****  ****    0 ROOT
