@<TRIPOS>MOLECULE
NK7
   67    70     1     0     0
SMALL
bcc


@<TRIPOS>ATOM
      1 C1         -0.6460    1.9750    1.4380 c3        1 NK7      0.125500
      2 C2         -1.4420    2.8450    0.3940 c3        1 NK7      0.208500
      3 C3         -1.8080    4.1560    1.1670 c3        1 NK7      0.137800
      4 N4         -1.1940    4.1350    2.4850 n3        1 NK7     -0.790200
      5 C5         -0.7900    2.7690    2.7740 c3        1 NK7      0.152800
      6 N6          0.7450    1.7960    1.0490 n3        1 NK7     -0.817200
      7 C7          1.3890    0.6830    1.7210 c3        1 NK7      0.201100
      8 C8          2.8180    0.4830    1.3050 ca        1 NK7     -0.041300
      9 C9          3.8130    0.3910    2.2840 ca        1 NK7     -0.134000
     10 C10         5.1390    0.1640    1.9210 ca        1 NK7     -0.081500
     11 C11         5.4750    0.0350    0.5720 ca        1 NK7     -0.166300
     12 C12         4.4900    0.1340   -0.4130 ca        1 NK7     -0.081500
     13 C13         3.1650    0.3540   -0.0450 ca        1 NK7     -0.134000
     14 C14        -3.3320   -0.2530    2.0900 ca        1 NK7     -0.131500
     15 C15        -3.5110   -1.6070    2.3690 ca        1 NK7     -0.085000
     16 C16        -4.1530   -2.4250    1.4380 ca        1 NK7     -0.163300
     17 C17        -4.3610   -3.9020    1.7480 c3        1 NK7      0.686200
     18 F18        -5.5330   -4.1790    2.4100 f         1 NK7     -0.235300
     19 F19        -4.3990   -4.7170    0.6420 f         1 NK7     -0.235300
     20 F20        -3.3880   -4.4590    2.5430 f         1 NK7     -0.235300
     21 N21        -2.5530    2.1670   -0.2230 n3        1 NK7     -0.796500
     22 C22        -3.6570    1.7620    0.6110 c3        1 NK7      0.257100
     23 C23        -3.7880    0.2850    0.8820 ca        1 NK7     -0.089300
     24 C24        -4.6230   -1.8940    0.2350 ca        1 NK7     -0.085000
     25 C25        -4.4410   -0.5400   -0.0410 ca        1 NK7     -0.131500
     26 C26         1.4640   -2.1230   -3.2770 c         1 NK7      0.659700
     27 S27        -2.6140    2.0360   -1.8590 sy        1 NK7      1.499200
     28 O28        -3.8800    1.5470   -2.2440 o         1 NK7     -0.645800
     29 O29        -2.1910    3.2460   -2.4450 o         1 NK7     -0.645800
     30 C30        -1.4400    0.8630   -2.2040 ca        1 NK7     -0.359500
     31 C31        -1.7780   -0.4940   -2.2500 ca        1 NK7     -0.028000
     32 C32        -0.8320   -1.4580   -2.5930 ca        1 NK7     -0.125000
     33 C34         0.8280    0.2850   -2.8590 ca        1 NK7     -0.125000
     34 C35        -0.1290    1.2380   -2.5200 ca        1 NK7     -0.028000
     35 N36         2.7280   -2.0480   -2.7450 n         1 NK7     -0.671000
     36 O37         1.1600   -3.0450   -4.0600 o         1 NK7     -0.585100
     37 C38         6.9200   -0.2290    0.1680 c3        1 NK7      0.687200
     38 F39         7.2220   -1.5610    0.0130 f         1 NK7     -0.234633
     39 F40         7.2870    0.3370   -1.0300 f         1 NK7     -0.234633
     40 F41         7.8580    0.2280    1.0600 f         1 NK7     -0.234633
     41 C42         0.4770   -1.0690   -2.8900 ca        1 NK7     -0.075600
     42 H1         -1.1580    0.9750    1.5720 h1        1 NK7      0.048700
     43 H2         -0.7520    3.1540   -0.4530 h1        1 NK7      0.069700
     44 H3         -1.4700    5.0420    0.5660 h1        1 NK7      0.063700
     45 H3A        -2.9190    4.2520    1.3120 h1        1 NK7      0.063700
     46 HN4        -0.3970    4.7450    2.5080 hn        1 NK7      0.361800
     47 H5         -1.6140    2.2910    3.3730 h1        1 NK7      0.056200
     48 H5A         0.1480    2.7450    3.3880 h1        1 NK7      0.056200
     49 HN6         0.8180    1.6930    0.0520 hn        1 NK7      0.360800
     50 H7          1.3460    0.8910    2.8300 h1        1 NK7      0.046700
     51 H7A         0.8460   -0.2970    1.5470 h1        1 NK7      0.046700
     52 H9          3.5530    0.5020    3.3480 ha        1 NK7      0.141000
     53 H10         5.9240    0.0930    2.6920 ha        1 NK7      0.153000
     54 H12         4.7700    0.0500   -1.4760 ha        1 NK7      0.153000
     55 H13         2.3920    0.4310   -0.8270 ha        1 NK7      0.141000
     56 H14        -2.8440    0.3950    2.8360 ha        1 NK7      0.160500
     57 H15        -3.1500   -2.0330    3.3190 ha        1 NK7      0.155000
     58 H22        -3.5820    2.2910    1.6070 h1        1 NK7      0.075700
     59 H22A       -4.6160    2.1030    0.1130 h1        1 NK7      0.075700
     60 H24        -5.1380   -2.5450   -0.4900 ha        1 NK7      0.155000
     61 H25        -4.8280   -0.1120   -0.9840 ha        1 NK7      0.160500
     62 H31        -2.8160   -0.8030   -2.0240 ha        1 NK7      0.160000
     63 H32        -1.1110   -2.5230   -2.6520 ha        1 NK7      0.158500
     64 H34         1.8460    0.6050   -3.1320 ha        1 NK7      0.158500
     65 H35         0.1400    2.3100   -2.5280 ha        1 NK7      0.160000
     66 HN36        3.3810   -2.7630   -2.9530 hn        1 NK7      0.316500
     67 HN3A        2.9500   -1.3880   -2.0440 hn        1 NK7      0.316500
@<TRIPOS>BOND
     1    1    2 1   
     2    1    5 1   
     3    1    6 1   
     4    1   42 1   
     5    2    3 1   
     6    2   21 1   
     7    2   43 1   
     8    3    4 1   
     9    3   44 1   
    10    3   45 1   
    11    4    5 1   
    12    4   46 1   
    13    5   47 1   
    14    5   48 1   
    15    6    7 1   
    16    6   49 1   
    17    7    8 1   
    18    7   50 1   
    19    7   51 1   
    20    8    9 ar  
    21    8   13 ar  
    22    9   10 ar  
    23    9   52 1   
    24   10   11 ar  
    25   10   53 1   
    26   11   12 ar  
    27   11   37 1   
    28   12   13 ar  
    29   12   54 1   
    30   13   55 1   
    31   14   15 ar  
    32   14   23 ar  
    33   14   56 1   
    34   15   16 ar  
    35   15   57 1   
    36   16   17 1   
    37   16   24 ar  
    38   17   18 1   
    39   17   19 1   
    40   17   20 1   
    41   21   22 1   
    42   21   27 1   
    43   22   23 1   
    44   22   58 1   
    45   22   59 1   
    46   23   25 ar  
    47   24   25 ar  
    48   24   60 1   
    49   25   61 1   
    50   26   35 1   
    51   26   36 2   
    52   26   41 1   
    53   27   28 2   
    54   27   29 2   
    55   27   30 1   
    56   30   31 ar  
    57   30   34 ar  
    58   31   32 ar  
    59   31   62 1   
    60   32   41 ar  
    61   32   63 1   
    62   33   34 ar  
    63   33   41 ar  
    64   33   64 1   
    65   34   65 1   
    66   35   66 1   
    67   35   67 1   
    68   37   38 1   
    69   37   39 1   
    70   37   40 1   
@<TRIPOS>SUBSTRUCTURE
     1 NK7         1 TEMP              0 ****  ****    0 ROOT
