@<TRIPOS>MOLECULE
NK7
   67    62     1     0     0
SMALL
bcc


@<TRIPOS>ATOM
      1 C1         -1.3440   -0.5710    0.0060 c3        1 NK7     -0.075000
      2 C2         -1.4050   -0.5800   -1.2970 c3        1 NK7      0.007000
      3 C3         -0.5160   -1.8360   -1.7430 c3        1 NK7     -0.118000
      4 N4          0.2690   -2.2850   -0.4530 n3        1 NK7     -0.265000
      5 C5          0.0990   -1.3010    0.4070 c3        1 NK7     -0.091000
      6 N6         -2.4760   -1.3320    0.5760 n3        1 NK7     -0.299000
      7 C7         -2.2840   -1.4830    2.0020 c3        1 NK7     -0.044000
      8 C8         -3.0470   -2.7660    2.5040 c2        1 NK7     -0.056000
      9 C9         -3.2440   -3.8360    1.6360 c2        1 NK7     -0.117000
     10 C10        -3.7860   -5.0250    2.1090 c1        1 NK7     -0.087000
     11 C11        -4.1340   -5.1460    3.4560 c1        1 NK7     -0.161000
     12 C12        -3.9380   -4.0810    4.3220 c1        1 NK7     -0.081000
     13 C13        -3.3940   -2.8880    3.8470 c1        1 NK7     -0.130000
     14 C14        -0.1450    3.8920   -2.4800 c1        1 NK7     -0.133000
     15 C15         0.7850    4.9300   -2.3400 c1        1 NK7     -0.085000
     16 C16         1.4610    5.1050   -1.1270 c1        1 NK7     -0.158000
     17 C17         2.6130    6.1810   -1.0170 c2        1 NK7      0.466000
     18 F18         2.9950    6.3010    0.2690 f         1 NK7     -0.164667
     19 F19         3.6660    5.7920   -1.7630 f         1 NK7     -0.164667
     20 F20         2.1610    7.3640   -1.4620 f         1 NK7     -0.164667
     21 N21        -0.8390    0.6750   -1.8500 n3        1 NK7     -0.811000
     22 C22        -1.4710    1.9460   -1.5440 c3        1 NK7      0.006000
     23 C23        -0.3940    3.0400   -1.4180 c2        1 NK7     -0.078000
     24 C24         1.2080    4.2470   -0.0610 c2        1 NK7     -0.082000
     25 C25         0.2850    3.2170   -0.2010 c2        1 NK7     -0.133000
     26 C26         5.5830    0.7200    0.1520 c1        1 NK7      0.334000
     27 S27         0.4120    0.6060   -2.9980 s4        1 NK7      2.055800
     28 O28         0.2980   -0.5600   -3.8250 o         1 NK7     -0.536900
     29 O29         0.2840    1.6570   -3.9800 o         1 NK7     -0.536900
     30 C30         1.9940    0.6730   -2.1840 c1        1 NK7     -0.808000
     31 C31         2.6680   -0.4940   -1.8810 c2        1 NK7     -0.019000
     32 C32         3.8940   -0.4390   -1.2310 c1        1 NK7     -0.112000
     33 C34         3.7650    1.9550   -1.1910 c1        1 NK7     -0.138000
     34 C35         2.5420    1.8980   -1.8400 c1        1 NK7     -0.024000
     35 N36         6.2230    1.9190    0.5850 n2        1 NK7     -0.427000
     36 O37         6.0110   -0.3540    0.5100 o         1 NK7     -0.355000
     37 C38        -4.7440   -6.4580    3.9770 c3        1 NK7      0.466000
     38 F39        -3.7790   -7.2200    4.5110 f         1 NK7     -0.165667
     39 F40        -5.6720   -6.1830    4.9190 f         1 NK7     -0.165667
     40 F41        -5.3170   -7.1110    2.9660 f         1 NK7     -0.165667
     41 C42         4.4420    0.7880   -0.8870 c1        1 NK7     -0.055000
     42 H1         -1.3580    0.3510    0.3370 h1        1 NK7      0.080000
     43 H2         -2.3460   -0.6970   -1.5990 h1        1 NK7      0.111000
     44 H3         -1.0980   -2.5730   -2.0640 h1        1 NK7      0.112500
     45 H3A         0.1080   -1.5730   -2.4410 h1        1 NK7      0.112500
     46 HN4        -0.1110   -3.0530   -0.1170 hn        1 NK7      0.152000
     47 H5          0.8480   -0.6470    0.3300 h1        1 NK7      0.101000
     48 H5A         0.0540   -1.6570    1.3200 h1        1 NK7      0.101000
     49 HN6        -3.2590   -0.8770    0.4190 hn        1 NK7      0.161000
     50 H7         -1.3270   -1.5770    2.1940 h1        1 NK7      0.086000
     51 H7A        -2.6340   -0.6890    2.4650 h1        1 NK7      0.086000
     52 H9         -2.9990   -3.7500    0.6880 ha        1 NK7      0.154000
     53 H10        -3.9240   -5.7740    1.5010 ha        1 NK7      0.152000
     54 H12        -4.1820   -4.1660    5.2670 ha        1 NK7      0.155000
     55 H13        -3.2570   -2.1470    4.4500 ha        1 NK7      0.144000
     56 H14        -0.6220    3.7670   -3.3350 ha        1 NK7      0.175000
     57 H15         0.9600    5.5290   -3.0860 ha        1 NK7      0.154000
     58 H22        -1.9610    1.8710   -0.6940 h1        1 NK7      0.114500
     59 H22A       -2.1000    2.1820   -2.2650 h1        1 NK7      0.114500
     60 H24         1.6830    4.3690    0.7930 ha        1 NK7      0.157000
     61 H25         0.1070    2.6120    0.5520 ha        1 NK7      0.145000
     62 H31         2.2860   -1.3470   -2.1210 ha        1 NK7      0.171000
     63 H32         4.3650   -1.2560   -1.0190 ha        1 NK7      0.167000
     64 H34         4.1420    2.8050   -0.9530 ha        1 NK7      0.147000
     65 H35         2.0680    2.7160   -2.0520 ha        1 NK7      0.153000
     66 HN36        6.0540    2.7210    0.1460 hn        1 NK7      0.231500
     67 HN3A        6.7730    1.9030    1.3060 hn        1 NK7      0.231500
@<TRIPOS>BOND
     1    1    2 1   
     2    1    5 1   
     3    1    6 1   
     4    1   42 1   
     5    2    3 1   
     6    2   21 1   
     7    2   43 1   
     8    3    4 1   
     9    3   44 1   
    10    3   45 1   
    11    4    5 1   
    12    4   46 1   
    13    5   47 1   
    14    5   48 1   
    15    6    7 1   
    16    6   49 1   
    17    7    8 1   
    18    7   50 1   
    19    7   51 1   
    20    8    9 1   
    21    8   13 1   
    22    9   10 1   
    23    9   52 1   
    24   10   53 1   
    25   11   12 1   
    26   11   37 1   
    27   12   54 1   
    28   13   55 1   
    29   14   23 1   
    30   14   56 1   
    31   15   16 1   
    32   15   57 1   
    33   16   24 1   
    34   17   18 1   
    35   17   19 1   
    36   17   20 1   
    37   21   22 1   
    38   21   27 1   
    39   22   23 1   
    40   22   58 1   
    41   22   59 1   
    42   23   25 1   
    43   24   25 1   
    44   24   60 1   
    45   25   61 1   
    46   26   36 1   
    47   26   41 1   
    48   27   28 1   
    49   27   29 1   
    50   30   31 1   
    51   30   34 1   
    52   31   32 1   
    53   31   62 1   
    54   32   63 1   
    55   33   41 1   
    56   33   64 1   
    57   34   65 1   
    58   35   66 1   
    59   35   67 1   
    60   37   38 1   
    61   37   39 1   
    62   37   40 1   
@<TRIPOS>SUBSTRUCTURE
     1 NK7         1 TEMP              0 ****  ****    0 ROOT
