@<TRIPOS>MOLECULE
NK8
   68    71     1     0     0
SMALL
bcc


@<TRIPOS>ATOM
      1 C1         -0.2540   -3.6070   -1.3270 ca        1 NK8     -0.125000
      2 C2         -1.3710   -4.4040   -1.0830 ca        1 NK8     -0.082500
      3 C3         -1.8380   -4.5550    0.2240 ca        1 NK8     -0.161300
      4 C4         -3.0470   -5.4420    0.4930 c3        1 NK8      0.687200
      5 F5         -2.7370   -6.7660    0.6950 f         1 NK8     -0.235300
      6 F6         -3.7760   -5.0960    1.6040 f         1 NK8     -0.235300
      7 F7         -3.9720   -5.4680   -0.5230 f         1 NK8     -0.235300
      8 C8         -1.1940   -3.9150    1.2850 ca        1 NK8     -0.082500
      9 C9         -0.0750   -3.1220    1.0360 ca        1 NK8     -0.125000
     10 C10         0.4000   -2.9650   -0.2700 ca        1 NK8     -0.095300
     11 C11         1.6490   -2.1630   -0.5300 c3        1 NK8      0.265100
     12 N12         1.4970   -0.7330   -0.5370 n3        1 NK8     -0.796500
     13 S13         1.6250    0.1390    0.8460 sy        1 NK8      1.500200
     14 C14         3.0900    0.9560    0.6560 ca        1 NK8     -0.363500
     15 C15         3.1290    2.2560    0.1390 ca        1 NK8     -0.024000
     16 C16         4.3360    2.9400    0.0140 ca        1 NK8     -0.119500
     17 C17         5.5260    2.3260    0.4170 ca        1 NK8     -0.072600
     18 C18         6.8050    3.0820    0.2530 c         1 NK8      0.660700
     19 O19         7.0300    3.7690   -0.7640 o         1 NK8     -0.592100
     20 N20         7.7340    3.0020    1.2590 n         1 NK8     -0.668000
     21 C21         5.5030    1.0280    0.9370 ca        1 NK8     -0.119500
     22 C22         4.2900    0.3540    1.0510 ca        1 NK8     -0.024000
     23 O23         0.5830    1.0950    0.8970 o         1 NK8     -0.656800
     24 O24         1.7340   -0.7330    1.9520 o         1 NK8     -0.656800
     25 C25         1.1310   -0.0480   -1.7510 c3        1 NK8      0.191500
     26 C26        -0.3960   -0.1680   -2.1250 c3        1 NK8      0.134500
     27 N27        -1.1790    0.9740   -1.6970 n3        1 NK8     -0.823200
     28 C28        -2.5560    0.6510   -1.3720 c3        1 NK8      0.212100
     29 C29        -3.2410    1.7040   -0.5490 ca        1 NK8     -0.066300
     30 C30        -4.4640    2.2290   -0.9770 ca        1 NK8     -0.132000
     31 C31        -5.1310    3.1740   -0.2010 ca        1 NK8     -0.091500
     32 C32        -4.5710    3.6130    1.0050 ca        1 NK8     -0.142600
     33 C33        -5.3240    4.6220    1.8000 c         1 NK8      0.671700
     34 N34        -4.6100    5.5540    2.5160 n         1 NK8     -0.675000
     35 O35        -6.5730    4.6500    1.8240 o         1 NK8     -0.612100
     36 C36        -3.3500    3.0860    1.4360 ca        1 NK8     -0.091500
     37 C37        -2.6880    2.1340    0.6630 ca        1 NK8     -0.132000
     38 C38        -0.3750   -0.3450   -3.6760 c3        1 NK8      0.139800
     39 N40         0.9230   -0.8860   -4.0610 n3        1 NK8     -0.783200
     40 C41         1.8850   -0.4550   -3.0570 c3        1 NK8      0.139800
     41 H1          0.1140   -3.4890   -2.3580 ha        1 NK8      0.156500
     42 H2         -1.8880   -4.9100   -1.9140 ha        1 NK8      0.156000
     43 H8         -1.5730   -4.0350    2.3130 ha        1 NK8      0.156000
     44 H9          0.4420   -2.6220    1.8760 ha        1 NK8      0.156500
     45 H11         2.3970   -2.4250    0.2800 h1        1 NK8      0.066200
     46 H11A        2.0860   -2.5040   -1.5130 h1        1 NK8      0.066200
     47 H15         2.1870    2.7520   -0.1590 ha        1 NK8      0.158000
     48 H16         4.3650    3.9570   -0.4120 ha        1 NK8      0.157000
     49 HN20        7.5410    2.5160    2.0960 hn        1 NK8      0.317500
     50 HN2A        8.5740    3.5200    1.1860 hn        1 NK8      0.317500
     51 H21         6.4350    0.5290    1.2440 ha        1 NK8      0.157000
     52 H22         4.2700   -0.6650    1.4760 ha        1 NK8      0.158000
     53 H25         1.3810    1.0460   -1.5750 h1        1 NK8      0.064700
     54 H26        -0.7980   -1.1330   -1.6870 h1        1 NK8      0.042700
     55 HN27       -0.7330    1.4480   -0.9300 hn        1 NK8      0.389800
     56 H28        -3.1000    0.5160   -2.3510 h1        1 NK8      0.040700
     57 H28A       -2.6470   -0.3260   -0.8050 h1        1 NK8      0.040700
     58 H30        -4.9050    1.8960   -1.9280 ha        1 NK8      0.151000
     59 H31        -6.1050    3.5780   -0.5210 ha        1 NK8      0.144500
     60 HN34       -3.6260    5.5940    2.4640 hn        1 NK8      0.311500
     61 HN3A       -5.0940    6.2480    3.0280 hn        1 NK8      0.311500
     62 H36        -2.9080    3.3980    2.3940 ha        1 NK8      0.144500
     63 H37        -1.7240    1.7250    1.0140 ha        1 NK8      0.151000
     64 H38        -1.2100   -1.0180   -4.0000 h1        1 NK8      0.067200
     65 H38A       -0.4980    0.6460   -4.1920 h1        1 NK8      0.067200
     66 HN40        0.8840   -1.8900   -4.0910 hn        1 NK8      0.341800
     67 H41         2.3920    0.4670   -3.4590 h1        1 NK8      0.062700
     68 H41A        2.6800   -1.2250   -2.8870 h1        1 NK8      0.062700
@<TRIPOS>BOND
     1    1    2 ar  
     2    1   10 ar  
     3    1   41 1   
     4    2    3 ar  
     5    2   42 1   
     6    3    4 1   
     7    3    8 ar  
     8    4    5 1   
     9    4    6 1   
    10    4    7 1   
    11    8    9 ar  
    12    8   43 1   
    13    9   10 ar  
    14    9   44 1   
    15   10   11 1   
    16   11   12 1   
    17   11   45 1   
    18   11   46 1   
    19   12   13 1   
    20   12   25 1   
    21   13   14 1   
    22   13   23 2   
    23   13   24 2   
    24   14   15 ar  
    25   14   22 ar  
    26   15   16 ar  
    27   15   47 1   
    28   16   17 ar  
    29   16   48 1   
    30   17   18 1   
    31   17   21 ar  
    32   18   19 2   
    33   18   20 1   
    34   20   49 1   
    35   20   50 1   
    36   21   22 ar  
    37   21   51 1   
    38   22   52 1   
    39   25   26 1   
    40   25   40 1   
    41   25   53 1   
    42   26   27 1   
    43   26   38 1   
    44   26   54 1   
    45   27   28 1   
    46   27   55 1   
    47   28   29 1   
    48   28   56 1   
    49   28   57 1   
    50   29   30 ar  
    51   29   37 ar  
    52   30   31 ar  
    53   30   58 1   
    54   31   32 ar  
    55   31   59 1   
    56   32   33 1   
    57   32   36 ar  
    58   33   34 1   
    59   33   35 2   
    60   34   60 1   
    61   34   61 1   
    62   36   37 ar  
    63   36   62 1   
    64   37   63 1   
    65   38   39 1   
    66   38   64 1   
    67   38   65 1   
    68   39   40 1   
    69   39   66 1   
    70   40   67 1   
    71   40   68 1   
@<TRIPOS>SUBSTRUCTURE
     1 NK8         1 TEMP              0 ****  ****    0 ROOT
