@<TRIPOS>MOLECULE
NK8
   72    74     1     0     0
SMALL
bcc


@<TRIPOS>ATOM
      1 C1        294.1940 -437.5920 -261.4470 ca        1 NK8     -0.129000
      2 C2        295.1880 -438.3800 -262.0270 ca        1 NK8     -0.070500
      3 C3        295.3920 -438.3320 -263.4070 ca        1 NK8     -0.140000
      4 C4        296.4760 -439.2010 -264.0440 c3        1 NK8      0.466000
      5 F5        297.0130 -438.6740 -265.1910 f         1 NK8     -0.153000
      6 F6        297.5570 -439.4310 -263.2290 f         1 NK8     -0.153000
      7 F7        296.0400 -440.4510 -264.4050 f         1 NK8     -0.153000
      8 C8        294.6000 -437.5100 -264.2120 ca        1 NK8     -0.070500
      9 C9        293.6060 -436.7260 -263.6290 ca        1 NK8     -0.129000
     10 C10       293.4030 -436.7600 -262.2450 ca        1 NK8     -0.121000
     11 C11       292.3080 -435.9410 -261.6290 c3        1 NK8     -0.039000
     12 N12       292.3990 -434.5010 -261.7980 n3        1 NK8     -0.324000
     13 S13      -823.0470    0.1300  732.6300 s6        1 NK8      2.860000
     14 C14      -822.7350    0.3720  731.2700 cu        1 NK8     -0.978000
     15 C15      -823.5320    0.5760  730.1200 c3        1 NK8      0.050000
     16 C16      -823.2780    0.8910  728.9330 c1        1 NK8     -0.082000
     17 C17      -822.2110    0.9840  728.8700 c3        1 NK8     -0.031000
     18 C18      -822.0480    0.2080  727.6170 c2        1 NK8      0.277000
     19 O19      -822.9280    0.6610  726.9770 o         1 NK8     -0.081000
     20 N20      -820.6550    0.0890  727.0520 n         1 NK8     -0.139000
     21 C21      -821.3990    0.7680  729.9900 c2        1 NK8     -0.117000
     22 C22      -821.6620    0.4540  731.1730 cx        1 NK8      0.046000
     23 O23      -824.0900    0.9740  732.6240 o         1 NK8     -0.733000
     24 O24      -822.2340    0.8640  733.6640 o         1 NK8     -0.733000
     25 C25       293.3560 -433.8200 -260.9640 c3        1 NK8     -0.051000
     26 C26       292.9210 -432.3230 -260.7370 c3        1 NK8     -0.129000
     27 N27       291.8240 -432.2140 -259.7270 n4        1 NK8     -0.022000
     28 C28       291.2580 -430.8320 -259.6660 c3        1 NK8     -0.098000
     29 C29       290.2130 -430.6700 -258.6050 ca        1 NK8     -0.092000
     30 C30       290.5770 -430.6390 -257.2550 ca        1 NK8     -0.099500
     31 C31       289.6120 -430.4130 -256.2730 ca        1 NK8     -0.056000
     32 C32       288.2730 -430.2020 -256.6440 ca        1 NK8     -0.145000
     33 C33       287.3130 -429.9950 -255.5510 c2        1 NK8      0.302000
     34 N34       286.0850 -429.1620 -255.8550 n4        1 NK8     -0.144000
     35 O35       287.3860 -430.3900 -254.3990 o         1 NK8     -0.128000
     36 C36       287.9060 -430.2380 -257.9960 ca        1 NK8     -0.056000
     37 C37       288.8750 -430.4750 -258.9710 ca        1 NK8     -0.099500
     38 C38       294.2470 -431.6020 -260.3640 c3        1 NK8     -0.082000
     39 N40       295.3370 -432.3760 -260.9360 n3        1 NK8     -0.271000
     40 C41       294.8160 -433.6250 -261.4750 c3        1 NK8     -0.110000
     41 H1        294.0290 -437.6430 -260.3610 ha        1 NK8      0.138500
     42 H2        295.8130 -439.0410 -261.4020 ha        1 NK8      0.169000
     43 H8        294.7640 -437.4860 -265.3030 ha        1 NK8      0.169000
     44 H9        292.9690 -436.0970 -264.2690 ha        1 NK8      0.138500
     45 H11       291.3290 -436.2420 -262.1110 h1        1 NK8      0.111000
     46 H11A      292.2330 -436.1750 -260.5290 h1        1 NK8      0.111000
     47 H15      -824.3870    0.2870  730.1540 hc        1 NK8      0.212000
     48 H16      -823.9360    0.0540  728.0550 DU        1 NK8      0.246000
     49 HN20     -820.2930    0.0160  726.7950 DU        1 NK8      0.246000
     50 HN2A     -820.6760    0.4970  726.2020 hn        1 NK8      0.284000
     51 H21      -820.5690    0.0390  729.9750 ha        1 NK8      0.182000
     52 H22      -821.0160    0.2650  732.0580 h1        1 NK8      0.207000
     53 H25       293.4070 -434.3460 -259.9650 h1        1 NK8      0.107000
     54 H26       292.5220 -431.8870 -261.7000 hx        1 NK8      0.165000
     55 HN27      292.1810 -432.4810 -258.8030 hn        1 NK8      0.252000
     56 H28       290.8300 -430.5900 -260.6840 hx        1 NK8      0.165500
     57 H28A      292.1160 -430.1190 -259.4690 hx        1 NK8      0.165500
     58 H30       291.6280 -430.7730 -256.9500 ha        1 NK8      0.173000
     59 H31       289.9020 -430.3990 -255.2050 ha        1 NK8      0.172000
     60 HN34      286.3580 -428.2690 -256.2770 hn        1 NK8      0.273667
     61 HN3A      285.5680 -428.9780 -254.9810 hn        1 NK8      0.273667
     62 H36       286.8610 -430.1010 -258.3190 ha        1 NK8      0.172000
     63 H37       288.5750 -430.4970 -260.0340 ha        1 NK8      0.173000
     64 H38       294.3420 -431.4710 -259.2500 h1        1 NK8      0.102000
     65 H38A      294.2670 -430.5800 -260.8380 h1        1 NK8      0.102000
     66 HN40      296.0740 -432.5230 -260.2740 hn        1 NK8      0.192000
     67 H41       294.8340 -433.5410 -262.5980 h1        1 NK8      0.130000
     68 H41A      295.4460 -434.5080 -261.1830 h1        1 NK8      0.130000
     69 H121      292.5460 -434.2720 -262.7660 hn        1 NK8      0.186000
     70 H203     -820.0200    0.6600  727.7350 hn        1 NK8      0.284000
     71 H272      291.0860 -432.8820 -259.9930 hn        1 NK8      0.252000
     72 H343      285.4660 -429.6630 -256.5010 hn        1 NK8      0.273667
@<TRIPOS>BOND
     1    1    2 1   
     2    1   10 1   
     3    1   41 1   
     4    2    3 1   
     5    2   42 1   
     6    3    4 1   
     7    3    8 1   
     8    4    5 1   
     9    4    6 1   
    10    4    7 1   
    11    8    9 1   
    12    8   43 1   
    13    9   10 1   
    14    9   44 1   
    15   10   11 1   
    16   11   12 1   
    17   11   45 1   
    18   11   46 1   
    19   12   25 1   
    20   12   69 1   
    21   13   14 1   
    22   13   22 1   
    23   13   23 1   
    24   13   24 1   
    25   14   15 1   
    26   14   22 1   
    27   15   16 1   
    28   15   17 1   
    29   15   47 1   
    30   16   17 1   
    31   17   18 1   
    32   17   21 1   
    33   18   19 1   
    34   18   20 1   
    35   20   50 1   
    36   20   70 1   
    37   21   22 1   
    38   21   51 1   
    39   22   52 1   
    40   25   26 1   
    41   25   40 1   
    42   25   53 1   
    43   26   27 1   
    44   26   38 1   
    45   26   54 1   
    46   27   28 1   
    47   27   55 1   
    48   27   71 1   
    49   28   29 1   
    50   28   56 1   
    51   28   57 1   
    52   29   30 1   
    53   29   37 1   
    54   30   31 1   
    55   30   58 1   
    56   31   32 1   
    57   31   59 1   
    58   32   33 1   
    59   32   36 1   
    60   33   34 1   
    61   33   35 1   
    62   34   60 1   
    63   34   61 1   
    64   34   72 1   
    65   36   37 1   
    66   36   62 1   
    67   37   63 1   
    68   38   39 1   
    69   38   64 1   
    70   38   65 1   
    71   39   40 1   
    72   39   66 1   
    73   40   67 1   
    74   40   68 1   
@<TRIPOS>SUBSTRUCTURE
     1 NK8         1 TEMP              0 ****  ****    0 ROOT
