@<TRIPOS>MOLECULE
NK8
   68    63     1     0     0
SMALL
bcc


@<TRIPOS>ATOM
      1 C1          3.2130    2.9810    0.0800 c1        1 NK8     -0.106500
      2 C2          4.3110    3.2280    0.8820 c1        1 NK8     -0.106500
      3 C3          4.1800    3.2100    2.2580 c1        1 NK8     -0.154000
      4 C4          5.4000    3.5150    3.1530 c3        1 NK8      0.466000
      5 F5          5.1180    4.5520    3.9550 f         1 NK8     -0.164000
      6 F6          5.6860    2.4400    3.8980 f         1 NK8     -0.164000
      7 F7          6.4570    3.8200    2.3820 f         1 NK8     -0.164000
      8 C8          2.9370    2.9430    2.8390 c1        1 NK8     -0.078000
      9 C9          1.8370    2.6950    2.0370 c1        1 NK8     -0.125000
     10 C10         1.9650    2.7120    0.6610 c1        1 NK8     -0.087000
     11 C11         0.6740    2.6990   -0.2400 c3        1 NK8      0.021000
     12 N12        -0.0180    1.3880   -0.1020 n3        1 NK8     -0.816000
     13 S13        -0.4570    0.8370    1.4040 s4        1 NK8      2.055800
     14 C14        -1.9230    1.7100    1.9840 c1        1 NK8     -0.808000
     15 C15        -3.1770    1.1280    1.8490 c2        1 NK8     -0.025000
     16 C16        -4.3080    1.7680    2.3740 c1        1 NK8     -0.106000
     17 C17        -4.1760    2.9800    3.0280 c1        1 NK8     -0.087000
     18 C18        -5.4090    3.6500    3.6600 c2        1 NK8      0.339000
     19 O19        -6.4960    3.1150    3.5840 o         1 NK8     -0.362500
     20 N20        -5.2890    4.9380    4.2730 n         1 NK8     -0.432000
     21 C21        -2.9180    3.5650    3.1640 c1        1 NK8     -0.105000
     22 C22        -1.7900    2.9270    2.6400 c1        1 NK8     -0.023000
     23 O23        -0.6640   -0.5860    1.3990 o         1 NK8     -0.542900
     24 O24         0.6240    0.9560    2.3380 o         1 NK8     -0.542900
     25 C25        -0.4740    0.6270   -1.3580 c3        1 NK8     -0.006000
     26 C26         0.5990   -0.3910   -1.7830 c3        1 NK8     -0.063000
     27 N27         0.1510   -1.6870   -1.5560 n3        1 NK8     -0.302000
     28 C28         1.2370   -2.6190   -1.7780 c3        1 NK8     -0.032000
     29 C29         0.6570   -4.0610   -1.9790 c2        1 NK8     -0.058000
     30 C30         0.2630   -4.4790   -3.2470 c2        1 NK8     -0.129000
     31 C31        -0.1690   -5.7910   -3.4460 c1        1 NK8     -0.107000
     32 C32        -0.2070   -6.6820   -2.3760 c1        1 NK8     -0.087000
     33 C33        -0.6820   -8.1340   -2.5950 c2        1 NK8      0.339000
     34 N34        -1.0860   -8.5690   -3.8960 n         1 NK8     -0.432000
     35 O35        -0.6870   -8.9140   -1.6680 o         1 NK8     -0.362500
     36 C36         0.1880   -6.2640   -1.1080 c1        1 NK8     -0.105000
     37 C37         0.6190   -4.9540   -0.9080 c1        1 NK8     -0.134000
     38 C38         0.8140   -0.1610   -3.2740 c3        1 NK8     -0.097000
     39 N40        -0.1580    0.6060   -3.6410 n3        1 NK8     -0.262000
     40 C41        -0.5800    1.4310   -2.3500 c3        1 NK8     -0.097000
     41 H1          3.3060    2.9930   -0.8850 ha        1 NK8      0.144500
     42 H2          5.1810    3.4160    0.4760 ha        1 NK8      0.144500
     43 H8          2.8450    2.9310    3.8130 ha        1 NK8      0.159000
     44 H9          0.9670    2.5090    2.4450 ha        1 NK8      0.177000
     45 H11         0.0750    3.4130    0.0420 h1        1 NK8      0.105000
     46 H11A        0.9290    2.8380   -1.1800 h1        1 NK8      0.105000
     47 H15        -3.2720    0.2630    1.3830 ha        1 NK8      0.162000
     48 H16        -5.2030    1.3530    2.2770 ha        1 NK8      0.167000
     49 HN20       -4.5100    5.4260    4.1750 hn        1 NK8      0.228000
     50 HN2A       -5.9760    5.2690    4.7860 hn        1 NK8      0.228000
     51 H21        -2.8250    4.4160    3.6230 ha        1 NK8      0.152000
     52 H22        -0.9110    3.3350    2.7350 ha        1 NK8      0.154000
     53 H25        -1.3200    0.1770   -1.1930 h1        1 NK8      0.104000
     54 H26         1.4320   -0.2300   -1.2930 h1        1 NK8      0.084000
     55 HN27       -0.1450   -1.7610   -0.6860 hn        1 NK8      0.186000
     56 H28         1.8350   -2.6140   -1.0030 h1        1 NK8      0.079000
     57 H28A        1.7340   -2.3550   -2.5740 h1        1 NK8      0.079000
     58 H30         0.2880   -3.8550   -3.9970 ha        1 NK8      0.136000
     59 H31        -0.4470   -6.0860   -4.3400 ha        1 NK8      0.132000
     60 HN34       -1.1520   -9.4720   -4.0820 hn        1 NK8      0.228000
     61 HN3A       -1.2650   -7.9530   -4.5490 hn        1 NK8      0.228000
     62 H36         0.1620   -6.8890   -0.3580 ha        1 NK8      0.152000
     63 H37         0.8970   -4.6600   -0.0130 ha        1 NK8      0.167000
     64 H38         1.6860    0.2890   -3.4310 h1        1 NK8      0.106000
     65 H38A        0.7780   -1.0010   -3.7520 h1        1 NK8      0.106000
     66 HN40        0.1380    1.1860   -4.2930 hn        1 NK8      0.137000
     67 H41        -1.5060    1.7390   -2.4360 h1        1 NK8      0.101500
     68 H41A        0.0180    2.1950   -2.2290 h1        1 NK8      0.101500
@<TRIPOS>BOND
     1    1    2 1   
     2    1   41 1   
     3    2   42 1   
     4    3    4 1   
     5    3    8 1   
     6    4    5 1   
     7    4    6 1   
     8    4    7 1   
     9    8   43 1   
    10    9   10 1   
    11    9   44 1   
    12   10   11 1   
    13   11   12 1   
    14   11   45 1   
    15   11   46 1   
    16   12   13 1   
    17   12   25 1   
    18   13   23 1   
    19   13   24 1   
    20   14   15 1   
    21   14   22 1   
    22   15   16 1   
    23   15   47 1   
    24   16   48 1   
    25   17   18 1   
    26   17   21 1   
    27   18   19 1   
    28   18   20 1   
    29   20   49 1   
    30   20   50 1   
    31   21   51 1   
    32   22   52 1   
    33   25   26 1   
    34   25   40 1   
    35   25   53 1   
    36   26   27 1   
    37   26   38 1   
    38   26   54 1   
    39   27   28 1   
    40   27   55 1   
    41   28   29 1   
    42   28   56 1   
    43   28   57 1   
    44   29   30 1   
    45   29   37 1   
    46   30   31 1   
    47   30   58 1   
    48   31   59 1   
    49   32   33 1   
    50   32   36 1   
    51   33   34 1   
    52   33   35 1   
    53   34   60 1   
    54   34   61 1   
    55   36   62 1   
    56   37   63 1   
    57   38   39 1   
    58   38   64 1   
    59   38   65 1   
    60   39   40 1   
    61   39   66 1   
    62   40   67 1   
    63   40   68 1   
@<TRIPOS>SUBSTRUCTURE
     1 NK8         1 TEMP              0 ****  ****    0 ROOT
