@<TRIPOS>MOLECULE
NK8
   72    74     1     0     0
SMALL
bcc


@<TRIPOS>ATOM
      1 C1        219.4540 -247.5110 -192.6060 ca        1 NK8     -0.133500
      2 C2        219.1160 -247.4080 -191.2570 ca        1 NK8     -0.071000
      3 C3        217.7790 -247.2380 -190.8910 ca        1 NK8     -0.150300
      4 C4        217.4080 -247.1550 -189.4110 c3        1 NK8      0.687200
      5 F5        217.2300 -248.3850 -188.8250 f         1 NK8     -0.224300
      6 F6        218.3490 -246.5340 -188.6300 f         1 NK8     -0.224300
      7 F7        216.2400 -246.4810 -189.1580 f         1 NK8     -0.224300
      8 C8        216.7820 -247.1540 -191.8650 ca        1 NK8     -0.071000
      9 C9        217.1260 -247.2530 -193.2120 ca        1 NK8     -0.133500
     10 C10       218.4610 -247.4400 -193.5880 ca        1 NK8     -0.126300
     11 C11       218.8360 -247.5010 -195.0410 c3        1 NK8      0.206100
     12 N12       218.1350 -248.4730 -195.8590 n3        1 NK8     -0.828200
     13 S13      -619.9040  684.2030  553.1860 s4        1 NK8      1.648300
     14 C14      -619.8760  685.4790  552.2420 ca        1 NK8     -0.549500
     15 C15      -621.0630  685.9890  551.6630 ca        1 NK8      0.048000
     16 C16      -621.0420  687.0940  550.8160 ca        1 NK8     -0.099500
     17 C17      -619.8220  687.7170  550.5240 ca        1 NK8     -0.051600
     18 C18      -619.7180  688.8300  549.5490 c         1 NK8      0.536700
     19 O19      -618.9010  688.9420  548.6530 o         1 NK8     -0.320100
     20 N20      -620.7070  689.9610  549.6800 n4        1 NK8     -0.753400
     21 C21      -618.6300  687.2400  551.0850 ca        1 NK8     -0.099500
     22 C22      -618.6610  686.1360  551.9350 ca        1 NK8      0.048000
     23 O23      -621.1060  683.6520  553.4130 o         1 NK8     -0.341400
     24 O24      -618.7260  683.7920  553.6790 o         1 NK8     -0.341400
     25 C25       218.5620 -249.8450 -195.7320 c3        1 NK8      0.170500
     26 C26       218.0280 -250.6770 -196.9690 c3        1 NK8      0.098500
     27 N27       219.1340 -251.4720 -197.6110 n4        1 NK8     -0.755000
     28 C28       219.9720 -250.6390 -198.5220 c3        1 NK8      0.145100
     29 C29       221.0470 -251.4250 -199.2090 ca        1 NK8     -0.096300
     30 C30       220.7130 -252.3950 -200.1600 ca        1 NK8     -0.101000
     31 C31       221.7150 -253.0870 -200.8400 ca        1 NK8     -0.055000
     32 C32       223.0650 -252.7930 -200.5810 ca        1 NK8     -0.166600
     33 C33       224.0630 -253.5900 -201.3080 c         1 NK8      0.561700
     34 N34       225.3740 -252.9100 -201.6480 n4        1 NK8     -0.758400
     35 O35       223.9670 -254.7380 -201.7080 o         1 NK8     -0.368100
     36 C36       223.4020 -251.8190 -199.6330 ca        1 NK8     -0.055000
     37 C37       222.3940 -251.1420 -198.9470 ca        1 NK8     -0.101000
     38 C38       216.9640 -251.6220 -196.3490 c3        1 NK8      0.131800
     39 N40       217.4090 -251.8720 -194.9880 n3        1 NK8     -0.834200
     40 C41       218.0580 -250.6630 -194.4990 c3        1 NK8      0.103800
     41 H1        220.5100 -247.6320 -192.8910 ha        1 NK8      0.138000
     42 H2        219.8980 -247.4480 -190.4800 ha        1 NK8      0.168000
     43 H8        215.7320 -246.9950 -191.5660 ha        1 NK8      0.168000
     44 H9        216.3390 -247.1550 -193.9760 ha        1 NK8      0.138000
     45 H11       218.6060 -246.4940 -195.5040 h1        1 NK8      0.076200
     46 H11A      219.9450 -247.6750 -195.1390 h1        1 NK8      0.076200
     47 H15      -622.0370  685.4970  551.8780 ha        1 NK8      0.209500
     48 H16      -621.9910  687.4330  550.3660 ha        1 NK8      0.197000
     49 HN20     -620.5990  690.4280  550.5890 hn        1 NK8      0.487467
     50 HN2A     -620.5390  690.6560  548.9310 hn        1 NK8      0.487467
     51 H21      -617.6590  687.7170  550.8440 ha        1 NK8      0.197000
     52 H22      -617.7050  685.7660  552.3670 ha        1 NK8      0.209500
     53 H25       219.6900 -249.8460 -195.7110 h1        1 NK8      0.063700
     54 H26       217.5750 -250.0250 -197.7660 hx        1 NK8      0.131700
     55 HN27      218.7160 -252.2470 -198.1410 hn        1 NK8      0.456300
     56 H28       219.2910 -250.1780 -199.3000 hx        1 NK8      0.127700
     57 H28A      220.4140 -249.7970 -197.9100 hx        1 NK8      0.127700
     58 H30       219.6580 -252.6150 -200.3970 ha        1 NK8      0.171500
     59 H31       221.4460 -253.8650 -201.5790 ha        1 NK8      0.172000
     60 HN34      225.8950 -252.6920 -200.7920 hn        1 NK8      0.478133
     61 HN3A      225.1980 -252.0410 -202.1620 hn        1 NK8      0.478133
     62 H36       224.4500 -251.5830 -199.3910 ha        1 NK8      0.172000
     63 H37       222.6700 -250.3750 -198.2020 ha        1 NK8      0.171500
     64 H38       216.8610 -252.6050 -196.8850 h1        1 NK8      0.079700
     65 H38A      215.9710 -251.0900 -196.4220 h1        1 NK8      0.079700
     66 HN40      216.6620 -252.1770 -194.3920 hn        1 NK8      0.413800
     67 H41       217.3870 -250.0260 -193.8570 h1        1 NK8      0.080700
     68 H41A      218.9320 -250.9790 -193.8650 h1        1 NK8      0.080700
     69 H121      217.1420 -248.3950 -195.7260 hn        1 NK8      0.386800
     70 H203     -621.6690  689.6150  549.5950 hn        1 NK8      0.487467
     71 H272      219.7180 -251.8810 -196.8680 hn        1 NK8      0.456300
     72 H343      225.9470 -253.5380 -202.2330 hn        1 NK8      0.478133
@<TRIPOS>BOND
     1    1    2 ar  
     2    1   10 ar  
     3    1   41 1   
     4    2    3 ar  
     5    2   42 1   
     6    3    4 1   
     7    3    8 ar  
     8    4    5 1   
     9    4    6 1   
    10    4    7 1   
    11    8    9 ar  
    12    8   43 1   
    13    9   10 ar  
    14    9   44 1   
    15   10   11 1   
    16   11   12 1   
    17   11   45 1   
    18   11   46 1   
    19   12   25 1   
    20   12   69 1   
    21   13   14 1   
    22   13   23 1   
    23   13   24 1   
    24   14   15 ar  
    25   14   22 ar  
    26   15   16 ar  
    27   15   47 1   
    28   16   17 ar  
    29   16   48 1   
    30   17   18 1   
    31   17   21 ar  
    32   18   19 2   
    33   18   20 1   
    34   20   49 1   
    35   20   50 1   
    36   20   70 1   
    37   21   22 ar  
    38   21   51 1   
    39   22   52 1   
    40   25   26 1   
    41   25   40 1   
    42   25   53 1   
    43   26   27 1   
    44   26   38 1   
    45   26   54 1   
    46   27   28 1   
    47   27   55 1   
    48   27   71 1   
    49   28   29 1   
    50   28   56 1   
    51   28   57 1   
    52   29   30 ar  
    53   29   37 ar  
    54   30   31 ar  
    55   30   58 1   
    56   31   32 ar  
    57   31   59 1   
    58   32   33 1   
    59   32   36 ar  
    60   33   34 1   
    61   33   35 2   
    62   34   60 1   
    63   34   61 1   
    64   34   72 1   
    65   36   37 ar  
    66   36   62 1   
    67   37   63 1   
    68   38   39 1   
    69   38   64 1   
    70   38   65 1   
    71   39   40 1   
    72   39   66 1   
    73   40   67 1   
    74   40   68 1   
@<TRIPOS>SUBSTRUCTURE
     1 NK8         1 TEMP              0 ****  ****    0 ROOT
