@<TRIPOS>MOLECULE
NK8
   72    74     1     0     0
SMALL
bcc


@<TRIPOS>ATOM
      1 C1         94.0750 -168.7150  -96.0710 ca        1 NK8     -0.133000
      2 C2         93.8910 -167.6140  -95.2370 ca        1 NK8     -0.068500
      3 C3         93.2360 -167.7750  -94.0140 ca        1 NK8     -0.149300
      4 C4         93.0210 -166.5680  -93.1020 c3        1 NK8      0.687200
      5 F5         93.0270 -166.8730  -91.7630 f         1 NK8     -0.224300
      6 F6         93.9700 -165.5860  -93.2380 f         1 NK8     -0.224300
      7 F7         91.8250 -165.9270  -93.3060 f         1 NK8     -0.224300
      8 C8         92.7580 -169.0280  -93.6260 ca        1 NK8     -0.068500
      9 C9         92.9490 -170.1280  -94.4610 ca        1 NK8     -0.133000
     10 C10        93.6110 -169.9770  -95.6840 ca        1 NK8     -0.123300
     11 C11        93.7780 -171.1520  -96.6040 c3        1 NK8      0.201100
     12 N12        95.1340 -171.4550  -97.0210 n7        1 NK8     -0.838200
     13 S13      -275.5000  471.5380  270.4680 s4        1 NK8      1.648300
     14 C14      -275.1090  472.3340  271.7850 ca        1 NK8     -0.549500
     15 C15      -274.5960  473.6520  271.7190 ca        1 NK8      0.048000
     16 C16      -274.2280  474.3460  272.8690 ca        1 NK8     -0.099500
     17 C17      -274.3610  473.7320  274.1200 ca        1 NK8     -0.051600
     18 C18      -273.8880  474.3740  275.3700 c         1 NK8      0.536700
     19 O19      -273.2250  473.8570  276.2510 o         1 NK8     -0.320100
     20 N20      -274.2760  475.8130  275.6000 nz        1 NK8     -0.753400
     21 C21      -274.8700  472.4300  274.2190 ca        1 NK8     -0.099500
     22 C22      -275.2410  471.7440  273.0640 ca        1 NK8      0.048000
     23 O23      -275.3340  472.1870  269.3050 o         1 NK8     -0.341400
     24 O24      -275.9690  470.2920  270.6340 o         1 NK8     -0.341400
     25 C25        95.8830 -172.4100  -96.2510 c3        1 NK8      0.179500
     26 C26        95.3750 -173.8840  -96.5490 c3        1 NK8      0.097500
     27 N27        96.4800 -174.6910  -97.1760 ny        1 NK8     -0.757000
     28 C28        95.9850 -175.9580  -97.7900 c3        1 NK8      0.145100
     29 C29        97.0910 -176.8300  -98.3020 ca        1 NK8     -0.096300
     30 C30        97.9820 -177.4360  -97.4110 ca        1 NK8     -0.101500
     31 C31        98.9710 -178.2970  -97.8840 ca        1 NK8     -0.055000
     32 C32        99.0620 -178.5690  -99.2610 ca        1 NK8     -0.166600
     33 C33       100.1460 -179.4680  -99.6780 c         1 NK8      0.561700
     34 N34        99.9620 -180.2260 -100.9780 nz        1 NK8     -0.758400
     35 O35       101.1880 -179.7140  -99.0940 o         1 NK8     -0.369100
     36 C36        98.1710 -177.9610 -100.1550 ca        1 NK8     -0.055000
     37 C37        97.1920 -177.0920  -99.6750 ca        1 NK8     -0.101500
     38 C38        94.9550 -174.4390  -95.1630 c3        1 NK8      0.134800
     39 N40        95.7080 -173.6800  -94.1800 n7        1 NK8     -0.828200
     40 C41        95.8730 -172.3260  -94.6940 c3        1 NK8      0.105800
     41 H1         94.5680 -168.5780  -97.0450 ha        1 NK8      0.138000
     42 H2         94.2570 -166.6170  -95.5390 ha        1 NK8      0.168500
     43 H8         92.2330 -169.1410  -92.6630 ha        1 NK8      0.168500
     44 H9         92.5580 -171.1110  -94.1570 ha        1 NK8      0.138000
     45 H11        93.3180 -172.0690  -96.1370 h1        1 NK8      0.067700
     46 H11A       93.2090 -170.9290  -97.5570 h1        1 NK8      0.067700
     47 H15      -274.4750  474.1480  270.7320 ha        1 NK8      0.209500
     48 H16      -273.8050  475.3610  272.7600 ha        1 NK8      0.197000
     49 HN20     -273.8680  476.1430  276.4930 hn        1 NK8      0.487467
     50 HN2A     -273.9280  476.4100  274.8410 hn        1 NK8      0.487467
     51 H21      -274.9620  471.9300  275.2050 ha        1 NK8      0.197000
     52 H22      -275.6370  470.7090  273.1600 ha        1 NK8      0.209500
     53 H25        96.9620 -172.3040  -96.5780 h1        1 NK8      0.062700
     54 H26        94.5070 -173.8920  -97.2660 hx        1 NK8      0.127700
     55 HN27       97.1780 -174.9070  -96.4510 hn        1 NK8      0.457800
     56 H28        95.2750 -175.6820  -98.6260 hx        1 NK8      0.125200
     57 H28A       95.3970 -176.5210  -97.0040 hx        1 NK8      0.125200
     58 H30        97.9060 -177.2570  -96.3240 ha        1 NK8      0.173500
     59 H31        99.6810 -178.7660  -97.1770 ha        1 NK8      0.172000
     60 HN34       99.0570 -180.7070 -100.9840 hn        1 NK8      0.478133
     61 HN3A      100.0040 -179.5810 -101.7730 hn        1 NK8      0.478133
     62 H36        98.2280 -178.1340 -101.2420 ha        1 NK8      0.172000
     63 H37        96.4930 -176.6210 -100.3880 ha        1 NK8      0.173500
     64 H38        95.1840 -175.5310  -95.0270 h1        1 NK8      0.070700
     65 H38A       93.8360 -174.3120  -95.0820 h1        1 NK8      0.070700
     66 HN40       95.2770 -173.6950  -93.2750 hn        1 NK8      0.410800
     67 H41        96.8580 -171.9330  -94.3230 h1        1 NK8      0.085700
     68 H41A       95.0640 -171.6210  -94.3460 h1        1 NK8      0.085700
     69 H121       95.6650 -170.6110  -97.1500 hn        1 NK8      0.405800
     70 H203     -275.2980  475.9040  275.6550 hn        1 NK8      0.487467
     71 H272       96.9310 -174.1160  -97.8980 hn        1 NK8      0.457800
     72 H343      100.7160 -180.9230 -101.0800 hn        1 NK8      0.478133
@<TRIPOS>BOND
     1    1    2 ar  
     2    1   10 ar  
     3    1   41 1   
     4    2    3 ar  
     5    2   42 1   
     6    3    4 1   
     7    3    8 ar  
     8    4    5 1   
     9    4    6 1   
    10    4    7 1   
    11    8    9 ar  
    12    8   43 1   
    13    9   10 ar  
    14    9   44 1   
    15   10   11 1   
    16   11   12 1   
    17   11   45 1   
    18   11   46 1   
    19   12   25 1   
    20   12   69 1   
    21   13   14 1   
    22   13   23 1   
    23   13   24 1   
    24   14   15 ar  
    25   14   22 ar  
    26   15   16 ar  
    27   15   47 1   
    28   16   17 ar  
    29   16   48 1   
    30   17   18 1   
    31   17   21 ar  
    32   18   19 2   
    33   18   20 1   
    34   20   49 1   
    35   20   50 1   
    36   20   70 1   
    37   21   22 ar  
    38   21   51 1   
    39   22   52 1   
    40   25   26 1   
    41   25   40 1   
    42   25   53 1   
    43   26   27 1   
    44   26   38 1   
    45   26   54 1   
    46   27   28 1   
    47   27   55 1   
    48   27   71 1   
    49   28   29 1   
    50   28   56 1   
    51   28   57 1   
    52   29   30 ar  
    53   29   37 ar  
    54   30   31 ar  
    55   30   58 1   
    56   31   32 ar  
    57   31   59 1   
    58   32   33 1   
    59   32   36 ar  
    60   33   34 1   
    61   33   35 2   
    62   34   60 1   
    63   34   61 1   
    64   34   72 1   
    65   36   37 ar  
    66   36   62 1   
    67   37   63 1   
    68   38   39 1   
    69   38   64 1   
    70   38   65 1   
    71   39   40 1   
    72   39   66 1   
    73   40   67 1   
    74   40   68 1   
@<TRIPOS>SUBSTRUCTURE
     1 NK8         1 TEMP              0 ****  ****    0 ROOT
