@<TRIPOS>MOLECULE
NK9
   69    71     1     0     0
SMALL
bcc


@<TRIPOS>ATOM
      1 C1         -0.3820    0.4810    0.5870 c3        1 NK9      0.161800
      2 N2          0.8230   -0.0310   -0.0330 n7        1 NK9     -0.824200
      3 C3          1.8750   -0.1220    0.9600 c3        1 NK9      0.151800
      4 C4          1.5090    0.8540    2.1240 c3        1 NK9      0.068500
      5 N5          1.6190    0.1930    3.4650 ny        1 NK9     -0.767000
      6 C6          1.6490    1.1750    4.6030 c3        1 NK9      0.170100
      7 C7          0.9420    0.6600    5.8150 ca        1 NK9     -0.111300
      8 C8          1.5670   -0.2810    6.6240 ca        1 NK9     -0.177500
      9 C9          0.9150   -0.7250    7.8010 ca        1 NK9      0.191100
     10 O10         1.5900   -1.6550    8.5240 oh        1 NK9     -0.515100
     11 C11        -0.3410   -0.2150    8.1590 ca        1 NK9     -0.242000
     12 C12        -0.9360    0.7400    7.3250 ca        1 NK9      0.191100
     13 O13        -2.1600    1.3120    7.6380 oh        1 NK9     -0.515100
     14 C14        -0.3200    1.1750    6.1460 ca        1 NK9     -0.177500
     15 C15         0.0540    1.3610    1.8040 c3        1 NK9      0.133500
     16 N16        -0.0720    2.8060    1.5890 n7        1 NK9     -0.905200
     17 S17        -2.4010    3.4670    1.3410 s4        1 NK9      1.654300
     18 O18        -2.1350    4.4590    0.4690 o         1 NK9     -0.381900
     19 O19        -2.7770    2.2010    1.0600 o         1 NK9     -0.381900
     20 C20        -2.5620    3.9040    2.8800 ca        1 NK9     -0.511500
     21 C21        -2.4610    5.2500    3.2820 ca        1 NK9      0.017500
     22 C22        -2.6310    5.6200    4.6190 ca        1 NK9     -0.092500
     23 C23        -2.8990    4.6400    5.5860 ca        1 NK9     -0.064600
     24 C24        -3.0160    5.1070    6.9870 c         1 NK9      0.536700
     25 N25        -3.4940    4.1290    8.0250 nz        1 NK9     -0.755400
     26 O26        -2.7540    6.2250    7.4000 o         1 NK9     -0.334100
     27 C27        -3.0220    3.2960    5.2050 ca        1 NK9     -0.092500
     28 C28        -2.8660    2.9430    3.8700 ca        1 NK9      0.017500
     29 C29         0.6790    3.3580    0.4470 c3        1 NK9      0.148100
     30 C30         2.1030    3.7240    0.7310 ca        1 NK9     -0.149300
     31 C31         3.1230    3.2130   -0.0770 ca        1 NK9     -0.137500
     32 C32         4.4470    3.6140    0.1280 ca        1 NK9     -0.066500
     33 C33         4.7450    4.5140    1.1500 ca        1 NK9     -0.136300
     34 C34         6.1930    4.9570    1.3960 c3        1 NK9      0.688200
     35 F35         6.4960    6.1720    0.8460 f         1 NK9     -0.212300
     36 F36         6.4930    5.0800    2.7310 f         1 NK9     -0.212300
     37 F37         7.1280    4.0850    0.9030 f         1 NK9     -0.212300
     38 C38         3.7270    5.0410    1.9520 ca        1 NK9     -0.066500
     39 C39         2.4090    4.6460    1.7410 ca        1 NK9     -0.137500
     40 H1         -1.0690   -0.3220    0.9800 h1        1 NK9      0.080700
     41 H1A        -0.9570    1.0600   -0.1880 h1        1 NK9      0.080700
     42 HN2         0.6780   -0.8840   -0.5410 hn        1 NK9      0.435800
     43 H3          2.0440   -1.1730    1.3330 h1        1 NK9      0.088700
     44 H3A         2.8320    0.2300    0.4760 h1        1 NK9      0.088700
     45 H4          2.2480    1.7130    2.1160 hx        1 NK9      0.140700
     46 HN5         2.4880   -0.3630    3.4790 hn        1 NK9      0.464800
     47 H6          1.1720    2.1330    4.2500 hx        1 NK9      0.108700
     48 H6A         2.7340    1.3890    4.8450 hx        1 NK9      0.108700
     49 H8          2.5690   -0.6810    6.4000 ha        1 NK9      0.148500
     50 HO10        1.0880   -1.8830    9.3270 ho        1 NK9      0.463000
     51 H11        -0.8420   -0.5580    9.0790 ha        1 NK9      0.179000
     52 HO13       -2.5970    0.7280    8.2820 ho        1 NK9      0.463000
     53 H14        -0.8170    1.9200    5.5110 ha        1 NK9      0.148500
     54 H15        -0.6420    1.1270    2.6640 h1        1 NK9      0.054700
     55 H21        -2.2500    6.0440    2.5320 ha        1 NK9      0.200500
     56 H22        -2.5510    6.6890    4.9080 ha        1 NK9      0.202000
     57 HN25       -2.8690    3.3090    8.0620 hn        1 NK9      0.489800
     58 HN2A       -3.5010    4.5890    8.9520 hn        1 NK9      0.489800
     59 H27        -3.2280    2.4900    5.9350 ha        1 NK9      0.202000
     60 H28        -3.0010    1.8810    3.5770 ha        1 NK9      0.200500
     61 H29         0.1390    4.3030    0.1290 h1        1 NK9      0.114700
     62 H29A        0.6360    2.6340   -0.4200 h1        1 NK9      0.114700
     63 H31         2.8900    2.5140   -0.8980 ha        1 NK9      0.141000
     64 H32         5.2530    3.2270   -0.5230 ha        1 NK9      0.183500
     65 H38         3.9770    5.7780    2.7350 ha        1 NK9      0.183500
     66 H39         1.6110    5.1040    2.3420 ha        1 NK9      0.141000
     67 H52         0.8370   -0.4620    3.5930 hn        1 NK9      0.464800
     68 H161        0.2530    3.2720    2.4270 hn        1 NK9      0.378800
     69 H253       -4.4480    3.8170    7.8080 hn        1 NK9      0.489800
@<TRIPOS>BOND
     1    1    2 1   
     2    1   15 1   
     3    1   40 1   
     4    1   41 1   
     5    2    3 1   
     6    2   42 1   
     7    3    4 1   
     8    3   43 1   
     9    3   44 1   
    10    4    5 1   
    11    4   15 1   
    12    4   45 1   
    13    5    6 1   
    14    5   46 1   
    15    5   67 1   
    16    6    7 1   
    17    6   47 1   
    18    6   48 1   
    19    7    8 ar  
    20    7   14 ar  
    21    8    9 ar  
    22    8   49 1   
    23    9   10 1   
    24    9   11 ar  
    25   10   50 1   
    26   11   12 ar  
    27   11   51 1   
    28   12   13 1   
    29   12   14 ar  
    30   13   52 1   
    31   14   53 1   
    32   15   16 1   
    33   15   54 1   
    34   16   29 1   
    35   16   68 1   
    36   17   18 1   
    37   17   19 1   
    38   17   20 1   
    39   20   21 ar  
    40   20   28 ar  
    41   21   22 ar  
    42   21   55 1   
    43   22   23 ar  
    44   22   56 1   
    45   23   24 1   
    46   23   27 ar  
    47   24   25 1   
    48   24   26 2   
    49   25   57 1   
    50   25   58 1   
    51   25   69 1   
    52   27   28 ar  
    53   27   59 1   
    54   28   60 1   
    55   29   30 1   
    56   29   61 1   
    57   29   62 1   
    58   30   31 ar  
    59   30   39 ar  
    60   31   32 ar  
    61   31   63 1   
    62   32   33 ar  
    63   32   64 1   
    64   33   34 1   
    65   33   38 ar  
    66   34   35 1   
    67   34   36 1   
    68   34   37 1   
    69   38   39 ar  
    70   38   65 1   
    71   39   66 1   
@<TRIPOS>SUBSTRUCTURE
     1 NK9         1 TEMP              0 ****  ****    0 ROOT
