@<TRIPOS>MOLECULE
NK9
   66    69     1     0     0
SMALL
bcc


@<TRIPOS>ATOM
      1 C1         -1.0470   -4.2710   -0.6170 c3        1 NK9      0.136800
      2 N2         -0.4770   -4.3960   -1.9490 n3        1 NK9     -0.791200
      3 C3         -0.1340   -3.0640   -2.4190 c3        1 NK9      0.152800
      4 C4          0.0360   -2.1100   -1.1960 c3        1 NK9      0.126500
      5 N5          1.4350   -1.8850   -0.8620 n3        1 NK9     -0.818200
      6 C6          2.0820   -0.9040   -1.7140 c3        1 NK9      0.204100
      7 C7          3.4870   -0.5990   -1.2780 ca        1 NK9     -0.004300
      8 C8          4.5540   -0.8840   -2.1330 ca        1 NK9     -0.215500
      9 C9          5.8610   -0.5750   -1.7290 ca        1 NK9      0.161600
     10 O10         6.9570   -0.8250   -2.5190 oh        1 NK9     -0.506100
     11 C11         6.1210    0.0110   -0.4810 ca        1 NK9     -0.237000
     12 C12         5.0320    0.2820    0.3540 ca        1 NK9      0.161600
     13 O13         5.1870    0.8570    1.5960 oh        1 NK9     -0.506100
     14 C14         3.7150   -0.0140   -0.0310 ca        1 NK9     -0.215500
     15 C15        -0.7270   -2.8530   -0.0350 c3        1 NK9      0.208500
     16 N16        -1.8650   -2.1380    0.4830 n3        1 NK9     -0.795500
     17 S17        -1.9480   -1.7970    2.0880 sy        1 NK9      1.499200
     18 O18        -3.2560   -1.3700    2.4080 o         1 NK9     -0.647300
     19 O19        -1.4370   -2.8850    2.8260 o         1 NK9     -0.647300
     20 C20        -0.8820   -0.4970    2.2780 ca        1 NK9     -0.361500
     21 C21        -1.3450    0.8210    2.2100 ca        1 NK9     -0.029500
     22 C22        -0.4880    1.8960    2.4350 ca        1 NK9     -0.122000
     23 C23         0.8600    1.6610    2.7240 ca        1 NK9     -0.072600
     24 C24         1.7370    2.8440    2.9850 c         1 NK9      0.658700
     25 N25         3.0390    2.7960    2.5630 n         1 NK9     -0.666000
     26 O26         1.2930    3.8630    3.5530 o         1 NK9     -0.602100
     27 C27         1.3390    0.3490    2.7980 ca        1 NK9     -0.122000
     28 C28         0.4680   -0.7170    2.5790 ca        1 NK9     -0.029500
     29 C29        -2.9780   -1.8980   -0.4020 c3        1 NK9      0.257100
     30 C30        -3.1930   -0.4710   -0.8380 ca        1 NK9     -0.088300
     31 C31        -2.7290   -0.0360   -2.0830 ca        1 NK9     -0.130000
     32 C32        -2.9870    1.2630   -2.5160 ca        1 NK9     -0.085000
     33 C33        -3.7160    2.1310   -1.7000 ca        1 NK9     -0.162300
     34 C34        -4.0140    3.5460   -2.1800 c3        1 NK9      0.687200
     35 F35        -5.1760    3.6620   -2.9040 f         1 NK9     -0.235967
     36 F36        -4.1500    4.4730   -1.1750 f         1 NK9     -0.235967
     37 F37        -3.0530    4.0820   -3.0030 f         1 NK9     -0.235967
     38 C38        -4.1930    1.7030   -0.4600 ca        1 NK9     -0.085000
     39 C39        -3.9310    0.4030   -0.0300 ca        1 NK9     -0.130000
     40 H1         -2.1560   -4.4380   -0.7060 h1        1 NK9      0.062700
     41 H1A        -0.6430   -5.0520    0.0820 h1        1 NK9      0.062700
     42 HN2         0.3430   -4.9760   -1.9230 hn        1 NK9      0.359800
     43 H3          0.7760   -3.0870   -3.0730 h1        1 NK9      0.054700
     44 H3A        -0.9990   -2.6870   -3.0340 h1        1 NK9      0.054700
     45 H4         -0.4840   -1.1360   -1.4370 h1        1 NK9      0.046700
     46 HN5         1.5260   -1.6210    0.1030 hn        1 NK9      0.363800
     47 H6          2.0910   -1.3200   -2.7620 h1        1 NK9      0.043700
     48 H6A         1.5130    0.0760   -1.7500 h1        1 NK9      0.043700
     49 H8          4.3750   -1.3530   -3.1110 ha        1 NK9      0.142500
     50 HO10        6.6490   -1.2400   -3.3390 ho        1 NK9      0.429500
     51 H11         7.1520    0.2410   -0.1840 ha        1 NK9      0.157000
     52 HO13        6.1340    0.9840    1.7550 ho        1 NK9      0.429500
     53 H14         2.8850    0.2180    0.6520 ha        1 NK9      0.142500
     54 H15        -0.0280   -3.0140    0.8440 h1        1 NK9      0.071700
     55 H21        -2.4130    1.0090    1.9900 ha        1 NK9      0.157500
     56 H22        -0.8640    2.9320    2.4050 ha        1 NK9      0.160500
     57 HN25        3.4140    1.9950    2.1190 hn        1 NK9      0.322500
     58 HN2A        3.6310    3.5690    2.7350 hn        1 NK9      0.322500
     59 H27         2.3910    0.1450    3.0520 ha        1 NK9      0.160500
     60 H28         0.8410   -1.7530    2.6710 ha        1 NK9      0.157500
     61 H29        -2.8550   -2.5290   -1.3310 h1        1 NK9      0.074700
     62 H29A       -3.9230   -2.2390    0.1230 h1        1 NK9      0.074700
     63 H31        -2.1710   -0.7250   -2.7370 ha        1 NK9      0.160500
     64 H32        -2.6190    1.6090   -3.4950 ha        1 NK9      0.154000
     65 H38        -4.7740    2.3920    0.1750 ha        1 NK9      0.154000
     66 H39        -4.3180    0.0550    0.9460 ha        1 NK9      0.160500
@<TRIPOS>BOND
     1    1    2 1   
     2    1   15 1   
     3    1   40 1   
     4    1   41 1   
     5    2    3 1   
     6    2   42 1   
     7    3    4 1   
     8    3   43 1   
     9    3   44 1   
    10    4    5 1   
    11    4   15 1   
    12    4   45 1   
    13    5    6 1   
    14    5   46 1   
    15    6    7 1   
    16    6   47 1   
    17    6   48 1   
    18    7    8 ar  
    19    7   14 ar  
    20    8    9 ar  
    21    8   49 1   
    22    9   10 1   
    23    9   11 ar  
    24   10   50 1   
    25   11   12 ar  
    26   11   51 1   
    27   12   13 1   
    28   12   14 ar  
    29   13   52 1   
    30   14   53 1   
    31   15   16 1   
    32   15   54 1   
    33   16   17 1   
    34   16   29 1   
    35   17   18 2   
    36   17   19 2   
    37   17   20 1   
    38   20   21 ar  
    39   20   28 ar  
    40   21   22 ar  
    41   21   55 1   
    42   22   23 ar  
    43   22   56 1   
    44   23   24 1   
    45   23   27 ar  
    46   24   25 1   
    47   24   26 2   
    48   25   57 1   
    49   25   58 1   
    50   27   28 ar  
    51   27   59 1   
    52   28   60 1   
    53   29   30 1   
    54   29   61 1   
    55   29   62 1   
    56   30   31 ar  
    57   30   39 ar  
    58   31   32 ar  
    59   31   63 1   
    60   32   33 ar  
    61   32   64 1   
    62   33   34 1   
    63   33   38 ar  
    64   34   35 1   
    65   34   36 1   
    66   34   37 1   
    67   38   39 ar  
    68   38   65 1   
    69   39   66 1   
@<TRIPOS>SUBSTRUCTURE
     1 NK9         1 TEMP              0 ****  ****    0 ROOT
