@<TRIPOS>MOLECULE
NK9
   66    62     1     0     0
SMALL
bcc


@<TRIPOS>ATOM
      1 C1         -1.6640   -0.9860    1.7040 c3        1 NK9     -0.124000
      2 N2         -1.5960   -1.8030    0.3710 n3        1 NK9     -0.259000
      3 C3         -0.4010   -1.5400   -0.1300 c3        1 NK9     -0.090000
      4 C4          0.5560   -1.1750    1.1330 c3        1 NK9     -0.083000
      5 N5          1.0520   -2.4120    1.7710 n3        1 NK9     -0.295000
      6 C6          1.9320   -3.1350    0.8280 c3        1 NK9     -0.044000
      7 C7          1.7820   -4.6390    1.0470 c2        1 NK9     -0.045000
      8 C8          0.6480   -5.3140    0.5510 c1        1 NK9     -0.194000
      9 C9          0.5570   -6.7020    0.6680 c1        1 NK9      0.124000
     10 O10        -0.6080   -7.3690    0.2330 oh        1 NK9     -0.253000
     11 C11         1.5840   -7.4170    1.2730 c1        1 NK9     -0.288000
     12 C12         2.7100   -6.7460    1.7660 c1        1 NK9      0.111000
     13 O13         3.7720   -7.4810    2.3580 oh        1 NK9     -0.270000
     14 C14         2.8030   -5.3540    1.6490 c2        1 NK9     -0.189000
     15 C15        -0.1920   -0.4950    1.9780 c3        1 NK9      0.013000
     16 N16        -0.0680    0.9780    1.7190 n3        1 NK9     -0.811000
     17 S17        -1.4320    1.9320    1.7170 s4        1 NK9      2.056800
     18 O18        -2.4390    1.4000    2.5760 o         1 NK9     -0.537400
     19 O19        -1.1750    3.2290    2.3530 o         1 NK9     -0.537400
     20 C20        -2.0500    2.1400    0.0230 c1        1 NK9     -0.810000
     21 C21        -1.4120    3.0060   -0.8440 c2        1 NK9     -0.023000
     22 C22        -1.9090    3.1910   -2.1410 c1        1 NK9     -0.133000
     23 C23        -3.0410    2.5020   -2.5520 c1        1 NK9     -0.052000
     24 C24        -3.4630    2.5490   -3.9940 c2        1 NK9      0.331000
     25 N25        -2.6900    3.3100   -4.9460 n         1 NK9     -0.429000
     26 O26        -4.5090    1.9960   -4.3500 o         1 NK9     -0.361000
     27 C27        -3.6820    1.6270   -1.6720 c1        1 NK9     -0.113000
     28 C28        -3.1910    1.4470   -0.3950 c1        1 NK9     -0.024000
     29 C29         1.2240    1.5980    1.7700 c3        1 NK9      0.006000
     30 C30         1.2710    2.7810    0.7610 c2        1 NK9     -0.081000
     31 C31         1.5830    2.5440   -0.5600 c2        1 NK9     -0.123000
     32 C32         1.6860    3.5910   -1.4430 c1        1 NK9     -0.085000
     33 C33         1.4770    4.8910   -1.0100 c1        1 NK9     -0.161000
     34 C34         1.3120    5.9820   -2.0230 c3        1 NK9      0.470000
     35 F35         0.5040    6.9200   -1.5400 f         1 NK9     -0.169667
     36 F36         2.4990    6.5170   -2.2990 f         1 NK9     -0.169667
     37 F37         0.7860    5.4710   -3.1400 f         1 NK9     -0.169667
     38 C38         1.1640    5.1320    0.3090 c1        1 NK9     -0.086000
     39 C39         1.0600    4.0740    1.2000 c1        1 NK9     -0.131000
     40 H1         -2.2710   -0.2100    1.5980 h1        1 NK9      0.116000
     41 H1A        -1.9720   -1.5570    2.4340 h1        1 NK9      0.116000
     42 HN2        -1.6590   -2.7250    0.5630 hn        1 NK9      0.151000
     43 H3         -0.4530   -0.7600   -0.7580 h1        1 NK9      0.097500
     44 H3A        -0.0460   -2.3430   -0.6070 h1        1 NK9      0.097500
     45 H4          1.2950   -0.6340    0.8410 h1        1 NK9      0.086000
     46 HN5         1.5370   -2.1920    2.5480 hn        1 NK9      0.160000
     47 H6          1.6840   -2.9160   -0.0760 h1        1 NK9      0.105000
     48 H6A         2.8790   -2.8670    0.9860 h1        1 NK9      0.105000
     49 H8         -0.0530   -4.8110    0.0640 ha        1 NK9      0.153000
     50 HO10       -0.4530   -7.7560   -0.5390 ho        1 NK9      0.233000
     51 H11         1.5210   -8.3850    1.3540 ha        1 NK9      0.145000
     52 HO13        4.1630   -8.0040    1.7340 ho        1 NK9      0.229000
     53 H14         3.5990   -4.8810    1.9970 ha        1 NK9      0.151000
     54 H15         0.0700   -0.7030    2.9110 h1        1 NK9      0.107000
     55 H21        -0.6060    3.4940   -0.5480 ha        1 NK9      0.151000
     56 H22        -1.4640    3.7980   -2.7490 ha        1 NK9      0.148000
     57 HN25       -1.9120    3.7720   -4.6630 hn        1 NK9      0.236500
     58 HN2A       -2.9100    3.2970   -5.8040 hn        1 NK9      0.236500
     59 H27        -4.5190    1.1180   -1.9750 ha        1 NK9      0.166000
     60 H28        -3.6500    0.8190    0.2320 ha        1 NK9      0.172000
     61 H29         1.3880    1.9330    2.6760 h1        1 NK9      0.112500
     62 H29A        1.9050    0.9470    1.5360 h1        1 NK9      0.112500
     63 H31         1.7330    1.6140   -0.8760 ha        1 NK9      0.139000
     64 H32         1.9070    3.4190   -2.3790 ha        1 NK9      0.163000
     65 H38         1.0160    6.0430    0.6170 ha        1 NK9      0.156000
     66 H39         0.8320    4.2480    2.1620 ha        1 NK9      0.184000
@<TRIPOS>BOND
     1    1    2 1   
     2    1   15 1   
     3    1   40 1   
     4    1   41 1   
     5    2    3 1   
     6    2   42 1   
     7    3    4 1   
     8    3   43 1   
     9    3   44 1   
    10    4    5 1   
    11    4   15 1   
    12    4   45 1   
    13    5    6 1   
    14    5   46 1   
    15    6    7 1   
    16    6   47 1   
    17    6   48 1   
    18    7    8 1   
    19    7   14 1   
    20    8   49 1   
    21    9   10 1   
    22    9   11 1   
    23   10   50 1   
    24   11   51 1   
    25   12   13 1   
    26   12   14 1   
    27   13   52 1   
    28   14   53 1   
    29   15   16 1   
    30   15   54 1   
    31   16   17 1   
    32   16   29 1   
    33   17   18 1   
    34   17   19 1   
    35   20   21 1   
    36   20   28 1   
    37   21   22 1   
    38   21   55 1   
    39   22   56 1   
    40   23   24 1   
    41   23   27 1   
    42   24   25 1   
    43   24   26 1   
    44   25   57 1   
    45   25   58 1   
    46   27   59 1   
    47   28   60 1   
    48   29   30 1   
    49   29   61 1   
    50   29   62 1   
    51   30   31 1   
    52   30   39 1   
    53   31   32 1   
    54   31   63 1   
    55   32   64 1   
    56   33   34 1   
    57   33   38 1   
    58   34   35 1   
    59   34   36 1   
    60   34   37 1   
    61   38   65 1   
    62   39   66 1   
@<TRIPOS>SUBSTRUCTURE
     1 NK9         1 TEMP              0 ****  ****    0 ROOT
