@<TRIPOS>MOLECULE
NK9
   69    71     1     0     0
SMALL
bcc


@<TRIPOS>ATOM
      1 C1         -0.3150    0.4800    0.5830 c3        1 NK9      0.161800
      2 N2          0.9030   -0.0110   -0.0260 n3        1 NK9     -0.824200
      3 C3          1.9490   -0.0820    0.9740 c3        1 NK9      0.151800
      4 C4          1.5530    0.8830    2.1390 c3        1 NK9      0.068500
      5 N5          1.6590    0.2170    3.4770 n4        1 NK9     -0.767000
      6 C6          1.6560    1.1950    4.6200 c3        1 NK9      0.170100
      7 C7          0.9420    0.6620    5.8200 ca        1 NK9     -0.111300
      8 C8          1.5710   -0.2710    6.6340 ca        1 NK9     -0.177500
      9 C9          0.9110   -0.7320    7.8000 ca        1 NK9      0.191100
     10 O10         1.5920   -1.6540    8.5270 oh        1 NK9     -0.515100
     11 C11        -0.3580   -0.2440    8.1440 ca        1 NK9     -0.242000
     12 C12        -0.9580    0.7050    7.3060 ca        1 NK9      0.191100
     13 O13        -2.1950    1.2540    7.6050 oh        1 NK9     -0.515100
     14 C14        -0.3330    1.1550    6.1360 ca        1 NK9     -0.177500
     15 C15         0.0930    1.3660    1.8030 c3        1 NK9      0.133500
     16 N16        -0.0540    2.8090    1.5870 n3        1 NK9     -0.905200
     17 S17        -2.3900    3.4350    1.3140 s4        1 NK9      1.654300
     18 O18        -2.1290    4.4350    0.4500 o         1 NK9     -0.381900
     19 O19        -2.7430    2.1640    1.0220 o         1 NK9     -0.381900
     20 C20        -2.5770    3.8620    2.8530 ca        1 NK9     -0.511500
     21 C21        -2.5020    5.2080    3.2620 ca        1 NK9      0.018000
     22 C22        -2.6940    5.5680    4.5980 ca        1 NK9     -0.092500
     23 C23        -2.9600    4.5800    5.5570 ca        1 NK9     -0.064600
     24 C24        -3.1020    5.0380    6.9590 c         1 NK9      0.536700
     25 N25        -3.5780    4.0480    7.9860 n4        1 NK9     -0.755400
     26 O26        -2.8620    6.1580    7.3810 o         1 NK9     -0.334100
     27 C27        -3.0560    3.2360    5.1690 ca        1 NK9     -0.092500
     28 C28        -2.8780    2.8910    3.8350 ca        1 NK9      0.018000
     29 C29         0.7000    3.3730    0.4520 c3        1 NK9      0.148100
     30 C30         2.1170    3.7590    0.7490 ca        1 NK9     -0.149300
     31 C31         3.1510    3.2630   -0.0510 ca        1 NK9     -0.137500
     32 C32         4.4660    3.6820    0.1660 ca        1 NK9     -0.067000
     33 C33         4.7430    4.5850    1.1920 ca        1 NK9     -0.136300
     34 C34         6.1830    5.0470    1.4510 c3        1 NK9      0.688200
     35 F35         6.4740    6.2670    0.9030 f         1 NK9     -0.212300
     36 F36         6.4700    5.1740    2.7880 f         1 NK9     -0.212300
     37 F37         7.1340    4.1880    0.9670 f         1 NK9     -0.212300
     38 C38         3.7110    5.0970    1.9860 ca        1 NK9     -0.067000
     39 C39         2.4010    4.6840    1.7620 ca        1 NK9     -0.137500
     40 H1         -0.8940    1.0480   -0.1970 h1        1 NK9      0.080700
     41 H1A        -0.9920   -0.3360    0.9690 h1        1 NK9      0.080700
     42 HN2         0.7790   -0.8670   -0.5350 hn        1 NK9      0.434800
     43 H3          2.9020    0.2930    0.4990 h1        1 NK9      0.088700
     44 H3A         2.1390   -1.1290    1.3450 h1        1 NK9      0.088700
     45 H4          2.2770    1.7540    2.1430 hx        1 NK9      0.140700
     46 HN5         2.5370   -0.3230    3.5000 hn        1 NK9      0.464800
     47 H6          1.1680    2.1460    4.2650 hx        1 NK9      0.108700
     48 H6A         2.7340    1.4260    4.8780 hx        1 NK9      0.108700
     49 H8          2.5830   -0.6540    6.4210 ha        1 NK9      0.148500
     50 HO10        1.0830   -1.8940    9.3230 ho        1 NK9      0.463000
     51 H11        -0.8650   -0.6000    9.0540 ha        1 NK9      0.179000
     52 HO13       -2.6300    0.6600    8.2410 ho        1 NK9      0.463000
     53 H14        -0.8330    1.8950    5.4990 ha        1 NK9      0.148500
     54 H15        -0.6080    1.1220    2.6570 h1        1 NK9      0.054700
     55 H21        -2.2940    6.0080    2.5180 ha        1 NK9      0.200500
     56 H22        -2.6350    6.6370    4.8930 ha        1 NK9      0.202000
     57 HN25       -3.6050    4.5040    8.9150 hn        1 NK9      0.489800
     58 HN2A       -2.9410    3.2380    8.0290 hn        1 NK9      0.489800
     59 H27        -3.2590    2.4240    5.8920 ha        1 NK9      0.202000
     60 H28        -2.9930    1.8290    3.5350 ha        1 NK9      0.200500
     61 H29         0.1500    4.3110    0.1300 h1        1 NK9      0.114700
     62 H29A        0.6750    2.6490   -0.4160 h1        1 NK9      0.114700
     63 H31         2.9340    2.5620   -0.8750 ha        1 NK9      0.141000
     64 H32         5.2840    3.3080   -0.4780 ha        1 NK9      0.183500
     65 H38         3.9440    5.8360    2.7720 ha        1 NK9      0.183500
     66 H39         1.5910    5.1290    2.3570 ha        1 NK9      0.141000
     67 H52         0.8860   -0.4510    3.5930 hn        1 NK9      0.464800
     68 H161        0.2560    3.2800    2.4270 hn        1 NK9      0.378800
     69 H253       -4.5240    3.7230    7.7550 hn        1 NK9      0.489800
@<TRIPOS>BOND
     1    1    2 1   
     2    1   15 1   
     3    1   40 1   
     4    1   41 1   
     5    2    3 1   
     6    2   42 1   
     7    3    4 1   
     8    3   43 1   
     9    3   44 1   
    10    4    5 1   
    11    4   15 1   
    12    4   45 1   
    13    5    6 1   
    14    5   46 1   
    15    5   67 1   
    16    6    7 1   
    17    6   47 1   
    18    6   48 1   
    19    7    8 ar  
    20    7   14 ar  
    21    8    9 ar  
    22    8   49 1   
    23    9   10 1   
    24    9   11 ar  
    25   10   50 1   
    26   11   12 ar  
    27   11   51 1   
    28   12   13 1   
    29   12   14 ar  
    30   13   52 1   
    31   14   53 1   
    32   15   16 1   
    33   15   54 1   
    34   16   29 1   
    35   16   68 1   
    36   17   18 1   
    37   17   19 1   
    38   17   20 1   
    39   20   21 ar  
    40   20   28 ar  
    41   21   22 ar  
    42   21   55 1   
    43   22   23 ar  
    44   22   56 1   
    45   23   24 1   
    46   23   27 ar  
    47   24   25 1   
    48   24   26 2   
    49   25   57 1   
    50   25   58 1   
    51   25   69 1   
    52   27   28 ar  
    53   27   59 1   
    54   28   60 1   
    55   29   30 1   
    56   29   61 1   
    57   29   62 1   
    58   30   31 ar  
    59   30   39 ar  
    60   31   32 ar  
    61   31   63 1   
    62   32   33 ar  
    63   32   64 1   
    64   33   34 1   
    65   33   38 ar  
    66   34   35 1   
    67   34   36 1   
    68   34   37 1   
    69   38   39 ar  
    70   38   65 1   
    71   39   66 1   
@<TRIPOS>SUBSTRUCTURE
     1 NK9         1 TEMP              0 ****  ****    0 ROOT
