@<TRIPOS>MOLECULE
NK9
   69    71     1     0     0
SMALL
bcc


@<TRIPOS>ATOM
      1 C1         -0.3810    0.4670    0.5690 c3        1 NK9      0.161800
      2 N2          0.8220   -0.0500   -0.0510 n3        1 NK9     -0.824200
      3 C3          1.8710   -0.1500    0.9440 c3        1 NK9      0.151800
      4 C4          1.5130    0.8360    2.1030 c3        1 NK9      0.068500
      5 N5          1.6300    0.1820    3.4470 n4        1 NK9     -0.767000
      6 C6          1.6690    1.1720    4.5790 c3        1 NK9      0.170100
      7 C7          0.9720    0.6640    5.8000 ca        1 NK9     -0.111300
      8 C8          1.6060   -0.2660    6.6130 ca        1 NK9     -0.177500
      9 C9          0.9640   -0.7030    7.7980 ca        1 NK9      0.190600
     10 O10         1.6470   -1.6250    8.5240 oh        1 NK9     -0.515100
     11 C11        -0.2920   -0.1960    8.1600 ca        1 NK9     -0.242000
     12 C12        -0.8970    0.7500    7.3220 ca        1 NK9      0.190600
     13 O13        -2.1210    1.3190    7.6380 oh        1 NK9     -0.515100
     14 C14        -0.2900    1.1780    6.1350 ca        1 NK9     -0.177500
     15 C15         0.0570    1.3430    1.7860 c3        1 NK9      0.133500
     16 N16        -0.0690    2.7890    1.5740 n3        1 NK9     -0.905200
     17 S17        -2.3980    3.4470    1.3320 s4        1 NK9      1.653300
     18 O18        -2.1370    4.4360    0.4550 o         1 NK9     -0.382400
     19 O19        -2.7750    2.1790    1.0580 o         1 NK9     -0.382400
     20 C20        -2.5530    3.8900    2.8700 ca        1 NK9     -0.510500
     21 C21        -2.4530    5.2380    3.2660 ca        1 NK9      0.017500
     22 C22        -2.6170    5.6130    4.6030 ca        1 NK9     -0.092500
     23 C23        -2.8790    4.6370    5.5750 ca        1 NK9     -0.064600
     24 C24        -2.9900    5.1090    6.9740 c         1 NK9      0.536700
     25 N25        -3.4600    4.1340    8.0190 n4        1 NK9     -0.755400
     26 O26        -2.7300    6.2290    7.3820 o         1 NK9     -0.334100
     27 C27        -3.0010    3.2910    5.2000 ca        1 NK9     -0.092500
     28 C28        -2.8510    2.9320    3.8660 ca        1 NK9      0.017500
     29 C29         0.6810    3.3430    0.4320 c3        1 NK9      0.148100
     30 C30         2.1040    3.7140    0.7200 ca        1 NK9     -0.149300
     31 C31         3.1300    3.1930   -0.0740 ca        1 NK9     -0.137000
     32 C32         4.4520    3.5920    0.1400 ca        1 NK9     -0.068000
     33 C33         4.7430    4.5000    1.1580 ca        1 NK9     -0.135300
     34 C34         6.1960    4.9030    1.4370 c3        1 NK9      0.688200
     35 F35         6.3380    6.1900    1.8830 f         1 NK9     -0.212967
     36 F36         6.7740    4.1250    2.4130 f         1 NK9     -0.212967
     37 F37         7.0260    4.7940    0.3550 f         1 NK9     -0.212967
     38 C38         3.7190    5.0420    1.9410 ca        1 NK9     -0.068000
     39 C39         2.4020    4.6480    1.7210 ca        1 NK9     -0.137000
     40 H1         -0.9530    1.0480   -0.2060 h1        1 NK9      0.080700
     41 H1A        -1.0710   -0.3350    0.9600 h1        1 NK9      0.080700
     42 HN2         0.6750   -0.9000   -0.5620 hn        1 NK9      0.435800
     43 H3          2.8340    0.1890    0.4610 h1        1 NK9      0.088200
     44 H3A         2.0270   -1.2000    1.3220 h1        1 NK9      0.088200
     45 H4          2.2540    1.6930    2.0850 hx        1 NK9      0.141700
     46 HN5         0.8460   -0.4690    3.5850 hn        1 NK9      0.464800
     47 H6          2.7560    1.3870    4.8110 hx        1 NK9      0.109200
     48 H6A         1.1890    2.1270    4.2240 hx        1 NK9      0.109200
     49 H8          2.6080   -0.6640    6.3860 ha        1 NK9      0.149000
     50 HO10        1.1510   -1.8490    9.3320 ho        1 NK9      0.463000
     51 H11        -0.7860   -0.5330    9.0850 ha        1 NK9      0.179000
     52 HO13       -2.5520    0.7370    8.2880 ho        1 NK9      0.463000
     53 H14        -0.7940    1.9150    5.4970 ha        1 NK9      0.149000
     54 H15        -0.6370    1.1080    2.6470 h1        1 NK9      0.054700
     55 H21        -2.2470    6.0290    2.5120 ha        1 NK9      0.200000
     56 H22        -2.5380    6.6840    4.8860 ha        1 NK9      0.202000
     57 HN25       -3.4650    4.5980    8.9440 hn        1 NK9      0.489800
     58 HN2A       -2.8330    3.3160    8.0570 hn        1 NK9      0.489800
     59 H27        -3.2020    2.4880    5.9340 ha        1 NK9      0.202000
     60 H28        -2.9850    1.8690    3.5780 ha        1 NK9      0.200000
     61 H29         0.1380    4.2850    0.1130 h1        1 NK9      0.114700
     62 H29A        0.6430    2.6180   -0.4340 h1        1 NK9      0.114700
     63 H31         2.9020    2.4890   -0.8930 ha        1 NK9      0.141000
     64 H32         5.2630    3.2040   -0.5050 ha        1 NK9      0.184000
     65 H38         3.9610    5.7950    2.7110 ha        1 NK9      0.184000
     66 H39         1.5980    5.1150    2.3080 ha        1 NK9      0.141000
     67 H52         2.4970   -0.3760    3.4600 hn        1 NK9      0.464800
     68 H161        0.2560    3.2530    2.4120 hn        1 NK9      0.378800
     69 H253       -4.4140    3.8180    7.8070 hn        1 NK9      0.489800
@<TRIPOS>BOND
     1    1    2 1   
     2    1   15 1   
     3    1   40 1   
     4    1   41 1   
     5    2    3 1   
     6    2   42 1   
     7    3    4 1   
     8    3   43 1   
     9    3   44 1   
    10    4    5 1   
    11    4   15 1   
    12    4   45 1   
    13    5    6 1   
    14    5   46 1   
    15    5   67 1   
    16    6    7 1   
    17    6   47 1   
    18    6   48 1   
    19    7    8 ar  
    20    7   14 ar  
    21    8    9 ar  
    22    8   49 1   
    23    9   10 1   
    24    9   11 ar  
    25   10   50 1   
    26   11   12 ar  
    27   11   51 1   
    28   12   13 1   
    29   12   14 ar  
    30   13   52 1   
    31   14   53 1   
    32   15   16 1   
    33   15   54 1   
    34   16   29 1   
    35   16   68 1   
    36   17   18 1   
    37   17   19 1   
    38   17   20 1   
    39   20   21 ar  
    40   20   28 ar  
    41   21   22 ar  
    42   21   55 1   
    43   22   23 ar  
    44   22   56 1   
    45   23   24 1   
    46   23   27 ar  
    47   24   25 1   
    48   24   26 2   
    49   25   57 1   
    50   25   58 1   
    51   25   69 1   
    52   27   28 ar  
    53   27   59 1   
    54   28   60 1   
    55   29   30 1   
    56   29   61 1   
    57   29   62 1   
    58   30   31 ar  
    59   30   39 ar  
    60   31   32 ar  
    61   31   63 1   
    62   32   33 ar  
    63   32   64 1   
    64   33   34 1   
    65   33   38 ar  
    66   34   35 1   
    67   34   36 1   
    68   34   37 1   
    69   38   39 ar  
    70   38   65 1   
    71   39   66 1   
@<TRIPOS>SUBSTRUCTURE
     1 NK9         1 TEMP              0 ****  ****    0 ROOT
