@<TRIPOS>MOLECULE
NKG
   38    40     1     0     0
SMALL
bcc


@<TRIPOS>ATOM
      1 O3          0.2900    1.5270    0.0670 o         1 NKG     -0.422100
      2 C15         1.3120    0.8540    0.0510 c         1 NKG      0.469600
      3 N1          1.9430    0.4320    1.3300 ny        1 NKG     -0.645800
      4 C16         1.0580    0.4360    2.5230 c3        1 NKG     -0.078200
      5 C17         1.2220   -0.9320    3.3160 c         1 NKG      0.929600
      6 O2          0.6540   -0.9740    4.4190 o         1 NKG     -0.764800
      7 O1          1.9090   -1.8120    2.7250 o         1 NKG     -0.764800
      8 C14         2.0230    0.3910   -1.1740 ca        1 NKG      0.274800
      9 C           1.2700   -0.0510   -2.2890 ca        1 NKG      0.091800
     10 O          -0.0880   -0.0620   -2.1760 oh        1 NKG     -0.461100
     11 N           3.3810    0.4240   -1.1720 nb        1 NKG     -0.620000
     12 C3          4.0320    0.0180   -2.2760 cp        1 NKG      0.447800
     13 C2          3.3460   -0.4360   -3.4410 ca        1 NKG     -0.148300
     14 C1          1.9640   -0.4720   -3.4450 ca        1 NKG     -0.182000
     15 C4          5.5090    0.0610   -2.3050 cp        1 NKG     -0.153500
     16 C13         6.1300    1.0160   -3.0840 ca        1 NKG     -0.101000
     17 C12         7.5400    1.0900   -3.1390 ca        1 NKG     -0.138000
     18 C11         8.3060    0.2130   -2.4110 ca        1 NKG     -0.095000
     19 C10         7.6950   -0.7810   -1.6000 ca        1 NKG     -0.042000
     20 C5          6.2780   -0.8680   -1.5430 ca        1 NKG     -0.010000
     21 C9          8.4810   -1.6910   -0.8400 ca        1 NKG     -0.117000
     22 C8          7.8830   -2.6490   -0.0600 ca        1 NKG     -0.121000
     23 C7          6.4710   -2.7440   -0.0090 ca        1 NKG     -0.109000
     24 C6          5.6890   -1.8800   -0.7350 ca        1 NKG     -0.124000
     25 H1          2.7670    1.0150    1.4940 hn        1 NKG      0.475800
     26 H2         -0.0140    0.5300    2.2100 hx        1 NKG      0.094200
     27 H3          1.3290    1.2900    3.1920 hx        1 NKG      0.094200
     28 H5         -0.4650   -0.3980   -3.0060 ho        1 NKG      0.442000
     29 H6          3.9280   -0.7560   -4.3180 ha        1 NKG      0.168000
     30 H7          1.4040   -0.8230   -4.3250 ha        1 NKG      0.159000
     31 H8          5.5350    1.7360   -3.6660 ha        1 NKG      0.135000
     32 H9          8.0090    1.8610   -3.7670 ha        1 NKG      0.140000
     33 H10         9.4060    0.2660   -2.4420 ha        1 NKG      0.139000
     34 H11         9.5770   -1.6090   -0.8920 ha        1 NKG      0.136000
     35 H12         8.4880   -3.3510    0.5330 ha        1 NKG      0.140000
     36 H13         6.0080   -3.5180    0.6230 ha        1 NKG      0.148000
     37 H14         4.5930   -1.9670   -0.6950 ha        1 NKG      0.135000
     38 H121        2.2750   -0.5690    1.2390 hn        1 NKG      0.475800
@<TRIPOS>BOND
     1    1    2 2   
     2    2    3 1   
     3    2    8 1   
     4    3    4 1   
     5    3   25 1   
     6    3   38 1   
     7    4    5 1   
     8    4   26 1   
     9    4   27 1   
    10    5    6 1   
    11    5    7 1   
    12    8    9 ar  
    13    8   11 ar  
    14    9   10 1   
    15    9   14 ar  
    16   10   28 1   
    17   11   12 ar  
    18   12   13 ar  
    19   12   15 1   
    20   13   14 ar  
    21   13   29 1   
    22   14   30 1   
    23   15   16 ar  
    24   15   20 ar  
    25   16   17 ar  
    26   16   31 1   
    27   17   18 ar  
    28   17   32 1   
    29   18   19 ar  
    30   18   33 1   
    31   19   20 ar  
    32   19   21 ar  
    33   20   24 ar  
    34   21   22 ar  
    35   21   34 1   
    36   22   23 ar  
    37   22   35 1   
    38   23   24 ar  
    39   23   36 1   
    40   24   37 1   
@<TRIPOS>SUBSTRUCTURE
     1 NKG         1 TEMP              0 ****  ****    0 ROOT
