@<TRIPOS>MOLECULE
NKG
   38    40     1     0     0
SMALL
bcc


@<TRIPOS>ATOM
      1 O3          0.2950    1.5310    0.0800 o         1 NKG     -0.422100
      2 C15         1.3160    0.8560    0.0590 c         1 NKG      0.469600
      3 N1          1.9480    0.4310    1.3360 n4        1 NKG     -0.645800
      4 C16         1.0660    0.4320    2.5320 c3        1 NKG     -0.078200
      5 C17         1.2290   -0.9380    3.3210 c         1 NKG      0.929600
      6 O2          0.6630   -0.9820    4.4250 o         1 NKG     -0.764800
      7 O1          1.9130   -1.8180    2.7270 o         1 NKG     -0.764800
      8 C14         2.0230    0.3950   -1.1680 ca        1 NKG      0.274800
      9 C           1.2680   -0.0440   -2.2810 ca        1 NKG      0.091800
     10 O          -0.0900   -0.0530   -2.1660 oh        1 NKG     -0.461100
     11 N           3.3820    0.4260   -1.1680 nb        1 NKG     -0.620000
     12 C3          4.0300    0.0220   -2.2740 cp        1 NKG      0.447800
     13 C2          3.3410   -0.4290   -3.4390 ca        1 NKG     -0.148300
     14 C1          1.9580   -0.4630   -3.4400 ca        1 NKG     -0.182000
     15 C4          5.5070    0.0630   -2.3070 cp        1 NKG     -0.153500
     16 C13         6.1270    1.0200   -3.0840 ca        1 NKG     -0.101000
     17 C12         7.5370    1.0910   -3.1410 ca        1 NKG     -0.138000
     18 C11         8.3040    0.2120   -2.4180 ca        1 NKG     -0.095000
     19 C10         7.6930   -0.7840   -1.6090 ca        1 NKG     -0.042000
     20 C5          6.2760   -0.8690   -1.5480 ca        1 NKG     -0.010000
     21 C9          8.4790   -1.6980   -0.8540 ca        1 NKG     -0.117000
     22 C8          7.8810   -2.6570   -0.0750 ca        1 NKG     -0.121000
     23 C7          6.4700   -2.7500   -0.0210 ca        1 NKG     -0.109000
     24 C6          5.6870   -1.8820   -0.7420 ca        1 NKG     -0.124000
     25 H1          2.2790   -0.5710    1.2430 hn        1 NKG      0.475800
     26 H2          1.3400    1.2850    3.2030 hx        1 NKG      0.094200
     27 H3         -0.0060    0.5300    2.2210 hx        1 NKG      0.094200
     28 H5         -0.4690   -0.3870   -2.9960 ho        1 NKG      0.442000
     29 H6          3.9210   -0.7480   -4.3180 ha        1 NKG      0.168000
     30 H7          1.3970   -0.8110   -4.3200 ha        1 NKG      0.159000
     31 H8          5.5320    1.7420   -3.6630 ha        1 NKG      0.135000
     32 H9          8.0060    1.8640   -3.7690 ha        1 NKG      0.140000
     33 H10         9.4030    0.2630   -2.4510 ha        1 NKG      0.139000
     34 H11         9.5750   -1.6160   -0.9070 ha        1 NKG      0.136000
     35 H12         8.4870   -3.3610    0.5150 ha        1 NKG      0.140000
     36 H13         6.0080   -3.5260    0.6100 ha        1 NKG      0.148000
     37 H14         4.5920   -1.9680   -0.7000 ha        1 NKG      0.135000
     38 H121        2.7740    1.0120    1.5000 hn        1 NKG      0.475800
@<TRIPOS>BOND
     1    1    2 2   
     2    2    3 1   
     3    2    8 1   
     4    3    4 1   
     5    3   25 1   
     6    3   38 1   
     7    4    5 1   
     8    4   26 1   
     9    4   27 1   
    10    5    6 1   
    11    5    7 1   
    12    8    9 ar  
    13    8   11 ar  
    14    9   10 1   
    15    9   14 ar  
    16   10   28 1   
    17   11   12 ar  
    18   12   13 ar  
    19   12   15 1   
    20   13   14 ar  
    21   13   29 1   
    22   14   30 1   
    23   15   16 ar  
    24   15   20 ar  
    25   16   17 ar  
    26   16   31 1   
    27   17   18 ar  
    28   17   32 1   
    29   18   19 ar  
    30   18   33 1   
    31   19   20 ar  
    32   19   21 ar  
    33   20   24 ar  
    34   21   22 ar  
    35   21   34 1   
    36   22   23 ar  
    37   22   35 1   
    38   23   24 ar  
    39   23   36 1   
    40   24   37 1   
@<TRIPOS>SUBSTRUCTURE
     1 NKG         1 TEMP              0 ****  ****    0 ROOT
