@<TRIPOS>MOLECULE
NKH
   39    36     1     0     0
SMALL
bcc


@<TRIPOS>ATOM
      1 CAR        -1.8220   -3.4990    1.1000 c3        1 NKH     -0.081000
      2 OAQ        -2.3240   -2.3940    0.3680 os        1 NKH     -0.228000
      3 CAP        -2.4370   -1.2380    1.1120 c2        1 NKH     -0.042000
      4 CAU        -3.4410   -1.1430    2.1410 c2        1 NKH     -0.086000
      5 CAT        -3.6010    0.0600    2.8560 c1        1 NKH     -0.114000
      6 CL         -4.8060    0.2170    3.9590 cl        1 NKH      0.004000
      7 CAS        -2.7740    1.1770    2.5620 c2        1 NKH      0.113000
      8 OAV        -2.9600    2.3880    3.2550 os        1 NKH     -0.198000
      9 CAX        -2.4900    2.3630    4.6040 c3        1 NKH     -0.078000
     10 CAN        -1.7730    1.0860    1.5400 c1        1 NKH     -0.229000
     11 CAO        -1.6070   -0.1160    0.8190 c1        1 NKH      0.115000
     12 NAM        -0.6780   -0.1700   -0.3120 n         1 NKH     -0.296000
     13 CAK         0.5670    0.5100   -0.2360 c2        1 NKH      0.369000
     14 OAL         0.8730    1.1690    0.8230 o         1 NKH     -0.353000
     15 CAG         1.4900    0.5420   -1.4490 c2        1 NKH     -0.103000
     16 CAH         2.2190   -0.1600   -2.4190 c2        1 NKH      0.022000
     17 NAI         1.8680   -1.4570   -2.7500 n2        1 NKH     -0.149000
     18 CAJ         2.5920   -2.1440   -3.7090 c1        1 NKH     -0.040000
     19 CAE         3.6650   -1.5360   -4.3380 c1        1 NKH     -0.128000
     20 CAD         4.0140   -0.2530   -4.0120 c1        1 NKH     -0.128000
     21 CAC         3.2890    0.4450   -3.0470 c1        1 NKH     -0.088000
     22 CAB         3.6390    1.7490   -2.7150 c2        1 NKH     -0.088000
     23 CAA         2.8940    2.4530   -1.7310 c1        1 NKH     -0.136000
     24 CAF         1.8470    1.8600   -1.1170 c1        1 NKH     -0.062000
     25 HAR1       -2.3910   -3.6930    1.8040 h1        1 NKH      0.080667
     26 HAR2       -1.7610   -4.2450    0.5340 h1        1 NKH      0.080667
     27 HAR3       -0.9640   -3.2850    1.4370 h1        1 NKH      0.080667
     28 HAU        -4.0670   -1.9240    2.3120 ha        1 NKH      0.158000
     29 HAN        -1.2070    1.8600    1.3430 ha        1 NKH      0.183000
     30 HAX1       -3.0760    1.7600    5.1500 h1        1 NKH      0.089667
     31 HAX2       -1.5140    2.0080    4.6230 h1        1 NKH      0.089667
     32 HAX3       -2.5160    3.2470    4.9660 h1        1 NKH      0.089667
     33 HAM        -0.8650   -0.6980   -1.0310 hn        1 NKH      0.256000
     34 HAF         1.3170    2.3710   -0.4140 ha        1 NKH      0.156000
     35 HAJ         2.3560   -3.0260   -3.9380 ha        1 NKH      0.163000
     36 HAE         4.1850   -2.0370   -5.0380 ha        1 NKH      0.146000
     37 HAD         4.6880    0.1260   -4.4090 ha        1 NKH      0.146000
     38 HAB         4.4090    2.1880   -3.1650 ha        1 NKH      0.140000
     39 HAA         3.1590    3.4380   -1.4780 ha        1 NKH      0.144000
@<TRIPOS>BOND
     1    1    2 1   
     2    1   25 1   
     3    1   26 1   
     4    1   27 1   
     5    2    3 1   
     6    3    4 1   
     7    3   11 1   
     8    4    5 1   
     9    4   28 1   
    10    5    7 1   
    11    7    8 1   
    12    7   10 1   
    13    8    9 1   
    14    9   30 1   
    15    9   31 1   
    16    9   32 1   
    17   10   29 1   
    18   11   12 1   
    19   12   13 1   
    20   12   33 1   
    21   13   14 1   
    22   13   15 1   
    23   15   16 1   
    24   15   24 1   
    25   16   17 1   
    26   16   21 1   
    27   17   18 1   
    28   18   35 1   
    29   19   20 1   
    30   19   36 1   
    31   20   37 1   
    32   21   22 1   
    33   22   23 1   
    34   22   38 1   
    35   23   39 1   
    36   24   34 1   
@<TRIPOS>SUBSTRUCTURE
     1 NKH         1 TEMP              0 ****  ****    0 ROOT
