@<TRIPOS>MOLECULE
NKH
   39    41     1     0     0
SMALL
bcc


@<TRIPOS>ATOM
      1 CAR         2.2160    2.1350   -0.2070 c3        1 NKH      0.112700
      2 OAQ         3.3830    2.0440    0.6100 os        1 NKH     -0.344900
      3 CAP         3.2360    1.1670    1.6820 ca        1 NKH      0.005100
      4 CAU         2.4890    1.5630    2.7900 ca        1 NKH     -0.091000
      5 CAT         2.4060    0.7440    3.9150 ca        1 NKH     -0.034600
      6 Cl          1.4790    1.2670    5.2380 cl        1 NKH     -0.075400
      7 CAS         3.0940   -0.4870    3.9170 ca        1 NKH      0.157100
      8 OAV         2.9700   -1.2530    5.0570 os        1 NKH     -0.315900
      9 CAX         3.6870   -2.4840    5.0840 c3        1 NKH      0.111700
     10 CAN         3.8510   -0.8880    2.8100 ca        1 NKH     -0.230000
     11 CAO         3.9380   -0.0740    1.6640 ca        1 NKH      0.109600
     12 NAM         4.6630   -0.4220    0.5180 ns        1 NKH     -0.442100
     13 CAK         5.4160   -1.5710    0.3200 c         1 NKH      0.696700
     14 OAL         5.4290   -2.5320    1.1110 o         1 NKH     -0.592100
     15 CAG         6.1690   -1.6430   -0.9730 ca        1 NKH     -0.189900
     16 CAH         7.1500   -0.6550   -1.3150 ca        1 NKH      0.414600
     17 NAI         7.3940    0.4090   -0.4660 nb        1 NKH     -0.669000
     18 CAJ         8.3220    1.2820   -0.8160 ca        1 NKH      0.428200
     19 CAE         9.0910    1.2000   -2.0210 ca        1 NKH     -0.249300
     20 CAD         8.8570    0.1530   -2.8740 ca        1 NKH     -0.075000
     21 CAC         7.8680   -0.8180   -2.5410 ca        1 NKH     -0.154300
     22 CAB         7.5920   -1.9250   -3.3810 ca        1 NKH     -0.088000
     23 CAA         6.6470   -2.8540   -3.0210 ca        1 NKH     -0.138000
     24 CAF         5.9390   -2.7160   -1.8060 ca        1 NKH     -0.064000
     25 HAR1        1.3370    2.4620    0.4000 h1        1 NKH      0.040033
     26 HAR2        2.0050    1.1520   -0.6930 h1        1 NKH      0.040033
     27 HAR3        2.4820    2.9080   -0.9700 h1        1 NKH      0.040033
     28 HAU         1.9690    2.5340    2.7660 ha        1 NKH      0.156000
     29 HAN         4.3870   -1.8510    2.8350 ha        1 NKH      0.185000
     30 HAX1        3.4400   -2.8980    6.0950 h1        1 NKH      0.050033
     31 HAX2        3.3250   -3.1690    4.2780 h1        1 NKH      0.050033
     32 HAX3        4.7850   -2.3050    4.9870 h1        1 NKH      0.050033
     33 HAM         4.7770    0.3220   -0.1400 hn        1 NKH      0.342500
     34 HAF         5.2010   -3.4840   -1.5200 ha        1 NKH      0.155000
     35 HAJ         8.4920    2.1190   -0.1130 h4        1 NKH      0.030100
     36 HAE         9.8450    1.9700   -2.2330 ha        1 NKH      0.149000
     37 HAD         9.4180    0.0400   -3.8150 ha        1 NKH      0.142000
     38 HAB         8.1540   -2.0260   -4.3230 ha        1 NKH      0.139000
     39 HAA         6.4330   -3.7190   -3.6670 ha        1 NKH      0.144000
@<TRIPOS>BOND
     1    1    2 1   
     2    1   25 1   
     3    1   26 1   
     4    1   27 1   
     5    2    3 1   
     6    3    4 ar  
     7    3   11 ar  
     8    4    5 ar  
     9    4   28 1   
    10    5    6 1   
    11    5    7 ar  
    12    7    8 1   
    13    7   10 ar  
    14    8    9 1   
    15    9   30 1   
    16    9   31 1   
    17    9   32 1   
    18   10   11 ar  
    19   10   29 1   
    20   11   12 1   
    21   12   13 1   
    22   12   33 1   
    23   13   14 2   
    24   13   15 1   
    25   15   16 ar  
    26   15   24 ar  
    27   16   17 ar  
    28   16   21 ar  
    29   17   18 ar  
    30   18   19 ar  
    31   18   35 1   
    32   19   20 ar  
    33   19   36 1   
    34   20   21 ar  
    35   20   37 1   
    36   21   22 ar  
    37   22   23 ar  
    38   22   38 1   
    39   23   24 ar  
    40   23   39 1   
    41   24   34 1   
@<TRIPOS>SUBSTRUCTURE
     1 NKH         1 TEMP              0 ****  ****    0 ROOT
