@<TRIPOS>MOLECULE
NKH
   39    41     1     0     0
SMALL
bcc


@<TRIPOS>ATOM
      1 CAR         2.1660    2.0580   -0.2680 c3        1 NKH      0.112700
      2 OAQ         3.3380    2.0130    0.5470 os        1 NKH     -0.344900
      3 CAP         3.2110    1.1640    1.6440 ca        1 NKH      0.005100
      4 CAU         2.4600    1.5770    2.7430 ca        1 NKH     -0.091000
      5 CAT         2.3960    0.7890    3.8920 ca        1 NKH     -0.034600
      6 CL          1.4630    1.3330    5.2020 cl        1 NKH     -0.075400
      7 CAS         3.1070   -0.4280    3.9260 ca        1 NKH      0.157100
      8 OAV         3.0010   -1.1630    5.0890 os        1 NKH     -0.315900
      9 CAX         3.7410   -2.3790    5.1480 c3        1 NKH      0.111700
     10 CAN         3.8680   -0.8460    2.8290 ca        1 NKH     -0.230000
     11 CAO         3.9360   -0.0630    1.6600 ca        1 NKH      0.109600
     12 NAM         4.6640   -0.4310    0.5220 n         1 NKH     -0.442100
     13 CAK         5.4390   -1.5690    0.3540 c         1 NKH      0.696700
     14 OAL         5.4750   -2.5060    1.1730 o         1 NKH     -0.592100
     15 CAG         6.1900   -1.6640   -0.9390 ca        1 NKH     -0.189900
     16 CAH         7.1490   -0.6670   -1.3130 ca        1 NKH      0.414600
     17 NAI         7.3750    0.4260   -0.4970 nb        1 NKH     -0.669000
     18 CAJ         8.2830    1.3070   -0.8760 ca        1 NKH      0.428200
     19 CAE         9.0500    1.2050   -2.0810 ca        1 NKH     -0.249300
     20 CAD         8.8350    0.1290   -2.9030 ca        1 NKH     -0.075000
     21 CAC         7.8670   -0.8510   -2.5370 ca        1 NKH     -0.154300
     22 CAB         7.6110   -1.9880   -3.3430 ca        1 NKH     -0.088000
     23 CAA         6.6860   -2.9260   -2.9520 ca        1 NKH     -0.138000
     24 CAF         5.9790   -2.7660   -1.7400 ca        1 NKH     -0.064000
     25 HAR1        1.2840    2.3860    0.3330 h1        1 NKH      0.040033
     26 HAR2        2.4160    2.8140   -1.0530 h1        1 NKH      0.040033
     27 HAR3        1.9730    1.0580   -0.7250 h1        1 NKH      0.040033
     28 HAU         1.9210    2.5370    2.6930 ha        1 NKH      0.156000
     29 HAN         4.4220   -1.7980    2.8790 ha        1 NKH      0.185000
     30 HAX1        4.8360   -2.1820    5.0420 h1        1 NKH      0.050033
     31 HAX2        3.3910   -3.0930    4.3640 h1        1 NKH      0.050033
     32 HAX3        3.5060   -2.7680    6.1710 h1        1 NKH      0.050033
     33 HAM         4.7610    0.2960   -0.1590 hn        1 NKH      0.342500
     34 HAF         5.2580   -3.5400   -1.4280 ha        1 NKH      0.155000
     35 HAJ         8.4380    2.1680   -0.1990 h4        1 NKH      0.030100
     36 HAE         9.7870    1.9840   -2.3190 ha        1 NKH      0.149000
     37 HAD         9.3940   -0.0000   -3.8410 ha        1 NKH      0.142000
     38 HAB         8.1710   -2.1060   -4.2840 ha        1 NKH      0.139000
     39 HAA         6.4880   -3.8130   -3.5720 ha        1 NKH      0.144000
@<TRIPOS>BOND
     1    1    2 1   
     2    1   25 1   
     3    1   26 1   
     4    1   27 1   
     5    2    3 1   
     6    3    4 ar  
     7    3   11 ar  
     8    4    5 ar  
     9    4   28 1   
    10    5    6 1   
    11    5    7 ar  
    12    7    8 1   
    13    7   10 ar  
    14    8    9 1   
    15    9   30 1   
    16    9   31 1   
    17    9   32 1   
    18   10   11 ar  
    19   10   29 1   
    20   11   12 1   
    21   12   13 1   
    22   12   33 1   
    23   13   14 2   
    24   13   15 1   
    25   15   16 ar  
    26   15   24 ar  
    27   16   17 ar  
    28   16   21 ar  
    29   17   18 ar  
    30   18   19 ar  
    31   18   35 1   
    32   19   20 ar  
    33   19   36 1   
    34   20   21 ar  
    35   20   37 1   
    36   21   22 ar  
    37   22   23 ar  
    38   22   38 1   
    39   23   24 ar  
    40   23   39 1   
    41   24   34 1   
@<TRIPOS>SUBSTRUCTURE
     1 NKH         1 TEMP              0 ****  ****    0 ROOT
