@<TRIPOS>MOLECULE
NKH
   40    42     1     0     0
SMALL
bcc


@<TRIPOS>ATOM
      1 CAR         1.8900    1.9040   -0.1840 c3        1 NKH      0.116700
      2 OAQ         3.0480    1.1740    0.2300 os        1 NKH     -0.359900
      3 CAP         2.9550    0.4780    1.4150 ca        1 NKH      0.144100
      4 CAU         1.7900    0.4000    2.1910 ca        1 NKH     -0.167000
      5 CAT         1.7750   -0.3270    3.3780 ca        1 NKH      0.066400
      6 CL          0.3460   -0.3900    4.2710 cl        1 NKH      0.002600
      7 CAS         2.9540   -0.9960    3.8060 ca        1 NKH      0.129100
      8 OAV         2.8610   -1.6880    4.9880 os        1 NKH     -0.294900
      9 CAX         4.0040   -2.4400    5.3930 c3        1 NKH      0.104700
     10 CAN         4.1190   -0.9200    3.0440 ca        1 NKH     -0.147000
     11 CAO         4.1290   -0.1810    1.8450 ca        1 NKH     -0.064400
     12 NAM         5.3570   -0.0860    1.0610 n4        1 NKH     -0.516200
     13 CAK         5.7930   -1.4000    0.4310 c         1 NKH      0.593700
     14 OAL         5.6930   -2.4030    1.1220 o         1 NKH     -0.427100
     15 CAG         6.2910   -1.3120   -0.9480 ca        1 NKH     -0.262900
     16 CAH         7.2520   -0.3190   -1.3350 ca        1 NKH      0.428600
     17 NAI         7.6880    0.6290   -0.4290 nb        1 NKH     -0.758000
     18 CAJ         8.6100    1.4930   -0.8220 ca        1 NKH      0.470200
     19 CAE         9.1790    1.5140   -2.1340 ca        1 NKH     -0.239300
     20 CAD         8.7460    0.5900   -3.0510 ca        1 NKH     -0.047000
     21 CAC         7.7580   -0.3670   -2.6710 ca        1 NKH     -0.157300
     22 CAB         7.2880   -1.3540   -3.5740 ca        1 NKH     -0.030000
     23 CAA         6.3600   -2.2870   -3.1700 ca        1 NKH     -0.148000
     24 CAF         5.8710   -2.2770   -1.8490 ca        1 NKH     -0.006000
     25 HAR1        1.0410    1.2040   -0.3790 h1        1 NKH      0.066367
     26 HAR2        1.6160    2.6680    0.5820 h1        1 NKH      0.066367
     27 HAR3        2.2290    2.3930   -1.1330 h1        1 NKH      0.066367
     28 HAU         0.8730    0.9170    1.8600 ha        1 NKH      0.180000
     29 HAN         5.0280   -1.4560    3.3650 ha        1 NKH      0.172000
     30 HAX1        3.6540   -2.9320    6.3380 h1        1 NKH      0.061033
     31 HAX2        4.8660   -1.7600    5.5980 h1        1 NKH      0.061033
     32 HAX3        4.2680   -3.2040    4.6220 h1        1 NKH      0.061033
     33 HAM         6.1180    0.2400    1.6740 hn        1 NKH      0.477800
     34 HAF         5.1510   -3.0530   -1.5340 ha        1 NKH      0.166000
     35 HAJ         8.9420    2.2330   -0.0680 h4        1 NKH      0.042100
     36 HAE         9.9450    2.2650   -2.3780 ha        1 NKH      0.173000
     37 HAD         9.1480    0.5640   -4.0770 ha        1 NKH      0.164000
     38 HAB         7.6850   -1.3640   -4.6030 ha        1 NKH      0.164000
     39 HAA         5.9970   -3.0590   -3.8690 ha        1 NKH      0.170000
     40 HAM2        5.2190    0.6110    0.3130 hn        1 NKH      0.477800
@<TRIPOS>BOND
     1    1    2 1   
     2    1   25 1   
     3    1   26 1   
     4    1   27 1   
     5    2    3 1   
     6    3    4 ar  
     7    3   11 ar  
     8    4    5 ar  
     9    4   28 1   
    10    5    6 1   
    11    5    7 ar  
    12    7    8 1   
    13    7   10 ar  
    14    8    9 1   
    15    9   30 1   
    16    9   31 1   
    17    9   32 1   
    18   10   11 ar  
    19   10   29 1   
    20   11   12 1   
    21   12   13 1   
    22   12   33 1   
    23   12   40 1   
    24   13   14 2   
    25   13   15 1   
    26   15   16 ar  
    27   15   24 ar  
    28   16   17 ar  
    29   16   21 ar  
    30   17   18 ar  
    31   18   19 ar  
    32   18   35 1   
    33   19   20 ar  
    34   19   36 1   
    35   20   21 ar  
    36   20   37 1   
    37   21   22 ar  
    38   22   23 ar  
    39   22   38 1   
    40   23   24 ar  
    41   23   39 1   
    42   24   34 1   
@<TRIPOS>SUBSTRUCTURE
     1 NKH         1 TEMP              0 ****  ****    0 ROOT
