@<TRIPOS>MOLECULE
NKH
   39    41     1     0     0
SMALL
bcc


@<TRIPOS>ATOM
      1 CAR         1.5580   -3.0700    1.6120 c3        1 NKH      0.112700
      2 OAQ         1.1700   -1.7340    1.9320 os        1 NKH     -0.344900
      3 CAP         1.8610   -0.7710    1.2000 ca        1 NKH      0.005100
      4 CAU         3.1790   -0.4720    1.5390 ca        1 NKH     -0.091000
      5 CAT         3.8620    0.5530    0.8860 ca        1 NKH     -0.034600
      6 CL          5.4690    0.8750    1.3310 cl        1 NKH     -0.075400
      7 CAS         3.1960    1.2860   -0.1190 ca        1 NKH      0.157100
      8 OAV         3.9260    2.2850   -0.7290 os        1 NKH     -0.315900
      9 CAX         3.2540    3.0530   -1.7220 c3        1 NKH      0.111700
     10 CAN         1.8710    0.9950   -0.4600 ca        1 NKH     -0.230000
     11 CAO         1.1720   -0.0420    0.1870 ca        1 NKH      0.109600
     12 NAM        -0.1480   -0.3960   -0.1180 n         1 NKH     -0.442100
     13 CAK        -0.9820    0.2020   -1.0520 c         1 NKH      0.696700
     14 OAL        -0.6010    1.0680   -1.8620 o         1 NKH     -0.592100
     15 CAG        -2.3850   -0.3190   -1.1050 ca        1 NKH     -0.189900
     16 CAH        -3.2400   -0.2630    0.0440 ca        1 NKH      0.414600
     17 NAI        -2.7690    0.2470    1.2400 nb        1 NKH     -0.669000
     18 CAJ        -3.6010    0.2970    2.2640 ca        1 NKH      0.428200
     19 CAE        -4.9620   -0.1450    2.2190 ca        1 NKH     -0.249300
     20 CAD        -5.4420   -0.6570    1.0410 ca        1 NKH     -0.075000
     21 CAC        -4.5840   -0.7290   -0.0950 ca        1 NKH     -0.154300
     22 CAB        -5.0310   -1.2400   -1.3390 ca        1 NKH     -0.088000
     23 CAA        -4.1850   -1.2780   -2.4210 ca        1 NKH     -0.138000
     24 CAF        -2.8580   -0.8070   -2.3040 ca        1 NKH     -0.064000
     25 HAR1        2.6520   -3.2130    1.7840 h1        1 NKH      0.040033
     26 HAR2        0.9590   -3.6990    2.3170 h1        1 NKH      0.040033
     27 HAR3        1.3000   -3.3050    0.5510 h1        1 NKH      0.040033
     28 HAU         3.6730   -1.0550    2.3330 ha        1 NKH      0.156000
     29 HAN         1.3670    1.5850   -1.2430 ha        1 NKH      0.185000
     30 HAX1        2.9430    2.4070   -2.5790 h1        1 NKH      0.050033
     31 HAX2        2.3720    3.5810   -1.2850 h1        1 NKH      0.050033
     32 HAX3        4.0360    3.7880   -2.0450 h1        1 NKH      0.050033
     33 HAM        -0.5680   -1.0270    0.5350 hn        1 NKH      0.342500
     34 HAF        -2.2000   -0.8210   -3.1880 ha        1 NKH      0.155000
     35 HAJ        -3.1910    0.7120    3.2050 h4        1 NKH      0.030100
     36 HAE        -5.5850   -0.0660    3.1190 ha        1 NKH      0.149000
     37 HAD        -6.4790   -1.0130    0.9480 ha        1 NKH      0.142000
     38 HAB        -6.0690   -1.5990   -1.4210 ha        1 NKH      0.139000
     39 HAA        -4.5290   -1.6670   -3.3910 ha        1 NKH      0.144000
@<TRIPOS>BOND
     1    1    2 1   
     2    1   25 1   
     3    1   26 1   
     4    1   27 1   
     5    2    3 1   
     6    3    4 ar  
     7    3   11 ar  
     8    4    5 ar  
     9    4   28 1   
    10    5    6 1   
    11    5    7 ar  
    12    7    8 1   
    13    7   10 ar  
    14    8    9 1   
    15    9   30 1   
    16    9   31 1   
    17    9   32 1   
    18   10   11 ar  
    19   10   29 1   
    20   11   12 1   
    21   12   13 1   
    22   12   33 1   
    23   13   14 2   
    24   13   15 1   
    25   15   16 ar  
    26   15   24 ar  
    27   16   17 ar  
    28   16   21 ar  
    29   17   18 ar  
    30   18   19 ar  
    31   18   35 1   
    32   19   20 ar  
    33   19   36 1   
    34   20   21 ar  
    35   20   37 1   
    36   21   22 ar  
    37   22   23 ar  
    38   22   38 1   
    39   23   24 ar  
    40   23   39 1   
    41   24   34 1   
@<TRIPOS>SUBSTRUCTURE
     1 NKH         1 TEMP              0 ****  ****    0 ROOT
