@<TRIPOS>MOLECULE
NKI
   29    31     1     0     0
SMALL
bcc


@<TRIPOS>ATOM
      1 CL          0.1060    2.1950    0.0120 cl        1 NKI     -0.085400
      2 CAC         5.7140   -4.8370    5.0020 ca        1 NKI     -0.066000
      3 CAD         6.8670   -4.9800    4.2290 ca        1 NKI     -0.184000
      4 CAE         1.6470    0.0400    0.4370 ca        1 NKI     -0.131000
      5 CAF         2.1670    2.0350    1.7220 ca        1 NKI     -0.131000
      6 CAG         4.8120   -3.8080    4.7600 ca        1 NKI     -0.204000
      7 CAH         7.1210   -4.0850    3.1940 ca        1 NKI     -0.034000
      8 CAI         2.6970   -0.6310    1.0620 ca        1 NKI     -0.094000
      9 CAJ         3.2140    1.3570    2.3420 ca        1 NKI     -0.094000
     10 NAK         5.7290   -0.9420    1.7690 n         1 NKI     -0.574900
     11 NAL         4.1300   -1.8960    3.3840 nh        1 NKI     -0.754600
     12 CAM         6.4800   -2.1120    1.8080 c         1 NKI      0.719100
     13 CAN         1.3850    1.3730    0.7700 ca        1 NKI      0.029400
     14 CAO         3.4800    0.0250    2.0150 ca        1 NKI     -0.137300
     15 CAP         5.0540   -2.8900    3.7120 ca        1 NKI      0.183600
     16 CAQ         6.2280   -3.0440    2.9310 ca        1 NKI     -0.202600
     17 CAR         4.6360   -0.6950    2.7000 c3        1 NKI      0.431200
     18 HAC         5.5140   -5.5480    5.8190 ha        1 NKI      0.134000
     19 HAD         7.5720   -5.7980    4.4340 ha        1 NKI      0.139000
     20 HAE         1.0300   -0.4790   -0.3130 ha        1 NKI      0.152500
     21 HAF         1.9590    3.0850    1.9800 ha        1 NKI      0.152500
     22 HAG         3.9090   -3.7150    5.3800 ha        1 NKI      0.136000
     23 HAH         8.0210   -4.1840    2.5640 ha        1 NKI      0.159000
     24 HAI         2.9050   -1.6820    0.8060 ha        1 NKI      0.149000
     25 HAJ         3.8320    1.8800    3.0890 ha        1 NKI      0.149000
     26 HNAK        5.7210   -0.4160    0.9250 hn        1 NKI      0.328500
     27 HNAL        3.4460   -1.6870    4.0790 hn        1 NKI      0.423800
     28 HAR         5.0620    0.0140    3.4920 h2        1 NKI      0.039700
     29 OAA         7.3360   -2.3150    0.9260 o         1 NKI     -0.633500
@<TRIPOS>BOND
     1    1   13 1   
     2    2    3 ar  
     3    2    6 ar  
     4    2   18 1   
     5    3    7 ar  
     6    3   19 1   
     7    4    8 ar  
     8    4   13 ar  
     9    4   20 1   
    10    5    9 ar  
    11    5   13 ar  
    12    5   21 1   
    13    6   15 ar  
    14    6   22 1   
    15    7   16 ar  
    16    7   23 1   
    17    8   14 ar  
    18    8   24 1   
    19    9   14 ar  
    20    9   25 1   
    21   10   12 1   
    22   10   17 1   
    23   10   26 1   
    24   11   15 1   
    25   11   17 1   
    26   11   27 1   
    27   12   16 1   
    28   12   29 2   
    29   14   17 1   
    30   15   16 ar  
    31   17   28 1   
@<TRIPOS>SUBSTRUCTURE
     1 NKI         1 TEMP              0 ****  ****    0 ROOT
