@<TRIPOS>MOLECULE
NKI
   29    27     1     0     0
SMALL
bcc


@<TRIPOS>ATOM
      1 Cl         -0.0670    0.9880   -0.9540 cl        1 NKI     -0.031000
      2 CAC         4.9440   -4.0560    6.1460 c2        1 NKI     -0.175000
      3 CAD         6.3310   -4.1640    1.0550 c1        1 NKI      0.288000
      4 CAE         2.0480   -0.4780   -0.3970 c1        1 NKI     -0.176000
      5 CAF         2.7510    1.9110    2.3730 c1        1 NKI      0.014000
      6 CAG         4.6200   -3.7740    4.8840 c2        1 NKI     -0.159000
      7 CAH         5.9180   -3.9250    2.2890 c2        1 NKI     -0.465000
      8 CAI         2.7740   -1.5190   -0.6670 c2        1 NKI     -0.188000
      9 CAJ         3.7230    1.4760    3.0160 c1        1 NKI     -0.650000
     10 NAK         5.6100   -1.0990    1.0580 nt        1 NKI     -0.399000
     11 NAL         4.8280   -1.3370    4.8350 n7        1 NKI      0.025000
     12 CAM         6.2180   -1.4500    2.2360 c2        1 NKI      0.321000
     13 CAN         1.3430    0.5760   -0.1010 c2        1 NKI     -0.097000
     14 CAO         4.8090    0.9960    3.6770 c2        1 NKI      0.265000
     15 CAP         5.0850   -2.5790    4.1640 c2        1 NKI     -0.015000
     16 CAQ         5.6890   -2.6640    2.9490 c2        1 NKI     -0.008000
     17 CAR         4.8240   -0.1860    4.3050 c1        1 NKI     -0.193000
     18 HAC         5.6010   -3.4250    6.7600 ha        1 NKI      0.129000
     19 HAD         4.5760   -4.9630    6.6470 ha        1 NKI      0.129000
     20 HAE         2.5870   -2.5000   -0.2060 ha        1 NKI      0.124000
     21 HAF         1.5920    1.2860    0.7210 h4        1 NKI      0.234000
     22 HAG         3.9650   -4.4350    4.2890 ha        1 NKI      0.152000
     23 HAH         5.7370   -4.8420    2.9010 ha        1 NKI      0.205000
     24 HAI         3.6020   -1.4870   -1.3920 ha        1 NKI      0.124000
     25 HAJ         5.7590    1.5770    3.7150 ha        1 NKI      0.175000
     26 HNAK        4.6980   -1.4300    0.8460 hn        1 NKI      0.237500
     27 HNAL        5.8970   -0.2540    0.6200 hn        1 NKI      0.237500
     28 HAR         4.5880   -1.4420    5.8110 hn        1 NKI      0.253000
     29 OAA         7.2230   -0.8460    2.6630 o         1 NKI     -0.356000
@<TRIPOS>BOND
     1    1   13 1   
     2    2    6 1   
     3    2   18 1   
     4    2   19 1   
     5    3    7 1   
     6    4    8 1   
     7    4   13 1   
     8    5    9 1   
     9    6   15 1   
    10    6   22 1   
    11    7   16 1   
    12    7   23 1   
    13    8   20 1   
    14    8   24 1   
    15    9   14 1   
    16   10   12 1   
    17   10   26 1   
    18   10   27 1   
    19   11   15 1   
    20   11   17 1   
    21   11   28 1   
    22   12   16 1   
    23   12   29 1   
    24   13   21 1   
    25   14   17 1   
    26   14   25 1   
    27   15   16 1   
@<TRIPOS>SUBSTRUCTURE
     1 NKI         1 TEMP              0 ****  ****    0 ROOT
