@<TRIPOS>MOLECULE
NKK
   85    76     1     0     0
SMALL
bcc


@<TRIPOS>ATOM
      1 CAW        -2.5700   -2.0190   -1.0650 c1        1 NKK      0.176000
      2 CBJ         3.3730    3.8930   -1.9580 c1        1 NKK     -0.050000
      3 CBI         4.5580    4.1390   -2.6910 c1        1 NKK     -0.050000
      4 CBL         4.5300    4.1300   -4.1070 c1        1 NKK     -0.118750
      5 CBM         5.6840    4.4140   -4.8260 c1        1 NKK     -0.118750
      6 CBO         6.8740    4.7090   -4.1530 c1        1 NKK     -0.118750
      7 CBN         6.9020    4.7180   -2.7590 c1        1 NKK     -0.118750
      8 CBH         5.7300    4.4300   -2.0270 c1        1 NKK     -0.022000
      9 CBG         5.7480    4.4810   -0.6060 c2        1 NKK     -0.122000
     10 CBF         4.5810    4.2380    0.1150 c1        1 NKK     -0.109000
     11 CBK         3.3920    3.9440   -0.5580 c1        1 NKK     -0.130000
     12 CAA         2.1280    3.3830    0.1130 c2        1 NKK      0.347000
     13 OAB         1.2260    2.9470   -0.5660 o         1 NKK     -0.341000
     14 N           1.9720    3.4750    1.5400 n         1 NKK     -0.340000
     15 CA          0.8860    2.8090    2.1820 c3        1 NKK      0.025000
     16 CB         -0.4300    3.2440    1.5410 c3        1 NKK     -0.161000
     17 CG         -1.0610    4.3860    2.3730 c3        1 NKK     -0.153000
     18 CD         -2.5290    4.6030    1.9190 c3        1 NKK     -0.162000
     19 CE         -3.0210    5.9810    2.4100 c3        1 NKK     -0.076000
     20 NZ         -4.3500    6.2410    1.8780 n3        1 NKK     -0.348000
     21 C           1.0510    1.3120    2.0310 c1        1 NKK      0.270000
     22 O           1.9950    0.8610    1.3900 o         1 NKK     -0.383000
     23 NAL         0.0880    0.3960    2.6690 n2        1 NKK     -0.374000
     24 CAM         0.0260   -0.9840    2.2560 c3        1 NKK      0.011000
     25 CAP        -0.7550   -1.7930    3.2890 c3        1 NKK     -0.159000
     26 CAQ         0.0550   -3.0430    3.6840 c3        1 NKK     -0.159000
     27 CAR        -0.9260   -4.2090    4.0500 c3        1 NKK     -0.160000
     28 CAS        -0.2580   -5.5700    3.7090 c3        1 NKK     -0.078000
     29 NAT        -1.2450   -6.6330    3.7950 n3        1 NKK     -0.349000
     30 CAN        -0.6640   -1.0780    0.9200 c1        1 NKK      0.277000
     31 OAO        -1.4360   -0.2040    0.5730 o         1 NKK     -0.379000
     32 NAU        -0.4720   -2.2460    0.0860 n2        1 NKK     -0.370000
     33 CAV        -1.1170   -2.3250   -1.2120 c2        1 NKK     -0.032000
     34 OAX        -3.0920   -1.1610   -1.7740 o         1 NKK     -0.282000
     35 CAY        -0.9490   -3.7220   -1.7770 c3        1 NKK     -0.179000
     36 CAZ        -1.5290   -3.7760   -3.2090 c3        1 NKK     -0.174000
     37 CBA        -2.0940   -5.2140   -3.4930 c3        1 NKK     -0.032000
     38 NBB        -3.0790   -5.1430   -4.5380 n3        1 NKK     -0.354000
     39 CBC        -4.0450   -6.2050   -4.6960 c1        1 NKK      0.176000
     40 NBE        -3.9310   -7.0610   -5.7010 n1        1 NKK     -0.361000
     41 NBD        -5.1280   -6.3330   -3.7640 n2        1 NKK     -0.320000
     42 H1AW       -3.1000   -2.4850   -0.3950 ha        1 NKK      0.131000
     43 HBJ         2.5370    3.6850   -2.4310 ha        1 NKK      0.156000
     44 HBL         3.6960    3.9230   -4.5800 ha        1 NKK      0.136000
     45 HBM         5.6650    4.4080   -5.8060 ha        1 NKK      0.136000
     46 HBO         7.6810    4.9070   -4.6560 ha        1 NKK      0.136000
     47 HBN         7.7260    4.9220   -2.2930 ha        1 NKK      0.136000
     48 HBG         6.5810    4.6870   -0.1340 ha        1 NKK      0.137000
     49 HBF         4.5940    4.2740    1.0940 ha        1 NKK      0.138000
     50 HN          2.6070    3.9110    2.0440 hn        1 NKK      0.220000
     51 HA          0.8770    3.0410    3.1380 h1        1 NKK      0.107000
     52 H1B        -0.2610    3.5590    0.6350 hc        1 NKK      0.106000
     53 H2B        -1.0450    2.4840    1.5130 hc        1 NKK      0.106000
     54 H1G        -1.0450    4.1490    3.3180 hc        1 NKK      0.087500
     55 H2G        -0.5550    5.2060    2.2360 hc        1 NKK      0.087500
     56 H1D        -2.5750    4.5690    0.9460 hc        1 NKK      0.089000
     57 H2D        -3.0960    3.8980    2.2980 hc        1 NKK      0.089000
     58 H1E        -2.4070    6.6720    2.1030 h1        1 NKK      0.063500
     59 H2E        -3.0560    5.9850    3.3930 h1        1 NKK      0.063500
     60 H1NZ       -4.3580    7.0550    1.4610 hn        1 NKK      0.144000
     61 H2NZ       -4.9680    6.2430    2.5740 hn        1 NKK      0.144000
     62 HNAL       -0.4080    0.6800    3.3700 hn        1 NKK      0.234000
     63 HAM         0.9410   -1.3460    2.1790 h1        1 NKK      0.132000
     64 H1AP       -0.9130   -1.2380    4.0900 hc        1 NKK      0.100500
     65 H2AP       -1.6110   -2.0660    2.9090 hc        1 NKK      0.100500
     66 H1AQ        0.6220   -3.3170    2.9290 hc        1 NKK      0.089000
     67 H2AQ        0.6190   -2.8350    4.4580 hc        1 NKK      0.089000
     68 H1AR       -1.7550   -4.1120    3.5340 hc        1 NKK      0.088000
     69 H2AR       -1.1320   -4.1750    5.0160 hc        1 NKK      0.088000
     70 H1AS        0.4650   -5.7460    4.3420 h1        1 NKK      0.064500
     71 H2AS        0.1030   -5.5350    2.8060 h1        1 NKK      0.064500
     72 H1AT       -1.4300   -6.9470    2.9540 hn        1 NKK      0.144500
     73 H2AT       -0.9140   -7.3140    4.3070 hn        1 NKK      0.144500
     74 HNAU        0.0770   -2.9170    0.3620 hn        1 NKK      0.259000
     75 HAV        -0.7060   -1.6750   -1.8210 h4        1 NKK      0.121000
     76 H1AY       -1.4170   -4.3530   -1.2170 hc        1 NKK      0.101000
     77 H2AY        0.0020   -3.9510   -1.8010 hc        1 NKK      0.101000
     78 H1AZ       -2.2540   -3.1150   -3.2950 hc        1 NKK      0.096000
     79 H2AZ       -0.8130   -3.5680   -3.8630 hc        1 NKK      0.096000
     80 H1BA       -2.5100   -5.5740   -2.6710 h1        1 NKK      0.076500
     81 H2BA       -1.3650   -5.8010   -3.7730 h1        1 NKK      0.076500
     82 HNBB       -3.0890   -4.4310   -5.1060 hn        1 NKK      0.204000
     83 H1BE       -3.2240   -6.9770   -6.3100 DU        1 NKK      0.148000
     84 H1BD       -5.7760   -6.9670   -3.9010 hn        1 NKK      0.187000
     85 H2BD       -5.1330   -5.8320   -2.9950 hn        1 NKK      0.187000
@<TRIPOS>BOND
     1    1   34 1   
     2    1   42 1   
     3    2   11 1   
     4    2   43 1   
     5    3    8 1   
     6    4    5 1   
     7    4   44 1   
     8    5   45 1   
     9    6    7 1   
    10    6   46 1   
    11    7   47 1   
    12    8    9 1   
    13    9   10 1   
    14    9   48 1   
    15   10   49 1   
    16   11   12 1   
    17   12   13 1   
    18   12   14 1   
    19   14   15 1   
    20   14   50 1   
    21   15   16 1   
    22   15   21 1   
    23   15   51 1   
    24   16   17 1   
    25   16   52 1   
    26   16   53 1   
    27   17   18 1   
    28   17   54 1   
    29   17   55 1   
    30   18   19 1   
    31   18   56 1   
    32   18   57 1   
    33   19   20 1   
    34   19   58 1   
    35   19   59 1   
    36   20   60 1   
    37   20   61 1   
    38   21   22 1   
    39   23   24 1   
    40   23   62 1   
    41   24   25 1   
    42   24   30 1   
    43   24   63 1   
    44   25   26 1   
    45   25   64 1   
    46   25   65 1   
    47   26   27 1   
    48   26   66 1   
    49   26   67 1   
    50   27   28 1   
    51   27   68 1   
    52   27   69 1   
    53   28   29 1   
    54   28   70 1   
    55   28   71 1   
    56   29   72 1   
    57   29   73 1   
    58   30   31 1   
    59   32   33 1   
    60   32   74 1   
    61   33   35 1   
    62   33   75 1   
    63   35   36 1   
    64   35   76 1   
    65   35   77 1   
    66   36   37 1   
    67   36   78 1   
    68   36   79 1   
    69   37   38 1   
    70   37   80 1   
    71   37   81 1   
    72   38   39 1   
    73   38   82 1   
    74   39   40 1   
    75   41   84 1   
    76   41   85 1   
@<TRIPOS>SUBSTRUCTURE
     1 NKK         1 TEMP              0 ****  ****    0 ROOT
