@<TRIPOS>MOLECULE
NKK
   85    86     1     0     0
SMALL
bcc


@<TRIPOS>ATOM
      1 CAW         6.6050   -2.1540   -1.1400 c         1 NKK      0.554900
      2 CBJ        -5.4580   -0.0780    1.1900 ca        1 NKK     -0.054000
      3 CBI        -6.3870   -0.5290    2.1660 ca        1 NKK     -0.050000
      4 CBL        -7.7360   -0.0780    2.1720 ca        1 NKK     -0.108000
      5 CBM        -8.6140   -0.5290    3.1260 ca        1 NKK     -0.130000
      6 CBO        -8.1880   -1.4490    4.1150 ca        1 NKK     -0.117000
      7 CBN        -6.8910   -1.9010    4.1300 ca        1 NKK     -0.123000
      8 CBH        -5.9600   -1.4520    3.1550 ca        1 NKK     -0.022000
      9 CBG        -4.6130   -1.9070    3.1400 ca        1 NKK     -0.121000
     10 CBF        -3.7280   -1.4550    2.1930 ca        1 NKK     -0.110000
     11 CBK        -4.1530   -0.5230    1.2110 ca        1 NKK     -0.143600
     12 OAB        -3.5730    0.1310   -1.0190 o         1 NKK     -0.601100
     13 N          -1.9330    0.3120    0.5790 n         1 NKK     -0.541900
     14 CA         -0.8830    0.5900   -0.3650 c3        1 NKK      0.036700
     15 CB         -0.0260    1.8090    0.0170 c3        1 NKK     -0.087400
     16 CG         -0.8320    3.0900    0.0270 c3        1 NKK     -0.074400
     17 CD          0.0810    4.2880    0.1850 c3        1 NKK     -0.093400
     18 CE         -0.7470    5.5660    0.3140 c3        1 NKK      0.161800
     19 NZ          0.0530    6.7670    0.3670 n3        1 NKK     -0.916800
     20 O           0.3040   -1.3840    0.4710 o         1 NKK     -0.619100
     21 NAL         0.7270   -0.7770   -1.7030 n         1 NKK     -0.543900
     22 CAM         1.8020   -1.7180   -1.8790 c3        1 NKK      0.039700
     23 CAP         1.7660   -2.4430   -3.2340 c3        1 NKK     -0.084400
     24 CAQ         0.5450   -3.3260   -3.3690 c3        1 NKK     -0.079400
     25 CAR         0.6160   -4.1470   -4.6390 c3        1 NKK     -0.083400
     26 CAS        -0.6440   -4.9980   -4.7840 c3        1 NKK      0.158800
     27 NAT        -0.6600   -5.7920   -5.9900 n3        1 NKK     -0.916800
     28 CAN         3.1780   -1.0000   -1.8100 c         1 NKK      0.634100
     29 OAO         3.3580    0.1040   -2.3640 o         1 NKK     -0.621100
     30 NAU         4.1860   -1.6390   -1.1270 n         1 NKK     -0.557900
     31 CAV         5.5160   -1.0940   -1.0140 c3        1 NKK     -0.012300
     32 OAX         6.4080   -3.3650   -1.0620 o         1 NKK     -0.516100
     33 CAY         5.7690   -0.3380    0.3070 c3        1 NKK     -0.087400
     34 CAZ         5.1310    1.0340    0.2780 c3        1 NKK     -0.094400
     35 CBA         5.2080    1.6730    1.6640 c3        1 NKK      0.171800
     36 NBB         4.7050    3.0340    1.6940 nh        1 NKK     -0.793200
     37 CBC         4.1780    3.4720    2.9660 c2        1 NKK      0.748100
     38 NBE         2.9880    4.0200    3.0080 n2        1 NKK     -0.882100
     39 NBD         5.0250    3.2510    4.0980 nh        1 NKK     -0.931800
     40 H1AW        7.6200   -1.7280   -1.3020 h4        1 NKK      0.009200
     41 HBL        -8.0570    0.6350    1.3980 ha        1 NKK      0.138000
     42 HBM        -9.6590   -0.1830    3.1340 ha        1 NKK      0.135000
     43 HBO        -8.9110   -1.7950    4.8690 ha        1 NKK      0.134000
     44 HBN        -6.5510   -2.6160    4.8940 ha        1 NKK      0.135000
     45 HBG        -4.2940   -2.6340    3.9040 ha        1 NKK      0.138000
     46 HBF        -2.6930   -1.8290    2.1820 ha        1 NKK      0.144000
     47 HN         -1.6350    0.0330    1.4870 hn        1 NKK      0.321500
     48 HA         -1.3680    0.7860   -1.3710 h1        1 NKK      0.107700
     49 H1B         0.4430    1.6480    1.0230 hc        1 NKK      0.057700
     50 H2B         0.8030    1.8950   -0.7340 hc        1 NKK      0.057700
     51 H1G        -1.4130    3.1810   -0.9290 hc        1 NKK      0.048700
     52 H2G        -1.5750    3.0660    0.8660 hc        1 NKK      0.048700
     53 H1D         0.7260    4.1570    1.0940 hc        1 NKK      0.056700
     54 H2D         0.7630    4.3630   -0.7020 hc        1 NKK      0.056700
     55 H1E        -1.4220    5.6570   -0.5860 h1        1 NKK      0.023200
     56 H2E        -1.4190    5.4550    1.2180 h1        1 NKK      0.023200
     57 H1NZ       -0.4970    7.5350    0.6950 hn        1 NKK      0.348800
     58 H2NZ        0.8440    6.6480    0.9680 hn        1 NKK      0.348800
     59 HNAL        0.6630   -0.0540   -2.3840 hn        1 NKK      0.325500
     60 HAM         1.7200   -2.4880   -1.0520 h1        1 NKK      0.099700
     61 H1AP        1.7940   -1.6950   -4.0700 hc        1 NKK      0.058700
     62 H2AP        2.6950   -3.0680   -3.3090 hc        1 NKK      0.058700
     63 H1AQ        0.4710   -4.0080   -2.4810 hc        1 NKK      0.050700
     64 H2AQ       -0.3830   -2.6960   -3.3810 hc        1 NKK      0.050700
     65 H1AR        0.7200   -3.4670   -5.5250 hc        1 NKK      0.047200
     66 H2AR        1.5240   -4.8050   -4.6140 hc        1 NKK      0.047200
     67 H1AS       -0.7480   -5.6280   -3.8500 h1        1 NKK      0.026700
     68 H2AS       -1.5410   -4.3150   -4.8210 h1        1 NKK      0.026700
     69 H1AT        0.1680   -6.3470   -6.0680 hn        1 NKK      0.348300
     70 H2AT       -1.4610   -6.3910   -6.0010 hn        1 NKK      0.348300
     71 HNAU        4.0190   -2.5140   -0.6880 hn        1 NKK      0.329500
     72 HAV         5.6600   -0.3590   -1.8690 h1        1 NKK      0.104700
     73 H1AY        5.3730   -0.9320    1.1720 hc        1 NKK      0.052700
     74 H2AY        6.8760   -0.2310    0.4510 hc        1 NKK      0.052700
     75 H1AZ        5.6570    1.6770   -0.4760 hc        1 NKK      0.062700
     76 H2AZ        4.0610    0.9510   -0.0520 hc        1 NKK      0.062700
     77 H1BA        4.6650    1.0050    2.3940 h1        1 NKK      0.042200
     78 H2BA        6.2900    1.7120    1.9850 h1        1 NKK      0.042200
     79 HNBB        4.0530    3.2110    0.9500 hn        1 NKK      0.408800
     80 H1BE        2.7180    4.4020    3.8880 hn        1 NKK      0.390400
     81 H1BD        5.9780    3.0530    3.8850 hn        1 NKK      0.393300
     82 H2BD        4.9330    3.9450    4.8070 hn        1 NKK      0.393300
     83 C           0.1010   -0.6060   -0.4830 c         1 NKK      0.631100
     84 CAA        -3.2120   -0.0310    0.1640 c         1 NKK      0.671700
     85 HBJ        -5.7920    0.6260    0.4100 ha        1 NKK      0.154000
@<TRIPOS>BOND
     1    1   31 1   
     2    1   32 2   
     3    1   40 1   
     4    2    3 ar  
     5    2   11 ar  
     6    2   85 1   
     7    3    4 ar  
     8    3    8 ar  
     9    4    5 ar  
    10    4   41 1   
    11    5    6 ar  
    12    5   42 1   
    13    6    7 ar  
    14    6   43 1   
    15    7    8 ar  
    16    7   44 1   
    17    8    9 ar  
    18    9   10 ar  
    19    9   45 1   
    20   10   11 ar  
    21   10   46 1   
    22   11   84 1   
    23   12   84 2   
    24   13   14 1   
    25   13   47 1   
    26   13   84 1   
    27   14   15 1   
    28   14   48 1   
    29   14   83 1   
    30   15   16 1   
    31   15   49 1   
    32   15   50 1   
    33   16   17 1   
    34   16   51 1   
    35   16   52 1   
    36   17   18 1   
    37   17   53 1   
    38   17   54 1   
    39   18   19 1   
    40   18   55 1   
    41   18   56 1   
    42   19   57 1   
    43   19   58 1   
    44   20   83 2   
    45   21   22 1   
    46   21   59 1   
    47   21   83 1   
    48   22   23 1   
    49   22   28 1   
    50   22   60 1   
    51   23   24 1   
    52   23   61 1   
    53   23   62 1   
    54   24   25 1   
    55   24   63 1   
    56   24   64 1   
    57   25   26 1   
    58   25   65 1   
    59   25   66 1   
    60   26   27 1   
    61   26   67 1   
    62   26   68 1   
    63   27   69 1   
    64   27   70 1   
    65   28   29 2   
    66   28   30 1   
    67   30   31 1   
    68   30   71 1   
    69   31   33 1   
    70   31   72 1   
    71   33   34 1   
    72   33   73 1   
    73   33   74 1   
    74   34   35 1   
    75   34   75 1   
    76   34   76 1   
    77   35   36 1   
    78   35   77 1   
    79   35   78 1   
    80   36   37 1   
    81   36   79 1   
    82   37   38 2   
    83   37   39 1   
    84   38   80 1   
    85   39   81 1   
    86   39   82 1   
@<TRIPOS>SUBSTRUCTURE
     1 NKK         1 TEMP              0 ****  ****    0 ROOT
