@<TRIPOS>MOLECULE
NKN
   58    57     1     0     0
SMALL
bcc


@<TRIPOS>ATOM
      1 OAA         8.4190    0.9040    0.5720 o         1 NKN     -0.921167
      2 OAB         9.6680    0.8550   -1.6710 o         1 NKN     -0.921167
      3 PAC         8.7700    0.1550   -0.6960 p5        1 NKN      1.319900
      4 OAD         8.9550   -1.3250   -0.5190 o         1 NKN     -0.921167
      5 OAE         1.8170   -1.2070    1.6230 o         1 NKN     -0.587000
      6 OAF         7.2060    0.2250   -1.4630 os        1 NKN     -0.559200
      7 CAG         6.2410   -0.4870   -0.8080 c3        1 NKN      0.209400
      8 CAH         5.1580    0.4590   -0.2250 c3        1 NKN      0.120100
      9 CAI         4.1040   -0.3820    0.5100 c3        1 NKN      0.122400
     10 OAJ         2.8270    0.2520    0.2390 os        1 NKN     -0.418900
     11 CAK         1.7390   -0.2220    0.8770 c         1 NKN      0.624100
     12 CAL         0.5010    0.5790    0.5780 c3        1 NKN     -0.136400
     13 CAM        -0.7290   -0.3000    0.5590 c3        1 NKN     -0.077400
     14 CAN        -1.9870    0.5280    0.4070 c3        1 NKN     -0.078400
     15 CAO        -3.2190   -0.3500    0.3680 c3        1 NKN     -0.078400
     16 CAP        -4.4790    0.4760    0.2220 c3        1 NKN     -0.079400
     17 CAQ        -5.7120   -0.4030    0.1820 c3        1 NKN     -0.079400
     18 CAR        -6.9720    0.4230    0.0360 c3        1 NKN     -0.078400
     19 CAS        -8.2040   -0.4550   -0.0040 c3        1 NKN     -0.079400
     20 CAT        -9.4640    0.3700   -0.1500 c3        1 NKN     -0.078400
     21 CAU       -10.6960   -0.5080   -0.1900 c3        1 NKN     -0.079400
     22 CAV       -11.9560    0.3170   -0.3370 c3        1 NKN     -0.079400
     23 CAW       -13.1890   -0.5600   -0.3760 c3        1 NKN     -0.080400
     24 CAX       -14.4460    0.2570   -0.5220 c3        1 NKN     -0.092100
     25 OAY         5.6670    1.4050    0.6810 oh        1 NKN     -0.688800
     26 HAG         5.7080   -1.1770   -1.5290 h1        1 NKN     -0.005300
     27 HAGA        6.6810   -1.1010    0.0290 h1        1 NKN     -0.005300
     28 HAH         4.6580    1.0230   -1.0630 h1        1 NKN      0.021700
     29 HAI         4.0480   -1.4300    0.1220 h1        1 NKN      0.046700
     30 HAIA        4.2750   -0.3850    1.6150 h1        1 NKN      0.046700
     31 HAL         0.4110    1.3630    1.3750 hc        1 NKN      0.068700
     32 HALA        0.6270    1.1040   -0.4050 hc        1 NKN      0.068700
     33 HAM        -0.6530   -1.0330   -0.2860 hc        1 NKN      0.053200
     34 HAMA       -0.7730   -0.8980    1.5090 hc        1 NKN      0.053200
     35 HAN        -2.0670    1.2510    1.2610 hc        1 NKN      0.036700
     36 HANA       -1.9270    1.1340   -0.5350 hc        1 NKN      0.036700
     37 HAO        -3.1400   -1.0710   -0.4870 hc        1 NKN      0.040200
     38 HAOA       -3.2750   -0.9590    1.3090 hc        1 NKN      0.040200
     39 HAP        -4.5580    1.1960    1.0780 hc        1 NKN      0.037700
     40 HAPA       -4.4220    1.0850   -0.7190 hc        1 NKN      0.037700
     41 HAQ        -5.6320   -1.1230   -0.6740 hc        1 NKN      0.039200
     42 HAQA       -5.7680   -1.0120    1.1230 hc        1 NKN      0.039200
     43 HAR        -7.0510    1.1440    0.8920 hc        1 NKN      0.038200
     44 HARA       -6.9140    1.0320   -0.9050 hc        1 NKN      0.038200
     45 HAS        -8.1240   -1.1760   -0.8600 hc        1 NKN      0.038700
     46 HASA       -8.2610   -1.0650    0.9370 hc        1 NKN      0.038700
     47 HAT        -9.5430    1.0910    0.7060 hc        1 NKN      0.038700
     48 HATA       -9.4060    0.9800   -1.0910 hc        1 NKN      0.038700
     49 HAU       -10.6160   -1.2290   -1.0460 hc        1 NKN      0.038700
     50 HAUA      -10.7530   -1.1180    0.7510 hc        1 NKN      0.038700
     51 HAV       -12.0350    1.0380    0.5190 hc        1 NKN      0.038700
     52 HAVA      -11.8990    0.9270   -1.2770 hc        1 NKN      0.038700
     53 HAW       -13.1070   -1.2820   -1.2320 hc        1 NKN      0.037700
     54 HAWA      -13.2430   -1.1700    0.5650 hc        1 NKN      0.037700
     55 HAX       -14.4210    0.8530   -1.4670 hc        1 NKN      0.030367
     56 HAXA      -15.3420   -0.4080   -0.5490 hc        1 NKN      0.030367
     57 HAXB      -14.5580    0.9650    0.3340 hc        1 NKN      0.030367
     58 HOAY        6.6650    1.3350    0.6590 ho        1 NKN      0.507000
@<TRIPOS>BOND
     1    1    3 1   
     2    2    3 1   
     3    3    4 1   
     4    3    6 1   
     5    5   11 2   
     6    6    7 1   
     7    7    8 1   
     8    7   26 1   
     9    7   27 1   
    10    8    9 1   
    11    8   25 1   
    12    8   28 1   
    13    9   10 1   
    14    9   29 1   
    15    9   30 1   
    16   10   11 1   
    17   11   12 1   
    18   12   13 1   
    19   12   31 1   
    20   12   32 1   
    21   13   14 1   
    22   13   33 1   
    23   13   34 1   
    24   14   15 1   
    25   14   35 1   
    26   14   36 1   
    27   15   16 1   
    28   15   37 1   
    29   15   38 1   
    30   16   17 1   
    31   16   39 1   
    32   16   40 1   
    33   17   18 1   
    34   17   41 1   
    35   17   42 1   
    36   18   19 1   
    37   18   43 1   
    38   18   44 1   
    39   19   20 1   
    40   19   45 1   
    41   19   46 1   
    42   20   21 1   
    43   20   47 1   
    44   20   48 1   
    45   21   22 1   
    46   21   49 1   
    47   21   50 1   
    48   22   23 1   
    49   22   51 1   
    50   22   52 1   
    51   23   24 1   
    52   23   53 1   
    53   23   54 1   
    54   24   55 1   
    55   24   56 1   
    56   24   57 1   
    57   25   58 1   
@<TRIPOS>SUBSTRUCTURE
     1 NKN         1 TEMP              0 ****  ****    0 ROOT
