@<TRIPOS>MOLECULE
NKN
   58    57     1     0     0
SMALL
bcc


@<TRIPOS>ATOM
      1 OAA         1.4630   -0.6900   -1.4640 o         1 NKN     -0.921167
      2 OAB         3.2380    0.9190   -0.5390 o         1 NKN     -0.921167
      3 PAC         2.3330   -0.2530   -0.3050 p5        1 NKN      1.319900
      4 OAD         1.6840   -0.3710    1.0450 o         1 NKN     -0.921167
      5 OAE         1.3830   -7.6420   -0.5620 o         1 NKN     -0.587000
      6 OAF         3.4250   -1.6120   -0.2900 os        1 NKN     -0.559200
      7 CAG         2.8280   -2.7910    0.0540 c3        1 NKN      0.209400
      8 CAH         2.8210   -3.7760   -1.1450 c3        1 NKN      0.120100
      9 CAI         2.1330   -5.0810   -0.7150 c3        1 NKN      0.122400
     10 OAJ         2.8670   -6.1520   -1.3620 os        1 NKN     -0.418900
     11 CAK         2.3860   -7.4050   -1.2480 c         1 NKN      0.624100
     12 CAL         3.1870   -8.4040   -2.0380 c3        1 NKN     -0.136400
     13 CAM         3.2230   -9.7480   -1.3460 c3        1 NKN     -0.077400
     14 CAN         3.9010  -10.7870   -2.2130 c3        1 NKN     -0.078400
     15 CAO         3.9560  -12.1300   -1.5150 c3        1 NKN     -0.078400
     16 CAP         4.6270  -13.1730   -2.3820 c3        1 NKN     -0.079400
     17 CAQ         4.6820  -14.5160   -1.6850 c3        1 NKN     -0.079400
     18 CAR         5.3530  -15.5600   -2.5510 c3        1 NKN     -0.078400
     19 CAS         5.4070  -16.9020   -1.8540 c3        1 NKN     -0.079400
     20 CAT         6.0780  -17.9460   -2.7200 c3        1 NKN     -0.078400
     21 CAU         6.1310  -19.2880   -2.0240 c3        1 NKN     -0.079400
     22 CAV         6.8030  -20.3320   -2.8900 c3        1 NKN     -0.079400
     23 CAW         6.8560  -21.6760   -2.1940 c3        1 NKN     -0.080400
     24 CAX         7.5240  -22.7180   -3.0530 c3        1 NKN     -0.092100
     25 OAY         2.1470   -3.2810   -2.2740 oh        1 NKN     -0.688800
     26 HAG         1.7680   -2.6290    0.4030 h1        1 NKN     -0.005300
     27 HAGA        3.4130   -3.2980    0.8800 h1        1 NKN     -0.005300
     28 HAH         3.8810   -4.0050   -1.4530 h1        1 NKN      0.021700
     29 HAI         1.0690   -5.1180   -1.0580 h1        1 NKN      0.046700
     30 HAIA        2.1920   -5.2500    0.3890 h1        1 NKN      0.046700
     31 HAL         4.2260   -8.0090   -2.1910 hc        1 NKN      0.068700
     32 HALA        2.7050   -8.4950   -3.0470 hc        1 NKN      0.068700
     33 HAM         3.7700   -9.6520   -0.3710 hc        1 NKN      0.053200
     34 HAMA        2.1750  -10.0690   -1.1050 hc        1 NKN      0.053200
     35 HAN         4.9410  -10.4500   -2.4620 hc        1 NKN      0.036700
     36 HANA        3.3450  -10.8900   -3.1820 hc        1 NKN      0.036700
     37 HAO         4.5150  -12.0270   -0.5480 hc        1 NKN      0.039700
     38 HAOA        2.9150  -12.4630   -1.2610 hc        1 NKN      0.039700
     39 HAP         4.0680  -13.2750   -3.3490 hc        1 NKN      0.037700
     40 HAPA        5.6680  -12.8380   -2.6350 hc        1 NKN      0.037700
     41 HAQ         3.6420  -14.8500   -1.4310 hc        1 NKN      0.039200
     42 HAQA        5.2410  -14.4140   -0.7170 hc        1 NKN      0.039200
     43 HAR         4.7940  -15.6600   -3.5190 hc        1 NKN      0.038200
     44 HARA        6.3940  -15.2250   -2.8040 hc        1 NKN      0.038200
     45 HAS         4.3660  -17.2360   -1.6010 hc        1 NKN      0.038700
     46 HASA        5.9660  -16.8010   -0.8860 hc        1 NKN      0.038700
     47 HAT         7.1190  -17.6120   -2.9730 hc        1 NKN      0.038700
     48 HATA        5.5200  -18.0460   -3.6880 hc        1 NKN      0.038700
     49 HAU         5.0900  -19.6220   -1.7710 hc        1 NKN      0.038700
     50 HAUA        6.6890  -19.1870   -1.0560 hc        1 NKN      0.038700
     51 HAV         6.2450  -20.4330   -3.8580 hc        1 NKN      0.038700
     52 HAVA        7.8440  -19.9990   -3.1420 hc        1 NKN      0.038700
     53 HAW         7.4130  -21.5720   -1.2250 hc        1 NKN      0.037700
     54 HAWA        5.8140  -22.0070   -1.9410 hc        1 NKN      0.037700
     55 HAX         7.5520  -23.7000   -2.5220 hc        1 NKN      0.030367
     56 HAXA        8.5720  -22.4170   -3.2950 hc        1 NKN      0.030367
     57 HAXB        6.9690  -22.8520   -4.0130 hc        1 NKN      0.030367
     58 HOAY        1.9160   -2.3250   -2.0910 ho        1 NKN      0.507000
@<TRIPOS>BOND
     1    1    3 1   
     2    2    3 1   
     3    3    4 1   
     4    3    6 1   
     5    5   11 2   
     6    6    7 1   
     7    7    8 1   
     8    7   26 1   
     9    7   27 1   
    10    8    9 1   
    11    8   25 1   
    12    8   28 1   
    13    9   10 1   
    14    9   29 1   
    15    9   30 1   
    16   10   11 1   
    17   11   12 1   
    18   12   13 1   
    19   12   31 1   
    20   12   32 1   
    21   13   14 1   
    22   13   33 1   
    23   13   34 1   
    24   14   15 1   
    25   14   35 1   
    26   14   36 1   
    27   15   16 1   
    28   15   37 1   
    29   15   38 1   
    30   16   17 1   
    31   16   39 1   
    32   16   40 1   
    33   17   18 1   
    34   17   41 1   
    35   17   42 1   
    36   18   19 1   
    37   18   43 1   
    38   18   44 1   
    39   19   20 1   
    40   19   45 1   
    41   19   46 1   
    42   20   21 1   
    43   20   47 1   
    44   20   48 1   
    45   21   22 1   
    46   21   49 1   
    47   21   50 1   
    48   22   23 1   
    49   22   51 1   
    50   22   52 1   
    51   23   24 1   
    52   23   53 1   
    53   23   54 1   
    54   24   55 1   
    55   24   56 1   
    56   24   57 1   
    57   25   58 1   
@<TRIPOS>SUBSTRUCTURE
     1 NKN         1 TEMP              0 ****  ****    0 ROOT
