@<TRIPOS>MOLECULE
NKN
   58    57     1     0     0
SMALL
bcc


@<TRIPOS>ATOM
      1 OAA         2.9390   -0.8000    1.8040 o         1 NKN     -0.927833
      2 OAB         3.7480    0.5790   -0.2040 o         1 NKN     -0.927833
      3 PAC         3.5910   -0.7620    0.4500 p5        1 NKN      1.308900
      4 OAD         4.6940   -1.7650    0.2440 o         1 NKN     -0.927833
      5 OAE         0.9700   -7.6570   -1.2750 o         1 NKN     -0.593000
      6 OAF         2.3390   -1.5080   -0.5420 os        1 NKN     -0.559200
      7 CAG         2.0270   -2.7710   -0.1280 c3        1 NKN      0.218400
      8 CAH         2.4860   -3.7980   -1.2030 c3        1 NKN      0.084100
      9 CAI         1.7560   -5.1210   -1.0000 c3        1 NKN      0.141400
     10 OAJ         2.6210   -6.1520   -1.5370 os        1 NKN     -0.410900
     11 CAK         2.1260   -7.4010   -1.6410 c         1 NKN      0.626100
     12 CAL         3.1110   -8.3610   -2.2460 c3        1 NKN     -0.135400
     13 CAM         2.9800   -9.7380   -1.6330 c3        1 NKN     -0.077400
     14 CAN         3.8740  -10.7340   -2.3400 c3        1 NKN     -0.078400
     15 CAO         3.7610  -12.1090   -1.7170 c3        1 NKN     -0.078400
     16 CAP         4.6500  -13.1090   -2.4250 c3        1 NKN     -0.079400
     17 CAQ         4.5380  -14.4830   -1.8000 c3        1 NKN     -0.079400
     18 CAR         5.4260  -15.4840   -2.5090 c3        1 NKN     -0.079400
     19 CAS         5.3140  -16.8580   -1.8840 c3        1 NKN     -0.079400
     20 CAT         6.2020  -17.8580   -2.5920 c3        1 NKN     -0.078400
     21 CAU         6.0900  -19.2320   -1.9680 c3        1 NKN     -0.079400
     22 CAV         6.9790  -20.2330   -2.6760 c3        1 NKN     -0.079400
     23 CAW         6.8680  -21.6080   -2.0530 c3        1 NKN     -0.080400
     24 CAX         7.7500  -22.6070   -2.7550 c3        1 NKN     -0.092100
     25 OAY         2.1750   -3.3390   -2.5130 oh        1 NKN     -0.663800
     26 HAG         2.5210   -3.0260    0.8500 h1        1 NKN     -0.005300
     27 HAGA        0.9050   -2.8800   -0.0210 h1        1 NKN     -0.005300
     28 HAH         3.6000   -3.9370   -1.1310 h1        1 NKN      0.086700
     29 HAI         1.6050   -5.3400    0.0870 h1        1 NKN      0.045200
     30 HAIA        0.7790   -5.1520   -1.5440 h1        1 NKN      0.045200
     31 HAL         4.1510   -7.9630   -2.1060 hc        1 NKN      0.071700
     32 HALA        2.9060   -8.4020   -3.3490 hc        1 NKN      0.071700
     33 HAM         3.2520   -9.6900   -0.5460 hc        1 NKN      0.053200
     34 HAMA        1.9100  -10.0700   -1.6900 hc        1 NKN      0.053200
     35 HAN         3.5920  -10.7890   -3.4250 hc        1 NKN      0.037700
     36 HANA        4.9390  -10.3850   -2.2920 hc        1 NKN      0.037700
     37 HAO         4.0460  -12.0530   -0.6330 hc        1 NKN      0.039700
     38 HAOA        2.6950  -12.4550   -1.7600 hc        1 NKN      0.039700
     39 HAP         5.7150  -12.7610   -2.3810 hc        1 NKN      0.037700
     40 HAPA        4.3650  -13.1640   -3.5090 hc        1 NKN      0.037700
     41 HAQ         4.8230  -14.4280   -0.7170 hc        1 NKN      0.038700
     42 HAQA        3.4720  -14.8300   -1.8440 hc        1 NKN      0.038700
     43 HAR         6.4920  -15.1360   -2.4650 hc        1 NKN      0.038700
     44 HARA        5.1410  -15.5380   -3.5920 hc        1 NKN      0.038700
     45 HAS         5.6000  -16.8020   -0.8010 hc        1 NKN      0.038700
     46 HASA        4.2480  -17.2050   -1.9270 hc        1 NKN      0.038700
     47 HAT         5.9170  -17.9130   -3.6760 hc        1 NKN      0.038700
     48 HATA        7.2690  -17.5110   -2.5490 hc        1 NKN      0.038700
     49 HAU         6.3760  -19.1770   -0.8840 hc        1 NKN      0.038700
     50 HAUA        5.0240  -19.5790   -2.0110 hc        1 NKN      0.038700
     51 HAV         6.6940  -20.2880   -3.7600 hc        1 NKN      0.039200
     52 HAVA        8.0450  -19.8860   -2.6330 hc        1 NKN      0.039200
     53 HAW         5.8000  -21.9520   -2.0950 hc        1 NKN      0.038200
     54 HAWA        7.1520  -21.5500   -0.9690 hc        1 NKN      0.038200
     55 HAX         8.8210  -22.2930   -2.7010 hc        1 NKN      0.030033
     56 HAXA        7.4660  -22.6970   -3.8310 hc        1 NKN      0.030033
     57 HAXB        7.6540  -23.6130   -2.2790 hc        1 NKN      0.030033
     58 HOAY        2.2410   -2.3690   -2.4660 ho        1 NKN      0.447000
@<TRIPOS>BOND
     1    1    3 1   
     2    2    3 1   
     3    3    4 1   
     4    3    6 1   
     5    5   11 2   
     6    6    7 1   
     7    7    8 1   
     8    7   26 1   
     9    7   27 1   
    10    8    9 1   
    11    8   25 1   
    12    8   28 1   
    13    9   10 1   
    14    9   29 1   
    15    9   30 1   
    16   10   11 1   
    17   11   12 1   
    18   12   13 1   
    19   12   31 1   
    20   12   32 1   
    21   13   14 1   
    22   13   33 1   
    23   13   34 1   
    24   14   15 1   
    25   14   35 1   
    26   14   36 1   
    27   15   16 1   
    28   15   37 1   
    29   15   38 1   
    30   16   17 1   
    31   16   39 1   
    32   16   40 1   
    33   17   18 1   
    34   17   41 1   
    35   17   42 1   
    36   18   19 1   
    37   18   43 1   
    38   18   44 1   
    39   19   20 1   
    40   19   45 1   
    41   19   46 1   
    42   20   21 1   
    43   20   47 1   
    44   20   48 1   
    45   21   22 1   
    46   21   49 1   
    47   21   50 1   
    48   22   23 1   
    49   22   51 1   
    50   22   52 1   
    51   23   24 1   
    52   23   53 1   
    53   23   54 1   
    54   24   55 1   
    55   24   56 1   
    56   24   57 1   
    57   25   58 1   
@<TRIPOS>SUBSTRUCTURE
     1 NKN         1 TEMP              0 ****  ****    0 ROOT
