@<TRIPOS>MOLECULE
NKN
   58    57     1     0     0
SMALL
bcc


@<TRIPOS>ATOM
      1 OAA        -2.0090    0.9880   11.4940 o         1 NKN     -0.921167
      2 OAB        -3.9100    0.4200   10.0300 o         1 NKN     -0.921167
      3 PAC        -2.6280   -0.0930   10.6410 p5        1 NKN      1.319900
      4 OAD        -2.9270   -1.3010   11.4970 o         1 NKN     -0.921167
      5 OAE        -2.2290   -3.1800    3.9350 o         1 NKN     -0.586000
      6 OAF        -1.6220   -0.4980    9.4920 os        1 NKN     -0.558200
      7 CAG        -2.0640   -1.3910    8.4960 c3        1 NKN      0.209400
      8 CAH        -0.9760   -1.5720    7.4620 c3        1 NKN      0.120100
      9 CAI        -1.5190   -2.3610    6.2920 c3        1 NKN      0.123400
     10 OAJ        -0.5640   -2.3830    5.2570 os        1 NKN     -0.419900
     11 CAK        -1.0560   -2.8820    4.0390 c         1 NKN      0.623100
     12 CAL        -0.1170   -3.0840    2.8700 c3        1 NKN     -0.129400
     13 CAM        -0.7350   -2.4970    1.6200 c3        1 NKN     -0.083400
     14 CAN         0.2950   -2.4770    0.5110 c3        1 NKN     -0.074400
     15 CAO        -0.3140   -1.8630   -0.7310 c3        1 NKN     -0.081400
     16 CAP         0.7870   -1.3330   -1.6230 c3        1 NKN     -0.076400
     17 CAQ         0.1890   -0.8380   -2.9220 c3        1 NKN     -0.080400
     18 CAR         1.2200   -0.0240   -3.6730 c3        1 NKN     -0.077400
     19 CAS         0.5370    0.7680   -4.7670 c3        1 NKN     -0.080400
     20 CAT         1.5630    1.6060   -5.4980 c3        1 NKN     -0.078400
     21 CAU         0.8560    2.6280   -6.3610 c3        1 NKN     -0.079400
     22 CAV         1.8780    3.5520   -6.9870 c3        1 NKN     -0.078400
     23 CAW         1.1710    4.5720   -7.8530 c3        1 NKN     -0.081400
     24 CAX         2.1800    5.5670   -8.3860 c3        1 NKN     -0.091100
     25 OAY        -0.5400   -0.3110    7.0150 oh        1 NKN     -0.689800
     26 HAG        -2.8660   -1.0290    8.0660 h1        1 NKN     -0.005300
     27 HAGA       -2.2750   -2.2570    8.9040 h1        1 NKN     -0.005300
     28 HAH        -0.2250   -2.0540    7.8610 h1        1 NKN      0.020700
     29 HAI        -2.3420   -1.9410    5.9680 h1        1 NKN      0.046200
     30 HAIA       -1.7120   -3.2780    6.5790 h1        1 NKN      0.046200
     31 HAL         0.0390   -4.0410    2.7390 hc        1 NKN      0.054700
     32 HALA        0.7340   -2.6380    3.0540 hc        1 NKN      0.054700
     33 HAM        -1.0350   -1.5850    1.8020 hc        1 NKN      0.068200
     34 HAMA       -1.4980   -3.0440    1.3460 hc        1 NKN      0.068200
     35 HAN         0.5810   -3.3920    0.3160 hc        1 NKN      0.029700
     36 HANA        1.0660   -1.9460    0.7920 hc        1 NKN      0.029700
     37 HAO        -0.9080   -1.1300   -0.4750 hc        1 NKN      0.048200
     38 HAOA       -0.8260   -2.5430   -1.2130 hc        1 NKN      0.048200
     39 HAP         1.2450   -0.5960   -1.1730 hc        1 NKN      0.033200
     40 HAPA        1.4270   -2.0480   -1.8110 hc        1 NKN      0.033200
     41 HAQ        -0.5910   -0.2790   -2.7290 hc        1 NKN      0.042700
     42 HAQA       -0.0840   -1.6020   -3.4670 hc        1 NKN      0.042700
     43 HAR         1.8830   -0.6230   -4.0700 hc        1 NKN      0.035700
     44 HARA        1.6640    0.5910   -3.0550 hc        1 NKN      0.035700
     45 HAS        -0.1400    1.3530   -4.3720 hc        1 NKN      0.041200
     46 HASA        0.1100    0.1530   -5.3960 hc        1 NKN      0.041200
     47 HAT         2.1150    1.0280   -6.0620 hc        1 NKN      0.036700
     48 HATA        2.1310    2.0660   -4.8480 hc        1 NKN      0.036700
     49 HAU         0.2390    3.1500   -5.8100 hc        1 NKN      0.040200
     50 HAUA        0.3570    2.1700   -7.0660 hc        1 NKN      0.040200
     51 HAV         2.3760    4.0120   -6.2820 hc        1 NKN      0.037700
     52 HAVA        2.4960    3.0300   -7.5370 hc        1 NKN      0.037700
     53 HAW         0.4990    5.0430   -7.3210 hc        1 NKN      0.038700
     54 HAWA        0.7350    4.1180   -8.6020 hc        1 NKN      0.038700
     55 HAX         2.7830    5.1160   -9.0130 hc        1 NKN      0.029367
     56 HAXA        1.7100    6.2930   -8.8470 hc        1 NKN      0.029367
     57 HAXB        2.6990    5.9350   -7.6410 hc        1 NKN      0.029367
     58 HOAY        0.1480   -0.0420    7.5100 ho        1 NKN      0.508000
@<TRIPOS>BOND
     1    1    3 1   
     2    2    3 1   
     3    3    4 1   
     4    3    6 1   
     5    5   11 2   
     6    6    7 1   
     7    7    8 1   
     8    7   26 1   
     9    7   27 1   
    10    8    9 1   
    11    8   25 1   
    12    8   28 1   
    13    9   10 1   
    14    9   29 1   
    15    9   30 1   
    16   10   11 1   
    17   11   12 1   
    18   12   13 1   
    19   12   31 1   
    20   12   32 1   
    21   13   14 1   
    22   13   33 1   
    23   13   34 1   
    24   14   15 1   
    25   14   35 1   
    26   14   36 1   
    27   15   16 1   
    28   15   37 1   
    29   15   38 1   
    30   16   17 1   
    31   16   39 1   
    32   16   40 1   
    33   17   18 1   
    34   17   41 1   
    35   17   42 1   
    36   18   19 1   
    37   18   43 1   
    38   18   44 1   
    39   19   20 1   
    40   19   45 1   
    41   19   46 1   
    42   20   21 1   
    43   20   47 1   
    44   20   48 1   
    45   21   22 1   
    46   21   49 1   
    47   21   50 1   
    48   22   23 1   
    49   22   51 1   
    50   22   52 1   
    51   23   24 1   
    52   23   53 1   
    53   23   54 1   
    54   24   55 1   
    55   24   56 1   
    56   24   57 1   
    57   25   58 1   
@<TRIPOS>SUBSTRUCTURE
     1 NKN         1 TEMP              0 ****  ****    0 ROOT
