@<TRIPOS>MOLECULE
NKO
   64    63     1     0     0
SMALL
bcc


@<TRIPOS>ATOM
      1 OAA        10.4070    4.7940    6.1500 o         1 NKO     -0.928167
      2 OAB        11.6290    3.9570    4.1790 o         1 NKO     -0.928167
      3 PAC        10.2890    3.9990    4.8720 p5        1 NKO      1.308900
      4 OAD         9.8460    2.5920    5.1950 o         1 NKO     -0.928167
      5 OAE         2.9850    4.8450    3.7070 o         1 NKO     -0.593000
      6 OAF         9.2250    4.6810    3.9230 os        1 NKO     -0.560200
      7 CAG         7.8660    4.6240    4.2870 c3        1 NKO      0.218400
      8 CAH         7.0250    5.2430    3.1940 c3        1 NKO      0.082100
      9 CAI         5.5600    5.1010    3.5430 c3        1 NKO      0.142400
     10 OAJ         4.8240    4.8240    2.3750 os        1 NKO     -0.411900
     11 CAK         3.4400    4.7070    2.5890 c         1 NKO      0.625100
     12 CAL         2.5180    4.4030    1.4280 c3        1 NKO     -0.128400
     13 CAM         1.5210    3.3430    1.8410 c3        1 NKO     -0.085400
     14 CAN         0.6350    2.9990    0.6640 c3        1 NKO     -0.073400
     15 CAO        -0.1060    1.7120    0.9500 c3        1 NKO     -0.083400
     16 CAP        -0.9510    1.3390   -0.2480 c3        1 NKO     -0.075400
     17 CAQ        -1.1670   -0.1590   -0.2660 c3        1 NKO     -0.081400
     18 CAR        -2.3180   -0.4910   -1.1900 c3        1 NKO     -0.077400
     19 CAS        -2.4440   -1.9930   -1.3190 c3        1 NKO     -0.080400
     20 CAT        -3.6800   -2.3280   -2.1250 c3        1 NKO     -0.077400
     21 CAU        -3.8540   -3.8300   -2.1800 c3        1 NKO     -0.080400
     22 CAV        -5.0160   -4.1700   -3.0870 c3        1 NKO     -0.078400
     23 CAW        -5.3170   -5.6490   -2.9880 c3        1 NKO     -0.079400
     24 CAX        -6.3890   -6.0140   -3.9920 c3        1 NKO     -0.078400
     25 CAY        -6.7280   -7.4820   -3.8560 c3        1 NKO     -0.080400
     26 CAZ        -7.7590   -7.8600   -4.8970 c3        1 NKO     -0.091100
     27 OBA         7.3470    6.6070    3.0690 oh        1 NKO     -0.663800
     28 HAG         7.6010    3.6900    4.4140 h1        1 NKO     -0.005800
     29 HAGA        7.7310    5.1180    5.1220 h1        1 NKO     -0.005800
     30 HAH         7.2040    4.7870    2.3480 h1        1 NKO      0.090700
     31 HAI         5.2380    5.9350    3.9430 h1        1 NKO      0.044700
     32 HAIA        5.4470    4.3670    4.1820 h1        1 NKO      0.044700
     33 HAL         2.0410    5.2170    1.1700 hc        1 NKO      0.056200
     34 HALA        3.0450    4.0790    0.6700 hc        1 NKO      0.056200
     35 HAM         1.9990    2.5420    2.1350 hc        1 NKO      0.070700
     36 HAMA        0.9700    3.6820    2.5750 hc        1 NKO      0.070700
     37 HAN         1.1860    2.8860   -0.1370 hc        1 NKO      0.028200
     38 HANA       -0.0080    3.7200    0.5180 hc        1 NKO      0.028200
     39 HAO        -0.6840    1.8350    1.7300 hc        1 NKO      0.051700
     40 HAOA        0.5370    0.9980    1.1310 hc        1 NKO      0.051700
     41 HAP        -0.4920    1.6120   -1.0680 hc        1 NKO      0.031200
     42 HAPA       -1.8150    1.7920   -0.1920 hc        1 NKO      0.031200
     43 HAQ        -0.3550   -0.6020   -0.5850 hc        1 NKO      0.045200
     44 HAQA       -1.3740   -0.4690    0.6380 hc        1 NKO      0.045200
     45 HAR        -3.1470   -0.1250   -0.8220 hc        1 NKO      0.033700
     46 HARA       -2.1520   -0.1000   -2.0710 hc        1 NKO      0.033700
     47 HAS        -2.5170   -2.3920   -0.4290 hc        1 NKO      0.042700
     48 HASA       -1.6530   -2.3490   -1.7720 hc        1 NKO      0.042700
     49 HAT        -4.4640   -1.9240   -1.7020 hc        1 NKO      0.035700
     50 HATA       -3.5820   -1.9780   -3.0330 hc        1 NKO      0.035700
     51 HAU        -4.0320   -4.1710   -1.2810 hc        1 NKO      0.041200
     52 HAUA       -3.0370   -4.2400   -2.5290 hc        1 NKO      0.041200
     53 HAV        -5.8040   -3.6580   -2.8130 hc        1 NKO      0.037200
     54 HAVA       -4.7860   -3.9450   -4.0100 hc        1 NKO      0.037200
     55 HAW        -5.6300   -5.8590   -2.0860 hc        1 NKO      0.040200
     56 HAWA       -4.5050   -6.1600   -3.1780 hc        1 NKO      0.040200
     57 HAX        -6.0620   -5.8370   -4.8970 hc        1 NKO      0.037700
     58 HAXA       -7.1890   -5.4780   -3.8230 hc        1 NKO      0.037700
     59 HAY        -5.9190   -8.0170   -3.9890 hc        1 NKO      0.038700
     60 HAYA       -7.0880   -7.6530   -2.9630 hc        1 NKO      0.038700
     61 HAZ        -7.9190   -8.8260   -4.8620 hc        1 NKO      0.029367
     62 HAZA       -8.5950   -7.3830   -4.7160 hc        1 NKO      0.029367
     63 HAZB       -7.4290   -7.6160   -5.7870 hc        1 NKO      0.029367
     64 HOBA        7.8540    6.7270    2.3490 ho        1 NKO      0.446000
@<TRIPOS>BOND
     1    1    3 1   
     2    2    3 1   
     3    3    4 1   
     4    3    6 1   
     5    5   11 2   
     6    6    7 1   
     7    7    8 1   
     8    7   28 1   
     9    7   29 1   
    10    8    9 1   
    11    8   27 1   
    12    8   30 1   
    13    9   10 1   
    14    9   31 1   
    15    9   32 1   
    16   10   11 1   
    17   11   12 1   
    18   12   13 1   
    19   12   33 1   
    20   12   34 1   
    21   13   14 1   
    22   13   35 1   
    23   13   36 1   
    24   14   15 1   
    25   14   37 1   
    26   14   38 1   
    27   15   16 1   
    28   15   39 1   
    29   15   40 1   
    30   16   17 1   
    31   16   41 1   
    32   16   42 1   
    33   17   18 1   
    34   17   43 1   
    35   17   44 1   
    36   18   19 1   
    37   18   45 1   
    38   18   46 1   
    39   19   20 1   
    40   19   47 1   
    41   19   48 1   
    42   20   21 1   
    43   20   49 1   
    44   20   50 1   
    45   21   22 1   
    46   21   51 1   
    47   21   52 1   
    48   22   23 1   
    49   22   53 1   
    50   22   54 1   
    51   23   24 1   
    52   23   55 1   
    53   23   56 1   
    54   24   25 1   
    55   24   57 1   
    56   24   58 1   
    57   25   26 1   
    58   25   59 1   
    59   25   60 1   
    60   26   61 1   
    61   26   62 1   
    62   26   63 1   
    63   27   64 1   
@<TRIPOS>SUBSTRUCTURE
     1 NKO         1 TEMP              0 ****  ****    0 ROOT
