@<TRIPOS>MOLECULE
NKO
   64    63     1     0     0
SMALL
bcc


@<TRIPOS>ATOM
      1 OAA         0.4120    0.3910   -0.7970 o         1 NKO     -0.928833
      2 OAB         2.4200    0.9470   -2.2930 o         1 NKO     -0.928833
      3 PAC         1.8970    0.3540   -1.0130 p5        1 NKO      1.312900
      4 OAD         2.7690    0.5640    0.1960 o         1 NKO     -0.928833
      5 OAE         7.3100   -5.0100   -1.1900 o         1 NKO     -0.580000
      6 OAF         2.1690   -1.3580   -1.3090 os        1 NKO     -0.567200
      7 CAG         3.5080   -1.5660   -1.5300 c3        1 NKO      0.171400
      8 CAH         3.7250   -3.0530   -1.8980 c3        1 NKO      0.120100
      9 CAI         5.1430   -3.4800   -1.5140 c3        1 NKO      0.130400
     10 OAJ         5.5260   -4.5070   -2.4630 os        1 NKO     -0.424900
     11 CAK         6.6270   -5.2390   -2.1960 c         1 NKO      0.626100
     12 CAL         6.8690   -6.3090   -3.2240 c3        1 NKO     -0.135400
     13 CAM         8.3490   -6.5250   -3.4500 c3        1 NKO     -0.078400
     14 CAN         8.5910   -7.7000   -4.3720 c3        1 NKO     -0.078400
     15 CAO        10.0710   -7.9070   -4.6170 c3        1 NKO     -0.079400
     16 CAP        10.3180   -9.0850   -5.5340 c3        1 NKO     -0.078400
     17 CAQ        11.7970   -9.2910   -5.7790 c3        1 NKO     -0.079400
     18 CAR        12.0440  -10.4700   -6.6960 c3        1 NKO     -0.078400
     19 CAS        13.5240  -10.6760   -6.9410 c3        1 NKO     -0.079400
     20 CAT        13.7710  -11.8550   -7.8570 c3        1 NKO     -0.078400
     21 CAU        15.2510  -12.0600   -8.1030 c3        1 NKO     -0.079400
     22 CAV        15.4980  -13.2390   -9.0190 c3        1 NKO     -0.078400
     23 CAW        16.9770  -13.4440   -9.2640 c3        1 NKO     -0.079400
     24 CAX        17.2250  -14.6230  -10.1810 c3        1 NKO     -0.079400
     25 CAY        18.7040  -14.8300  -10.4270 c3        1 NKO     -0.080400
     26 CAZ        18.9560  -16.0030  -11.3380 c3        1 NKO     -0.092100
     27 OBA         2.8170   -3.9130   -1.2300 oh        1 NKO     -0.660800
     28 HAG         4.0910   -1.3110   -0.6000 h1        1 NKO      0.024200
     29 HAGA        3.8720   -0.9180   -2.3750 h1        1 NKO      0.024200
     30 HAH         3.5740   -3.2070   -3.0030 h1        1 NKO      0.029700
     31 HAI         5.1840   -3.9020   -0.4790 h1        1 NKO      0.055700
     32 HAIA        5.8700   -2.6360   -1.6230 h1        1 NKO      0.055700
     33 HAL         6.3590   -6.0270   -4.1820 hc        1 NKO      0.069200
     34 HALA        6.3880   -7.2500   -2.8450 hc        1 NKO      0.069200
     35 HAM         8.7990   -5.5970   -3.8920 hc        1 NKO      0.054200
     36 HAMA        8.8540   -6.6980   -2.4620 hc        1 NKO      0.054200
     37 HAN         8.0690   -7.5260   -5.3490 hc        1 NKO      0.037200
     38 HANA        8.1510   -8.6290   -3.9220 hc        1 NKO      0.037200
     39 HAO        10.5930   -8.0750   -3.6380 hc        1 NKO      0.040700
     40 HAOA       10.5100   -6.9790   -5.0690 hc        1 NKO      0.040700
     41 HAP         9.8790  -10.0130   -5.0800 hc        1 NKO      0.037700
     42 HAPA        9.7940   -8.9160   -6.5120 hc        1 NKO      0.037700
     43 HAQ        12.3200   -9.4590   -4.8010 hc        1 NKO      0.039200
     44 HAQA       12.2350   -8.3640   -6.2330 hc        1 NKO      0.039200
     45 HAR        11.5210  -10.3020   -7.6740 hc        1 NKO      0.038200
     46 HARA       11.6060  -11.3980   -6.2420 hc        1 NKO      0.038200
     47 HAS        14.0470  -10.8440   -5.9630 hc        1 NKO      0.039200
     48 HASA       13.9620   -9.7480   -7.3950 hc        1 NKO      0.039200
     49 HAT        13.3330  -12.7820   -7.4030 hc        1 NKO      0.038700
     50 HATA       13.2470  -11.6870   -8.8350 hc        1 NKO      0.038700
     51 HAU        15.7740  -12.2280   -7.1250 hc        1 NKO      0.039200
     52 HAUA       15.6880  -11.1320   -8.5570 hc        1 NKO      0.039200
     53 HAV        15.0600  -14.1670   -8.5650 hc        1 NKO      0.038700
     54 HAVA       14.9740  -13.0720   -9.9970 hc        1 NKO      0.038700
     55 HAW        17.5010  -13.6120   -8.2860 hc        1 NKO      0.039200
     56 HAWA       17.4150  -12.5170   -9.7190 hc        1 NKO      0.039200
     57 HAX        16.7010  -14.4560  -11.1590 hc        1 NKO      0.038700
     58 HAXA       16.7870  -15.5510   -9.7260 hc        1 NKO      0.038700
     59 HAY        19.1400  -13.9000  -10.8790 hc        1 NKO      0.038200
     60 HAYA       19.2260  -14.9950   -9.4470 hc        1 NKO      0.038200
     61 HAZ        18.5490  -16.9430  -10.8930 hc        1 NKO      0.030700
     62 HAZA       18.4630  -15.8450  -12.3290 hc        1 NKO      0.030700
     63 HAZB       20.0510  -16.1370  -11.5070 hc        1 NKO      0.030700
     64 HOBA        2.1080   -3.3450   -0.8760 ho        1 NKO      0.456000
@<TRIPOS>BOND
     1    1    3 1   
     2    2    3 1   
     3    3    4 1   
     4    3    6 1   
     5    5   11 2   
     6    6    7 1   
     7    7    8 1   
     8    7   28 1   
     9    7   29 1   
    10    8    9 1   
    11    8   27 1   
    12    8   30 1   
    13    9   10 1   
    14    9   31 1   
    15    9   32 1   
    16   10   11 1   
    17   11   12 1   
    18   12   13 1   
    19   12   33 1   
    20   12   34 1   
    21   13   14 1   
    22   13   35 1   
    23   13   36 1   
    24   14   15 1   
    25   14   37 1   
    26   14   38 1   
    27   15   16 1   
    28   15   39 1   
    29   15   40 1   
    30   16   17 1   
    31   16   41 1   
    32   16   42 1   
    33   17   18 1   
    34   17   43 1   
    35   17   44 1   
    36   18   19 1   
    37   18   45 1   
    38   18   46 1   
    39   19   20 1   
    40   19   47 1   
    41   19   48 1   
    42   20   21 1   
    43   20   49 1   
    44   20   50 1   
    45   21   22 1   
    46   21   51 1   
    47   21   52 1   
    48   22   23 1   
    49   22   53 1   
    50   22   54 1   
    51   23   24 1   
    52   23   55 1   
    53   23   56 1   
    54   24   25 1   
    55   24   57 1   
    56   24   58 1   
    57   25   26 1   
    58   25   59 1   
    59   25   60 1   
    60   26   61 1   
    61   26   62 1   
    62   26   63 1   
    63   27   64 1   
@<TRIPOS>SUBSTRUCTURE
     1 NKO         1 TEMP              0 ****  ****    0 ROOT
