@<TRIPOS>MOLECULE
NKO
   64    63     1     0     0
SMALL
bcc


@<TRIPOS>ATOM
      1 OAA         0.3860    0.3510   -0.7420 o         1 NKO     -0.928833
      2 OAB         2.3790    0.9330   -2.2480 o         1 NKO     -0.928833
      3 PAC         1.8690    0.3280   -0.9680 p5        1 NKO      1.312900
      4 OAD         2.7480    0.5380    0.2360 o         1 NKO     -0.928833
      5 OAE         7.3220   -4.9940   -1.2090 o         1 NKO     -0.580000
      6 OAF         2.1540   -1.3800   -1.2760 os        1 NKO     -0.567200
      7 CAG         3.4920   -1.5750   -1.5090 c3        1 NKO      0.171400
      8 CAH         3.7200   -3.0590   -1.8860 c3        1 NKO      0.120100
      9 CAI         5.1440   -3.4750   -1.5140 c3        1 NKO      0.130400
     10 OAJ         5.5280   -4.4950   -2.4710 os        1 NKO     -0.424900
     11 CAK         6.6350   -5.2210   -2.2130 c         1 NKO      0.626100
     12 CAL         6.8770   -6.2850   -3.2470 c3        1 NKO     -0.135400
     13 CAM         8.3570   -6.5080   -3.4660 c3        1 NKO     -0.078400
     14 CAN         8.5980   -7.6780   -4.3950 c3        1 NKO     -0.078400
     15 CAO        10.0780   -7.8940   -4.6310 c3        1 NKO     -0.079400
     16 CAP        10.3230   -9.0670   -5.5550 c3        1 NKO     -0.078400
     17 CAQ        11.8030   -9.2830   -5.7900 c3        1 NKO     -0.079400
     18 CAR        12.0480  -10.4570   -6.7130 c3        1 NKO     -0.078400
     19 CAS        13.5280  -10.6740   -6.9460 c3        1 NKO     -0.079400
     20 CAT        13.7740  -11.8490   -7.8680 c3        1 NKO     -0.078400
     21 CAU        15.2530  -12.0660   -8.1010 c3        1 NKO     -0.079400
     22 CAV        15.4990  -13.2410   -9.0230 c3        1 NKO     -0.078400
     23 CAW        16.9790  -13.4590   -9.2550 c3        1 NKO     -0.079400
     24 CAX        17.2240  -14.6340  -10.1760 c3        1 NKO     -0.079400
     25 CAY        18.7040  -14.8530  -10.4090 c3        1 NKO     -0.080400
     26 CAZ        18.9530  -16.0220  -11.3260 c3        1 NKO     -0.092100
     27 OBA         2.8240   -3.9290   -1.2160 oh        1 NKO     -0.660800
     28 HAG         3.8450   -0.9190   -2.3530 h1        1 NKO      0.024700
     29 HAGA        4.0800   -1.3210   -0.5810 h1        1 NKO      0.024700
     30 HAH         3.5630   -3.2080   -2.9910 h1        1 NKO      0.029700
     31 HAI         5.8630   -2.6250   -1.6240 h1        1 NKO      0.055700
     32 HAIA        5.1960   -3.9020   -0.4820 h1        1 NKO      0.055700
     33 HAL         6.3750   -5.9930   -4.2060 hc        1 NKO      0.069200
     34 HALA        6.3890   -7.2260   -2.8790 hc        1 NKO      0.069200
     35 HAM         8.8160   -5.5800   -3.8980 hc        1 NKO      0.054200
     36 HAMA        8.8550   -6.6910   -2.4770 hc        1 NKO      0.054200
     37 HAN         8.0840   -7.4930   -5.3750 hc        1 NKO      0.037200
     38 HANA        8.1480   -8.6070   -3.9560 hc        1 NKO      0.037200
     39 HAO        10.5920   -8.0730   -3.6500 hc        1 NKO      0.040200
     40 HAOA       10.5270   -6.9650   -5.0740 hc        1 NKO      0.040200
     41 HAP         9.8730   -9.9950   -5.1120 hc        1 NKO      0.037700
     42 HAPA        9.8090   -8.8870   -6.5360 hc        1 NKO      0.037700
     43 HAQ        12.3170   -9.4620   -4.8080 hc        1 NKO      0.039200
     44 HAQA       12.2520   -8.3550   -6.2330 hc        1 NKO      0.039200
     45 HAR        11.5980  -11.3840   -6.2690 hc        1 NKO      0.038200
     46 HARA       11.5350  -10.2770   -7.6940 hc        1 NKO      0.038200
     47 HAS        14.0410  -10.8530   -5.9640 hc        1 NKO      0.039200
     48 HASA       13.9780   -9.7470   -7.3900 hc        1 NKO      0.039200
     49 HAT        13.3220  -12.7750   -7.4250 hc        1 NKO      0.038700
     50 HATA       13.2610  -11.6690   -8.8500 hc        1 NKO      0.038700
     51 HAU        15.7660  -12.2450   -7.1190 hc        1 NKO      0.039200
     52 HAUA       15.7040  -11.1390   -8.5440 hc        1 NKO      0.039200
     53 HAV        14.9860  -13.0620  -10.0050 hc        1 NKO      0.038700
     54 HAVA       15.0470  -14.1670   -8.5790 hc        1 NKO      0.038700
     55 HAW        17.4300  -12.5320   -9.6980 hc        1 NKO      0.039200
     56 HAWA       17.4910  -13.6380   -8.2730 hc        1 NKO      0.039200
     57 HAX        16.7730  -15.5600   -9.7330 hc        1 NKO      0.038700
     58 HAXA       16.7120  -14.4550  -11.1590 hc        1 NKO      0.038700
     59 HAY        19.2140  -15.0300   -9.4250 hc        1 NKO      0.038200
     60 HAYA       19.1540  -13.9250  -10.8510 hc        1 NKO      0.038200
     61 HAZ        18.5330  -16.9610  -10.8910 hc        1 NKO      0.030700
     62 HAZA       18.4730  -15.8530  -12.3200 hc        1 NKO      0.030700
     63 HAZB       20.0490  -16.1660  -11.4840 hc        1 NKO      0.030700
     64 HOBA        2.1130   -3.3690   -0.8540 ho        1 NKO      0.456000
@<TRIPOS>BOND
     1    1    3 1   
     2    2    3 1   
     3    3    4 1   
     4    3    6 1   
     5    5   11 2   
     6    6    7 1   
     7    7    8 1   
     8    7   28 1   
     9    7   29 1   
    10    8    9 1   
    11    8   27 1   
    12    8   30 1   
    13    9   10 1   
    14    9   31 1   
    15    9   32 1   
    16   10   11 1   
    17   11   12 1   
    18   12   13 1   
    19   12   33 1   
    20   12   34 1   
    21   13   14 1   
    22   13   35 1   
    23   13   36 1   
    24   14   15 1   
    25   14   37 1   
    26   14   38 1   
    27   15   16 1   
    28   15   39 1   
    29   15   40 1   
    30   16   17 1   
    31   16   41 1   
    32   16   42 1   
    33   17   18 1   
    34   17   43 1   
    35   17   44 1   
    36   18   19 1   
    37   18   45 1   
    38   18   46 1   
    39   19   20 1   
    40   19   47 1   
    41   19   48 1   
    42   20   21 1   
    43   20   49 1   
    44   20   50 1   
    45   21   22 1   
    46   21   51 1   
    47   21   52 1   
    48   22   23 1   
    49   22   53 1   
    50   22   54 1   
    51   23   24 1   
    52   23   55 1   
    53   23   56 1   
    54   24   25 1   
    55   24   57 1   
    56   24   58 1   
    57   25   26 1   
    58   25   59 1   
    59   25   60 1   
    60   26   61 1   
    61   26   62 1   
    62   26   63 1   
    63   27   64 1   
@<TRIPOS>SUBSTRUCTURE
     1 NKO         1 TEMP              0 ****  ****    0 ROOT
