@<TRIPOS>MOLECULE
NKO
   64    63     1     0     0
SMALL
bcc


@<TRIPOS>ATOM
      1 OAA        10.7720    0.7790   -1.7750 o         1 NKO     -0.921167
      2 OAB        10.0670   -1.3440   -0.5170 o         1 NKO     -0.921167
      3 PAC         9.8830    0.1270   -0.7600 p5        1 NKO      1.319900
      4 OAD         9.5460    0.9340    0.4760 o         1 NKO     -0.921167
      5 OAE         2.9510   -1.1130    1.6850 o         1 NKO     -0.587000
      6 OAF         8.3110    0.1650   -1.5140 os        1 NKO     -0.559200
      7 CAG         7.3520   -0.5140   -0.8180 c3        1 NKO      0.209400
      8 CAH         6.2760    0.4600   -0.2690 c3        1 NKO      0.120100
      9 CAI         5.2270   -0.3440    0.5140 c3        1 NKO      0.122400
     10 OAJ         3.9490    0.2790    0.2270 os        1 NKO     -0.418900
     11 CAK         2.8660   -0.1640    0.8960 c         1 NKO      0.624100
     12 CAL         1.6280    0.6250    0.5720 c3        1 NKO     -0.136400
     13 CAM         0.3960   -0.2520    0.6040 c3        1 NKO     -0.077400
     14 CAN        -0.8620    0.5710    0.4260 c3        1 NKO     -0.078400
     15 CAO        -2.0960   -0.3050    0.4380 c3        1 NKO     -0.078400
     16 CAP        -3.3560    0.5150    0.2670 c3        1 NKO     -0.079400
     17 CAQ        -4.5900   -0.3610    0.2780 c3        1 NKO     -0.079400
     18 CAR        -5.8500    0.4590    0.1070 c3        1 NKO     -0.078400
     19 CAS        -7.0840   -0.4180    0.1190 c3        1 NKO     -0.079400
     20 CAT        -8.3440    0.4030   -0.0520 c3        1 NKO     -0.079400
     21 CAU        -9.5780   -0.4740   -0.0400 c3        1 NKO     -0.079400
     22 CAV       -10.8380    0.3460   -0.2110 c3        1 NKO     -0.078400
     23 CAW       -12.0720   -0.5310   -0.1990 c3        1 NKO     -0.079400
     24 CAX       -13.3320    0.2900   -0.3690 c3        1 NKO     -0.079400
     25 CAY       -14.5660   -0.5860   -0.3570 c3        1 NKO     -0.080400
     26 CAZ       -15.8240    0.2270   -0.5270 c3        1 NKO     -0.092100
     27 OBA         6.7960    1.4450    0.5880 oh        1 NKO     -0.688800
     28 HAG         6.8110   -1.2360   -1.5020 h1        1 NKO     -0.005300
     29 HAGA        7.7990   -1.0900    0.0420 h1        1 NKO     -0.005300
     30 HAH         5.7690    0.9860   -1.1270 h1        1 NKO      0.021700
     31 HAI         5.1670   -1.4090    0.1750 h1        1 NKO      0.046700
     32 HAIA        5.4100   -0.2970    1.6160 h1        1 NKO      0.046700
     33 HAL         1.5460    1.4450    1.3340 hc        1 NKO      0.068700
     34 HALA        1.7460    1.1060   -0.4340 hc        1 NKO      0.068700
     35 HAM         0.4630   -1.0220   -0.2090 hc        1 NKO      0.053200
     36 HAMA        0.3600   -0.8060    1.5800 hc        1 NKO      0.053200
     37 HAN        -0.9330    1.3320    1.2480 hc        1 NKO      0.036700
     38 HANA       -0.8100    1.1350   -0.5420 hc        1 NKO      0.036700
     39 HAO        -2.0260   -1.0640   -0.3850 hc        1 NKO      0.040200
     40 HAOA       -2.1440   -0.8720    1.4050 hc        1 NKO      0.040200
     41 HAP        -3.4260    1.2740    1.0910 hc        1 NKO      0.037700
     42 HAPA       -3.3070    1.0820   -0.7000 hc        1 NKO      0.037700
     43 HAQ        -4.5200   -1.1190   -0.5460 hc        1 NKO      0.039200
     44 HAQA       -4.6390   -0.9290    1.2450 hc        1 NKO      0.039200
     45 HAR        -5.9200    1.2170    0.9310 hc        1 NKO      0.038200
     46 HARA       -5.8010    1.0260   -0.8600 hc        1 NKO      0.038200
     47 HAS        -7.0140   -1.1760   -0.7060 hc        1 NKO      0.039200
     48 HASA       -7.1330   -0.9850    1.0850 hc        1 NKO      0.039200
     49 HAT        -8.4140    1.1610    0.7720 hc        1 NKO      0.038700
     50 HATA       -8.2950    0.9700   -1.0190 hc        1 NKO      0.038700
     51 HAU        -9.5080   -1.2320   -0.8640 hc        1 NKO      0.039200
     52 HAUA       -9.6260   -1.0410    0.9270 hc        1 NKO      0.039200
     53 HAV       -10.9080    1.1050    0.6130 hc        1 NKO      0.038700
     54 HAVA      -10.7890    0.9130   -1.1780 hc        1 NKO      0.038700
     55 HAW       -12.0020   -1.2890   -1.0230 hc        1 NKO      0.038700
     56 HAWA      -12.1200   -1.0980    0.7680 hc        1 NKO      0.038700
     57 HAX       -13.4020    1.0480    0.4550 hc        1 NKO      0.038700
     58 HAXA      -13.2840    0.8570   -1.3360 hc        1 NKO      0.038700
     59 HAY       -14.4940   -1.3450   -1.1810 hc        1 NKO      0.037700
     60 HAYA      -14.6120   -1.1530    0.6100 hc        1 NKO      0.037700
     61 HAZ       -15.8070    0.7800   -1.4970 hc        1 NKO      0.030700
     62 HAZA      -16.7210   -0.4380   -0.5150 hc        1 NKO      0.030700
     63 HAZB      -15.9260    0.9720    0.2980 hc        1 NKO      0.030700
     64 HOBA        7.7930    1.3720    0.5600 ho        1 NKO      0.507000
@<TRIPOS>BOND
     1    1    3 1   
     2    2    3 1   
     3    3    4 1   
     4    3    6 1   
     5    5   11 2   
     6    6    7 1   
     7    7    8 1   
     8    7   28 1   
     9    7   29 1   
    10    8    9 1   
    11    8   27 1   
    12    8   30 1   
    13    9   10 1   
    14    9   31 1   
    15    9   32 1   
    16   10   11 1   
    17   11   12 1   
    18   12   13 1   
    19   12   33 1   
    20   12   34 1   
    21   13   14 1   
    22   13   35 1   
    23   13   36 1   
    24   14   15 1   
    25   14   37 1   
    26   14   38 1   
    27   15   16 1   
    28   15   39 1   
    29   15   40 1   
    30   16   17 1   
    31   16   41 1   
    32   16   42 1   
    33   17   18 1   
    34   17   43 1   
    35   17   44 1   
    36   18   19 1   
    37   18   45 1   
    38   18   46 1   
    39   19   20 1   
    40   19   47 1   
    41   19   48 1   
    42   20   21 1   
    43   20   49 1   
    44   20   50 1   
    45   21   22 1   
    46   21   51 1   
    47   21   52 1   
    48   22   23 1   
    49   22   53 1   
    50   22   54 1   
    51   23   24 1   
    52   23   55 1   
    53   23   56 1   
    54   24   25 1   
    55   24   57 1   
    56   24   58 1   
    57   25   26 1   
    58   25   59 1   
    59   25   60 1   
    60   26   61 1   
    61   26   62 1   
    62   26   63 1   
    63   27   64 1   
@<TRIPOS>SUBSTRUCTURE
     1 NKO         1 TEMP              0 ****  ****    0 ROOT
