@<TRIPOS>MOLECULE
NKP
   68    66     1     0     0
SMALL
bcc


@<TRIPOS>ATOM
      1 OAA         9.6100    2.3950   -6.1110 o         1 NKP     -0.927833
      2 OAB         9.8460    1.9160   -3.7040 o         1 NKP     -0.927833
      3 PAC         9.3480    2.9170   -4.7180 p5        1 NKP      1.542500
      4 OAD        10.0700    4.2290   -4.5280 o         1 NKP     -0.927833
      5 OAE         4.2160    5.5240    0.0030 o         1 NKP     -0.404000
      6 OAF         7.7950    3.1370   -4.5220 os        1 NKP     -0.722000
      7 CAG         7.3560    3.8580   -3.3940 c3        1 NKP      0.068000
      8 CAH         5.8460    3.9330   -3.3990 c3        1 NKP     -0.029000
      9 CAI         5.3710    4.6280   -2.1430 c3        1 NKP     -0.007000
     10 OAJ         4.0590    4.2130   -1.8450 os        1 NKP     -0.250000
     11 CAK         3.5200    4.8130   -0.6940 c2        1 NKP      0.296000
     12 CAL         2.0660    4.5950   -0.3380 c3        1 NKP     -0.156000
     13 CAM         1.9540    4.2330    1.1270 c3        1 NKP     -0.164000
     14 CAN         0.5660    3.7020    1.4110 c3        1 NKP     -0.151000
     15 CAO         0.5750    2.9430    2.7200 c3        1 NKP     -0.162000
     16 CAP        -0.7310    2.1950    2.8780 c3        1 NKP     -0.155000
     17 CAQ        -0.5400    1.0460    3.8420 c3        1 NKP     -0.159000
     18 CAR        -1.6320    0.0200    3.6260 c3        1 NKP     -0.135000
     19 CAS        -1.1740   -1.3220    4.1550 c2        1 NKP     -0.149000
     20 CAT        -1.9030   -2.4280    3.9060 c1        1 NKP     -0.192000
     21 CAU        -3.1780   -2.3280    3.0990 c2        1 NKP     -0.128000
     22 CAV        -3.5890   -3.7070    2.6320 c3        1 NKP     -0.155000
     23 CAW        -4.6360   -3.5810    1.5470 c3        1 NKP     -0.158000
     24 CAX        -4.7560   -4.8960    0.8080 c3        1 NKP     -0.157000
     25 CAY        -5.3280   -4.6490   -0.5710 c3        1 NKP     -0.158000
     26 CAZ        -5.3550   -5.9470   -1.3460 c3        1 NKP     -0.158000
     27 CBA        -5.4800   -5.6500   -2.8240 c3        1 NKP     -0.159000
     28 CBB        -5.6130   -6.9480   -3.5900 c3        1 NKP     -0.210000
     29 OBC         5.4170    4.6570   -4.5270 oh        1 NKP     -0.391000
     30 HAG         7.7280    4.7630   -3.4200 h1        1 NKP      0.033500
     31 HAGA        7.6570    3.4040   -2.5790 h1        1 NKP      0.033500
     32 HAH         5.4750    3.0290   -3.4320 h1        1 NKP      0.131000
     33 HAI         5.3840    5.5970   -2.2820 h1        1 NKP      0.083500
     34 HAIA        5.9640    4.3960   -1.3980 h1        1 NKP      0.083500
     35 HAL         1.7020    3.8690   -0.8820 hc        1 NKP      0.095500
     36 HALA        1.5620    5.4160   -0.5100 hc        1 NKP      0.095500
     37 HAM         2.6170    3.5470    1.3440 hc        1 NKP      0.111000
     38 HAMA        2.1170    5.0280    1.6730 hc        1 NKP      0.111000
     39 HAN         0.2930    3.1020    0.6880 hc        1 NKP      0.067500
     40 HANA       -0.0620    4.4490    1.4710 hc        1 NKP      0.067500
     41 HAO         1.3170    2.3060    2.7230 hc        1 NKP      0.092000
     42 HAOA        0.6820    3.5720    3.4610 hc        1 NKP      0.092000
     43 HAP        -1.4150    2.8030    3.2250 hc        1 NKP      0.070500
     44 HAPA       -1.0150    1.8480    2.0090 hc        1 NKP      0.070500
     45 HAQ         0.3320    0.6310    3.6870 hc        1 NKP      0.087000
     46 HAQA       -0.5840    1.3800    4.7610 hc        1 NKP      0.087000
     47 HAR        -1.8240   -0.0550    2.6700 hc        1 NKP      0.083500
     48 HARA       -2.4400    0.2990    4.1010 hc        1 NKP      0.083500
     49 HAS        -0.3510   -1.3860    4.6760 ha        1 NKP      0.128000
     50 HAT        -1.6080   -3.2940    4.2470 ha        1 NKP      0.116000
     51 HAU        -3.0280   -1.7520    2.3220 ha        1 NKP      0.085000
     52 HAUA       -3.8870   -1.9470    3.6550 ha        1 NKP      0.085000
     53 HAV        -2.8080   -4.1780    2.2790 hc        1 NKP      0.078500
     54 HAVA       -3.9590   -4.2090    3.3850 hc        1 NKP      0.078500
     55 HAW        -4.3730   -2.8780    0.9200 hc        1 NKP      0.079000
     56 HAWA       -5.4970   -3.3540    1.9500 hc        1 NKP      0.079000
     57 HAX        -5.3480   -5.4960    1.3040 hc        1 NKP      0.077500
     58 HAXA       -3.8720   -5.3060    0.7250 hc        1 NKP      0.077500
     59 HAY        -4.7710   -3.9980   -1.0430 hc        1 NKP      0.078500
     60 HAYA       -6.2380   -4.2990   -0.4880 hc        1 NKP      0.078500
     61 HAZ        -6.1200   -6.4840   -1.0560 hc        1 NKP      0.077500
     62 HAZA       -4.5280   -6.4420   -1.1820 hc        1 NKP      0.077500
     63 HBA        -6.2720   -5.0970   -2.9800 hc        1 NKP      0.077500
     64 HBAA       -4.6830   -5.1720   -3.1290 hc        1 NKP      0.077500
     65 HBB        -6.5060   -7.3230   -3.4440 hc        1 NKP      0.069667
     66 HBBA       -5.4820   -6.7780   -4.5470 hc        1 NKP      0.069667
     67 HBBB       -4.9360   -7.5830   -3.2760 hc        1 NKP      0.069667
     68 HOBC        5.0790    4.0960   -5.1290 ho        1 NKP      0.245000
@<TRIPOS>BOND
     1    1    3 1   
     2    2    3 1   
     3    3    4 1   
     4    3    6 1   
     5    5   11 1   
     6    6    7 1   
     7    7    8 1   
     8    7   30 1   
     9    7   31 1   
    10    8    9 1   
    11    8   29 1   
    12    8   32 1   
    13    9   10 1   
    14    9   33 1   
    15    9   34 1   
    16   10   11 1   
    17   11   12 1   
    18   12   13 1   
    19   12   35 1   
    20   12   36 1   
    21   13   14 1   
    22   13   37 1   
    23   13   38 1   
    24   14   15 1   
    25   14   39 1   
    26   14   40 1   
    27   15   16 1   
    28   15   41 1   
    29   15   42 1   
    30   16   17 1   
    31   16   43 1   
    32   16   44 1   
    33   17   18 1   
    34   17   45 1   
    35   17   46 1   
    36   18   19 1   
    37   18   47 1   
    38   18   48 1   
    39   19   20 1   
    40   19   49 1   
    41   20   50 1   
    42   21   22 1   
    43   21   51 1   
    44   21   52 1   
    45   22   23 1   
    46   22   53 1   
    47   22   54 1   
    48   23   24 1   
    49   23   55 1   
    50   23   56 1   
    51   24   25 1   
    52   24   57 1   
    53   24   58 1   
    54   25   26 1   
    55   25   59 1   
    56   25   60 1   
    57   26   27 1   
    58   26   61 1   
    59   26   62 1   
    60   27   28 1   
    61   27   63 1   
    62   27   64 1   
    63   28   65 1   
    64   28   66 1   
    65   28   67 1   
    66   29   68 1   
@<TRIPOS>SUBSTRUCTURE
     1 NKP         1 TEMP              0 ****  ****    0 ROOT
