@<TRIPOS>MOLECULE
NKP
   68    69     1     0     0
SMALL
bcc


@<TRIPOS>ATOM
      1 OAA         0.0000    0.0000    0.0000 o         1 NKP     -0.664833
      2 OAB         2.1470    1.3150   -0.7590 o         1 NKP     -0.664833
      3 PAC         1.6110    0.0000    0.0000 p5        1 NKP      0.966500
      4 OAD         2.1040    0.0000    1.3950 o         1 NKP     -0.664833
      5 OAE         7.5240   -4.2230   -2.4710 o         1 NKP     -0.414000
      6 OAF         2.1470   -1.3150   -0.7600 os        1 NKP     -0.642000
      7 CAG         3.5320   -1.6570   -0.8380 c3        1 NKP      0.134000
      8 CAH         3.6920   -2.9580   -1.6250 c3        1 NKP      0.042000
      9 CAI         5.1790   -3.2610   -1.8150 c3        1 NKP      0.050000
     10 OAJ         5.3310   -4.4300   -2.6630 os        1 NKP     -0.251000
     11 CAK         6.5850   -4.8300   -2.9300 c2        1 NKP      0.361000
     12 CAL         6.8210   -6.0360   -3.8030 c3        1 NKP     -0.104000
     13 CAM         8.3250   -6.2740   -3.9460 c3        1 NKP     -0.100000
     14 CAN         8.5650   -7.4990   -4.8320 c3        1 NKP     -0.111000
     15 CAO        10.0690   -7.7370   -4.9770 c3        1 NKP     -0.107000
     16 CAP        10.3100   -8.9610   -5.8620 c3        1 NKP     -0.114000
     17 CAQ        11.8140   -9.2000   -6.0060 c3        1 NKP     -0.136000
     18 CAR        12.0530  -10.4240   -6.8920 DU        1 NKP      0.018000
     19 CAS        13.5350  -10.6590   -7.0350 c2        1 NKP     -0.234000
     20 CAT        14.0470  -11.8240   -6.7220 c2        1 NKP     -0.233000
     21 CAU        15.5290  -12.0590   -6.8640 DU        1 NKP      0.019000
     22 CAV        16.0980  -12.5440   -5.5300 c3        1 NKP     -0.137000
     23 CAW        17.6030  -12.7820   -5.6750 c3        1 NKP     -0.114000
     24 CAX        18.1730  -13.2670   -4.3400 c3        1 NKP     -0.109000
     25 CAY        19.6770  -13.5050   -4.4850 c3        1 NKP     -0.109000
     26 CAZ        20.2470  -13.9890   -3.1490 c3        1 NKP     -0.109000
     27 CBA        21.7510  -14.2280   -3.2940 c3        1 NKP     -0.108000
     28 CBB        22.3220  -14.7130   -1.9600 c3        1 NKP     -0.112000
     29 OBC         3.0770   -4.0300   -0.9050 oh        1 NKP     -0.309000
     30 HAG         4.0730   -0.8630   -1.3390 h1        1 NKP      0.020000
     31 HAGA        3.9280   -1.7890    0.1620 h1        1 NKP      0.020000
     32 HAH         3.2170   -2.8550   -2.5930 h1        1 NKP      0.040000
     33 HAI         5.6640   -2.4110   -2.2810 h1        1 NKP      0.055500
     34 HAIA        5.6350   -3.4520   -0.8510 h1        1 NKP      0.055500
     35 HAL         6.3590   -6.9050   -3.3500 hc        1 NKP      0.069000
     36 HALA        6.3880   -5.8650   -4.7810 hc        1 NKP      0.069000
     37 HAM         8.7580   -6.4460   -2.9680 hc        1 NKP      0.067500
     38 HAMA        8.7870   -5.4050   -4.3980 hc        1 NKP      0.067500
     39 HAN         8.1310   -7.3280   -5.8100 hc        1 NKP      0.048500
     40 HANA        8.1040   -8.3680   -4.3790 hc        1 NKP      0.048500
     41 HAO        10.5030   -7.9080   -3.9990 hc        1 NKP      0.055000
     42 HAOA       10.5310   -6.8680   -5.4300 hc        1 NKP      0.055000
     43 HAP         9.8480   -9.8300   -5.4090 hc        1 NKP      0.047000
     44 HAPA        9.8760   -8.7900   -6.8400 hc        1 NKP      0.047000
     45 HAQ        12.2760   -8.3310   -6.4590 hc        1 NKP      0.058500
     46 HAQA       12.2470   -9.3720   -5.0290 hc        1 NKP      0.058500
     47 HAR        11.6190  -10.2530   -7.8700 ha        1 NKP      0.036000
     48 HARA       11.5910  -11.2930   -6.4400 ha        1 NKP      0.036000
     49 HAS        12.7890  -11.0100   -7.7380 DU        1 NKP      0.013000
     50 HAT        14.5470  -12.0210   -7.6620 DU        1 NKP      0.003000
     51 HAU        15.7040  -12.8090   -7.6260 ha        1 NKP      0.033000
     52 HAUA       16.0150  -11.1340   -7.1500 ha        1 NKP      0.033000
     53 HAV        15.6120  -13.4680   -5.2440 hc        1 NKP      0.059000
     54 HAVA       15.9230  -11.7930   -4.7680 hc        1 NKP      0.059000
     55 HAW        18.0890  -11.8570   -5.9600 hc        1 NKP      0.047000
     56 HAWA       17.7780  -13.5320   -6.4360 hc        1 NKP      0.047000
     57 HAX        17.6860  -14.1910   -4.0540 hc        1 NKP      0.054000
     58 HAXA       17.9970  -12.5160   -3.5790 hc        1 NKP      0.054000
     59 HAY        19.8520  -14.2550   -5.2460 hc        1 NKP      0.051000
     60 HAYA       20.1630  -12.5800   -4.7710 hc        1 NKP      0.051000
     61 HAZ        20.0720  -13.2380   -2.3880 hc        1 NKP      0.054000
     62 HAZA       19.7600  -14.9140   -2.8630 hc        1 NKP      0.054000
     63 HBA        21.9260  -14.9790   -4.0550 hc        1 NKP      0.050000
     64 HBAA       22.2380  -13.3040   -3.5800 hc        1 NKP      0.050000
     65 HBB        21.8360  -15.6370   -1.6730 hc        1 NKP      0.037333
     66 HBBA       22.1480  -13.9620   -1.1980 hc        1 NKP      0.037333
     67 HBBB       23.3870  -14.8820   -2.0630 hc        1 NKP      0.037333
     68 HOBC        2.3860   -4.4030   -1.4270 ho        1 NKP      0.176000
@<TRIPOS>BOND
     1    1    3 1   
     2    2    3 1   
     3    3    4 1   
     4    3    6 1   
     5    5   11 1   
     6    6    7 1   
     7    7    8 1   
     8    7   30 1   
     9    7   31 1   
    10    8    9 1   
    11    8   29 1   
    12    8   32 1   
    13    9   10 1   
    14    9   33 1   
    15    9   34 1   
    16   10   11 1   
    17   11   12 1   
    18   12   13 1   
    19   12   35 1   
    20   12   36 1   
    21   13   14 1   
    22   13   37 1   
    23   13   38 1   
    24   14   15 1   
    25   14   39 1   
    26   14   40 1   
    27   15   16 1   
    28   15   41 1   
    29   15   42 1   
    30   16   17 1   
    31   16   43 1   
    32   16   44 1   
    33   17   18 1   
    34   17   45 1   
    35   17   46 1   
    36   18   19 1   
    37   18   47 1   
    38   18   48 1   
    39   18   49 1   
    40   19   20 1   
    41   19   49 1   
    42   20   21 1   
    43   20   50 1   
    44   21   22 1   
    45   21   50 1   
    46   21   51 1   
    47   21   52 1   
    48   22   23 1   
    49   22   53 1   
    50   22   54 1   
    51   23   24 1   
    52   23   55 1   
    53   23   56 1   
    54   24   25 1   
    55   24   57 1   
    56   24   58 1   
    57   25   26 1   
    58   25   59 1   
    59   25   60 1   
    60   26   27 1   
    61   26   61 1   
    62   26   62 1   
    63   27   28 1   
    64   27   63 1   
    65   27   64 1   
    66   28   65 1   
    67   28   66 1   
    68   28   67 1   
    69   29   68 1   
@<TRIPOS>SUBSTRUCTURE
     1 NKP         1 TEMP              0 ****  ****    0 ROOT
