@<TRIPOS>MOLECULE
NKP
   68    67     1     0     0
SMALL
bcc


@<TRIPOS>ATOM
      1 OAA        11.9480   -1.2840    0.5510 o         1 NKP     -0.921167
      2 OAB        10.8880    0.8310    1.5450 o         1 NKP     -0.921167
      3 PAC        10.8850   -0.2310    0.4820 p5        1 NKP      1.319900
      4 OAD        10.4890    0.2550   -0.8950 o         1 NKP     -0.921167
      5 OAE         3.6200    1.3720   -0.0220 o         1 NKP     -0.587000
      6 OAF         9.4240   -1.1050    0.8640 os        1 NKP     -0.559200
      7 CAG         8.3260   -0.3040    1.0000 c3        1 NKP      0.209400
      8 CAH         7.2980   -0.5820   -0.1290 c3        1 NKP      0.120100
      9 CAI         6.0880    0.3450    0.0580 c3        1 NKP      0.122400
     10 OAJ         4.9230   -0.4410   -0.3030 os        1 NKP     -0.418900
     11 CAK         3.7280    0.1810   -0.3430 c         1 NKP      0.624100
     12 CAL         2.6230   -0.7220   -0.8160 c3        1 NKP     -0.136400
     13 CAM         1.3190   -0.4040   -0.1200 c3        1 NKP     -0.077400
     14 CAN         0.1810   -1.2140   -0.7010 c3        1 NKP     -0.078400
     15 CAO        -1.1230   -0.9140    0.0080 c3        1 NKP     -0.078400
     16 CAP        -2.2630   -1.7240   -0.5710 c3        1 NKP     -0.079400
     17 CAQ        -3.5650   -1.4260    0.1400 c3        1 NKP     -0.076400
     18 CAR        -4.7030   -2.2450   -0.4370 c3        1 NKP     -0.051200
     19 CAS        -5.9810   -1.9780    0.2650 c2        1 NKP     -0.157200
     20 CAT        -7.1500   -1.8150   -0.3600 c2        1 NKP     -0.186200
     21 CAU        -8.4340   -1.5880    0.3450 c3        1 NKP     -0.044200
     22 CAV        -9.2260   -0.4610   -0.2890 c3        1 NKP     -0.076400
     23 CAW       -10.5420   -0.2480    0.4270 c3        1 NKP     -0.079400
     24 CAX       -11.3360    0.8750   -0.2050 c3        1 NKP     -0.079400
     25 CAY       -12.6520    1.0890    0.5100 c3        1 NKP     -0.078400
     26 CAZ       -13.4450    2.2130   -0.1220 c3        1 NKP     -0.079400
     27 CBA       -14.7620    2.4290    0.5930 c3        1 NKP     -0.080400
     28 CBB       -15.5550    3.5470   -0.0340 c3        1 NKP     -0.092100
     29 OBC         7.8110   -0.3700   -1.4200 oh        1 NKP     -0.688800
     30 HAG         7.7970   -0.5290    1.9750 h1        1 NKP     -0.005800
     31 HAGA        8.6080    0.7870    0.9790 h1        1 NKP     -0.005800
     32 HAH         6.9520   -1.6530   -0.0710 h1        1 NKP      0.021700
     33 HAI         5.9590    0.6690    1.1210 h1        1 NKP      0.046700
     34 HAIA        6.1420    1.2360   -0.6160 h1        1 NKP      0.046700
     35 HAL         2.5230   -0.5740   -1.9240 hc        1 NKP      0.068700
     36 HALA        2.9160   -1.7900   -0.6400 hc        1 NKP      0.068700
     37 HAM         1.4180   -0.6200    0.9770 hc        1 NKP      0.053200
     38 HAMA        1.1030    0.6930   -0.2200 hc        1 NKP      0.053200
     39 HAN         0.0750   -0.9850   -1.7940 hc        1 NKP      0.036700
     40 HANA        0.4140   -2.3080   -0.6130 hc        1 NKP      0.036700
     41 HAO        -1.0160   -1.1430    1.1010 hc        1 NKP      0.040700
     42 HAOA       -1.3540    0.1800   -0.0790 hc        1 NKP      0.040700
     43 HAP        -2.3700   -1.4940   -1.6640 hc        1 NKP      0.038200
     44 HAPA       -2.0290   -2.8180   -0.4860 hc        1 NKP      0.038200
     45 HAQ        -3.4560   -1.6510    1.2340 hc        1 NKP      0.041200
     46 HAQA       -3.8040   -0.3340    0.0490 hc        1 NKP      0.041200
     47 HAR        -4.8000   -2.0290   -1.5350 hc        1 NKP      0.046200
     48 HARA       -4.4610   -3.3390   -0.3380 hc        1 NKP      0.046200
     49 HAS        -5.9100   -1.9290    1.3650 ha        1 NKP      0.120000
     50 HAT        -7.2190   -1.8510   -1.4600 ha        1 NKP      0.119000
     51 HAU        -9.0400   -2.5350    0.3070 hc        1 NKP      0.042200
     52 HAUA       -8.2570   -1.3550    1.4290 hc        1 NKP      0.042200
     53 HAV        -8.6230    0.4840   -0.2590 hc        1 NKP      0.042700
     54 HAVA       -9.4180   -0.6970   -1.3690 hc        1 NKP      0.042700
     55 HAW       -11.1430   -1.1950    0.4000 hc        1 NKP      0.038200
     56 HAWA      -10.3490   -0.0110    1.5060 hc        1 NKP      0.038200
     57 HAX       -10.7340    1.8220   -0.1780 hc        1 NKP      0.040200
     58 HAXA      -11.5280    0.6380   -1.2850 hc        1 NKP      0.040200
     59 HAY       -13.2540    0.1430    0.4830 hc        1 NKP      0.038200
     60 HAYA      -12.4590    1.3270    1.5900 hc        1 NKP      0.038200
     61 HAZ       -12.8440    3.1600   -0.0950 hc        1 NKP      0.039700
     62 HAZA      -13.6380    1.9760   -1.2020 hc        1 NKP      0.039700
     63 HBA       -15.3610    1.4800    0.5660 hc        1 NKP      0.037700
     64 HBAA      -14.5670    2.6640    1.6720 hc        1 NKP      0.037700
     65 HBB       -16.5210    3.6890    0.5080 hc        1 NKP      0.031033
     66 HBBA      -14.9830    4.5050    0.0060 hc        1 NKP      0.031033
     67 HBBB      -15.7800    3.3190   -1.1030 hc        1 NKP      0.031033
     68 HOBC        8.7930   -0.1970   -1.3290 ho        1 NKP      0.507000
@<TRIPOS>BOND
     1    1    3 1   
     2    2    3 1   
     3    3    4 1   
     4    3    6 1   
     5    5   11 2   
     6    6    7 1   
     7    7    8 1   
     8    7   30 1   
     9    7   31 1   
    10    8    9 1   
    11    8   29 1   
    12    8   32 1   
    13    9   10 1   
    14    9   33 1   
    15    9   34 1   
    16   10   11 1   
    17   11   12 1   
    18   12   13 1   
    19   12   35 1   
    20   12   36 1   
    21   13   14 1   
    22   13   37 1   
    23   13   38 1   
    24   14   15 1   
    25   14   39 1   
    26   14   40 1   
    27   15   16 1   
    28   15   41 1   
    29   15   42 1   
    30   16   17 1   
    31   16   43 1   
    32   16   44 1   
    33   17   18 1   
    34   17   45 1   
    35   17   46 1   
    36   18   19 1   
    37   18   47 1   
    38   18   48 1   
    39   19   20 2   
    40   19   49 1   
    41   20   21 1   
    42   20   50 1   
    43   21   22 1   
    44   21   51 1   
    45   21   52 1   
    46   22   23 1   
    47   22   53 1   
    48   22   54 1   
    49   23   24 1   
    50   23   55 1   
    51   23   56 1   
    52   24   25 1   
    53   24   57 1   
    54   24   58 1   
    55   25   26 1   
    56   25   59 1   
    57   25   60 1   
    58   26   27 1   
    59   26   61 1   
    60   26   62 1   
    61   27   28 1   
    62   27   63 1   
    63   27   64 1   
    64   28   65 1   
    65   28   66 1   
    66   28   67 1   
    67   29   68 1   
@<TRIPOS>SUBSTRUCTURE
     1 NKP         1 TEMP              0 ****  ****    0 ROOT
