@<TRIPOS>MOLECULE
NKQ
   64    60     1     0     0
SMALL
bcc


@<TRIPOS>ATOM
      1 OAA        -8.9850    5.5250    4.2930 o         1 NKQ     -0.929500
      2 OAB        -8.8890    5.2840    6.7380 o         1 NKQ     -0.929500
      3 PAC        -8.1860    4.9750    5.4350 p5        1 NKQ      1.570500
      4 OAD        -8.0490    3.4820    5.2800 o         1 NKQ     -0.929500
      5 OAE        -1.9740    6.2150    1.2840 o         1 NKQ     -0.389000
      6 OAF        -6.7600    5.6320    5.4380 os        1 NKQ     -0.730000
      7 CAG        -6.0240    5.6510    4.2260 c3        1 NKQ      0.049000
      8 CAH        -4.6380    6.1800    4.4890 c3        1 NKQ     -0.037000
      9 CAI        -3.8110    6.1450    3.1830 c3        1 NKQ     -0.013000
     10 OAJ        -2.4660    5.7030    3.4780 os        1 NKQ     -0.283000
     11 CAK        -1.5690    5.8010    2.3750 c2        1 NKQ      0.318000
     12 CAL        -0.1120    5.2740    2.5150 c3        1 NKQ     -0.154000
     13 CAM         0.3070    4.5670    1.2220 c3        1 NKQ     -0.176000
     14 CAN         1.4060    3.5150    1.5430 c3        1 NKQ     -0.140000
     15 CAO         2.0500    3.0330    0.2390 c3        1 NKQ     -0.144000
     16 CAP         2.1660    1.4990    0.2600 c3        1 NKQ     -0.202000
     17 CAQ         3.3280    1.0570   -0.6550 c3        1 NKQ     -0.121000
     18 CAR         3.0620   -0.3760   -1.1730 c3        1 NKQ     -0.170000
     19 CAS         4.2810   -1.2600   -0.8750 c2        1 NKQ     -0.191000
     20 CAT         4.3390   -2.5530   -1.3730 c1        1 NKQ     -0.139000
     21 CAU         3.1880   -3.0980   -2.2220 c2        1 NKQ     -0.126000
     22 CAV         3.1260   -4.6140   -2.0890 c2        1 NKQ     -0.130500
     23 CAW         2.5890   -5.3580   -3.0880 c1        1 NKQ     -0.220500
     24 CAX         2.5240   -6.8570   -2.9580 c2        1 NKQ     -0.126000
     25 CAY         2.1230   -7.4790   -4.3170 c2        1 NKQ     -0.130500
     26 CAZ         1.5390   -8.7210   -4.3580 c1        1 NKQ     -0.220500
     27 CBA         1.1370   -9.3460   -5.7230 c2        1 NKQ     -0.119000
     28 CBB         0.2700  -10.5880   -5.4840 c3        1 NKQ     -0.202000
     29 OBC        -4.7220    7.4990    4.9530 oh        1 NKQ     -0.386000
     30 HAG        -6.4800    6.2320    3.5760 h1        1 NKQ      0.044000
     31 HAGA       -5.9630    4.7410    3.8650 h1        1 NKQ      0.044000
     32 HAH        -4.2070    5.6330    5.1560 h1        1 NKQ      0.122000
     33 HAI        -4.2250    5.5260    2.5500 h1        1 NKQ      0.088500
     34 HAIA       -3.7820    7.0430    2.7900 h1        1 NKQ      0.088500
     35 HAL        -0.0640    4.6420    3.2620 hc        1 NKQ      0.089000
     36 HALA        0.5010    6.0380    2.6880 hc        1 NKQ      0.089000
     37 HAM        -0.4680    4.1200    0.8280 hc        1 NKQ      0.133500
     38 HAMA        0.6590    5.2240    0.5910 hc        1 NKQ      0.133500
     39 HAN         2.0960    3.9240    2.1180 hc        1 NKQ      0.048000
     40 HANA        1.0050    2.7560    2.0070 hc        1 NKQ      0.048000
     41 HAO         1.4990    3.3070   -0.5160 hc        1 NKQ      0.060500
     42 HAOA        2.9370    3.4250    0.1520 hc        1 NKQ      0.060500
     43 HAP         2.3380    1.1970    1.1750 hc        1 NKQ      0.131000
     44 HAPA        1.3370    1.1070   -0.0580 hc        1 NKQ      0.131000
     45 HAQ         3.3960    1.6660   -1.4080 hc        1 NKQ      0.045500
     46 HAQA        4.1650    1.0700   -0.1480 hc        1 NKQ      0.045500
     47 HAR         2.9040   -0.3500   -2.1480 hc        1 NKQ      0.129000
     48 HARA        2.2780   -0.7430   -0.7260 hc        1 NKQ      0.129000
     49 HAS         5.0130   -0.9140   -0.3360 ha        1 NKQ      0.073000
     50 HAT         5.1260   -3.1240   -1.1800 ha        1 NKQ      0.080000
     51 HAU         3.3360   -2.8580   -3.1630 ha        1 NKQ      0.111000
     52 HAV         3.3930   -5.0410   -1.2530 ha        1 NKQ      0.109500
     53 HAW         2.2200   -4.9260   -3.8650 ha        1 NKQ      0.173500
     54 HAX         1.8600   -7.0950   -2.2820 ha        1 NKQ      0.111000
     55 HAXA        3.3990   -7.1980   -2.6890 ha        1 NKQ      0.111000
     56 HAY         2.2650   -6.9780   -5.1460 ha        1 NKQ      0.109500
     57 HAZ         1.3570   -9.2030   -3.5260 ha        1 NKQ      0.173500
     58 HBA         1.9520   -9.6050   -6.2200 ha        1 NKQ      0.078500
     59 HBAA        0.6290   -8.6890   -6.2480 ha        1 NKQ      0.078500
     60 HBB        -0.0110  -10.9670   -6.3560 hc        1 NKQ      0.059667
     61 HBBA        0.7900  -11.2600   -4.9860 hc        1 NKQ      0.059667
     62 HBBB       -0.5240  -10.3380   -4.9650 hc        1 NKQ      0.059667
     63 HOBC       -4.3280    7.5600    5.7390 ho        1 NKQ      0.239000
     64 HAUA        2.3470   -2.7100   -1.9160 ha        1 NKQ      0.111000
@<TRIPOS>BOND
     1    1    3 1   
     2    2    3 1   
     3    3    4 1   
     4    3    6 1   
     5    5   11 1   
     6    6    7 1   
     7    7    8 1   
     8    7   30 1   
     9    7   31 1   
    10    8    9 1   
    11    8   29 1   
    12    8   32 1   
    13    9   10 1   
    14    9   33 1   
    15    9   34 1   
    16   10   11 1   
    17   11   12 1   
    18   12   13 1   
    19   12   35 1   
    20   12   36 1   
    21   13   14 1   
    22   13   37 1   
    23   13   38 1   
    24   14   15 1   
    25   14   39 1   
    26   14   40 1   
    27   15   16 1   
    28   15   41 1   
    29   15   42 1   
    30   16   17 1   
    31   16   43 1   
    32   16   44 1   
    33   17   18 1   
    34   17   45 1   
    35   17   46 1   
    36   18   19 1   
    37   18   47 1   
    38   18   48 1   
    39   19   20 1   
    40   19   49 1   
    41   20   50 1   
    42   21   22 1   
    43   21   51 1   
    44   21   64 1   
    45   22   23 1   
    46   22   52 1   
    47   23   53 1   
    48   24   25 1   
    49   24   54 1   
    50   24   55 1   
    51   25   26 1   
    52   25   56 1   
    53   26   57 1   
    54   27   28 1   
    55   27   58 1   
    56   27   59 1   
    57   28   60 1   
    58   28   61 1   
    59   28   62 1   
    60   29   63 1   
@<TRIPOS>SUBSTRUCTURE
     1 NKQ         1 TEMP              0 ****  ****    0 ROOT
