@<TRIPOS>MOLECULE
NKQ
   64    63     1     0     0
SMALL
bcc


@<TRIPOS>ATOM
      1 OAA        10.1630   -0.0050    0.4960 o         1 NKQ     -0.921167
      2 OAB        11.2440   -2.2000    1.2750 o         1 NKQ     -0.921167
      3 PAC        10.2870   -1.0810    1.5540 p5        1 NKQ      1.319900
      4 OAD        10.1920   -0.5830    2.9680 o         1 NKQ     -0.921167
      5 OAE         3.3380    1.5620    0.9650 o         1 NKQ     -0.586000
      6 OAF         8.7240   -1.8210    1.3360 os        1 NKQ     -0.559200
      7 CAG         7.6800   -1.0100    1.6810 c3        1 NKQ      0.209400
      8 CAH         6.8370   -0.6370    0.4320 c3        1 NKQ      0.120100
      9 CAI         5.6820    0.2790    0.8650 c3        1 NKQ      0.122400
     10 OAJ         4.5390   -0.1130    0.0630 os        1 NKQ     -0.418900
     11 CAK         3.4130    0.6190    0.1670 c         1 NKQ      0.624100
     12 CAL         2.3380    0.1600   -0.7790 c3        1 NKQ     -0.136400
     13 CAM         0.9680    0.2780   -0.1480 c3        1 NKQ     -0.077400
     14 CAN        -0.1200   -0.0550   -1.1460 c3        1 NKQ     -0.078400
     15 CAO        -1.4910    0.0360   -0.5120 c3        1 NKQ     -0.079400
     16 CAP        -2.5810   -0.3050   -1.5060 c3        1 NKQ     -0.079400
     17 CAQ        -3.9510   -0.2220   -0.8690 c3        1 NKQ     -0.076400
     18 CAR        -5.0380   -0.5830   -1.8630 c3        1 NKQ     -0.052200
     19 CAS        -6.3850   -0.5320   -1.2460 c2        1 NKQ     -0.154200
     20 CAT        -7.4600   -0.0290   -1.8590 c2        1 NKQ     -0.186200
     21 CAU        -8.8160   -0.0250   -1.2570 c3        1 NKQ     -0.016000
     22 CAV        -9.5110    1.2770   -1.4170 c2        1 NKQ     -0.161200
     23 CAW       -10.7050    1.5520   -0.8810 c2        1 NKQ     -0.181200
     24 CAX       -11.4720    0.5920   -0.0520 c3        1 NKQ     -0.019000
     25 CAY       -12.8620    1.0240    0.2270 c2        1 NKQ     -0.165200
     26 CAZ       -13.6920    0.3630    1.0420 c2        1 NKQ     -0.180200
     27 CBA       -13.3210   -0.8730    1.7700 c3        1 NKQ     -0.050200
     28 CBB       -14.4750   -1.4550    2.5470 c3        1 NKQ     -0.090100
     29 OBC         7.5720    0.0330   -0.5610 oh        1 NKQ     -0.688800
     30 HAG         6.9810   -1.5530    2.3870 h1        1 NKQ     -0.005800
     31 HAGA        8.0410   -0.0650    2.1770 h1        1 NKQ     -0.005800
     32 HAH         6.4100   -1.5710   -0.0300 h1        1 NKQ      0.021700
     33 HAI         5.4050    0.1360    1.9400 h1        1 NKQ      0.046700
     34 HAIA        5.9100    1.3550    0.6620 h1        1 NKQ      0.046700
     35 HAL         2.4030    0.8020   -1.6970 hc        1 NKQ      0.068700
     36 HALA        2.5410   -0.8990   -1.0880 hc        1 NKQ      0.068700
     37 HAM         0.9010   -0.4150    0.7320 hc        1 NKQ      0.053700
     38 HAMA        0.8280    1.3210    0.2420 hc        1 NKQ      0.053700
     39 HAN        -0.0610    0.6490   -2.0170 hc        1 NKQ      0.037200
     40 HANA        0.0410   -1.0910   -1.5470 hc        1 NKQ      0.037200
     41 HAO        -1.5470   -0.6640    0.3630 hc        1 NKQ      0.040700
     42 HAOA       -1.6540    1.0730   -0.1160 hc        1 NKQ      0.040700
     43 HAP        -2.5270    0.3980   -2.3780 hc        1 NKQ      0.038200
     44 HAPA       -2.4130   -1.3400   -1.9050 hc        1 NKQ      0.038200
     45 HAQ        -4.0000   -0.9160    0.0110 hc        1 NKQ      0.041700
     46 HAQA       -4.1250    0.8160   -0.4820 hc        1 NKQ      0.041700
     47 HAR        -4.9790    0.1060   -2.7480 hc        1 NKQ      0.046700
     48 HARA       -4.8590   -1.6260   -2.2460 hc        1 NKQ      0.046700
     49 HAS        -6.4520   -0.9550   -0.2290 ha        1 NKQ      0.120000
     50 HAT        -7.3920    0.4040   -2.8700 ha        1 NKQ      0.121000
     51 HAU        -9.4320   -0.8310   -1.7520 hc        1 NKQ      0.051200
     52 HAV        -8.9810    2.0360   -2.0160 ha        1 NKQ      0.127000
     53 HAW       -11.1670    2.5410   -1.0360 ha        1 NKQ      0.121000
     54 HAX       -11.4950   -0.4130   -0.5630 hc        1 NKQ      0.056700
     55 HAXA      -10.9270    0.4340    0.9230 hc        1 NKQ      0.056700
     56 HAY       -13.2000    1.9410   -0.2830 ha        1 NKQ      0.121000
     57 HAZ       -14.7180    0.7300    1.2080 ha        1 NKQ      0.119000
     58 HBA       -12.9370   -1.6360    1.0370 hc        1 NKQ      0.047700
     59 HBAA      -12.4710   -0.6470    2.4720 hc        1 NKQ      0.047700
     60 HBB       -14.8480   -0.7260    3.3050 hc        1 NKQ      0.032367
     61 HBBA      -15.3200   -1.7140    1.8640 hc        1 NKQ      0.032367
     62 HBBB      -14.1530   -2.3840    3.0780 hc        1 NKQ      0.032367
     63 HOBC        8.5350    0.0120   -0.2880 ho        1 NKQ      0.507000
     64 HAUA       -8.7670   -0.2870   -0.1630 hc        1 NKQ      0.051200
@<TRIPOS>BOND
     1    1    3 1   
     2    2    3 1   
     3    3    4 1   
     4    3    6 1   
     5    5   11 2   
     6    6    7 1   
     7    7    8 1   
     8    7   30 1   
     9    7   31 1   
    10    8    9 1   
    11    8   29 1   
    12    8   32 1   
    13    9   10 1   
    14    9   33 1   
    15    9   34 1   
    16   10   11 1   
    17   11   12 1   
    18   12   13 1   
    19   12   35 1   
    20   12   36 1   
    21   13   14 1   
    22   13   37 1   
    23   13   38 1   
    24   14   15 1   
    25   14   39 1   
    26   14   40 1   
    27   15   16 1   
    28   15   41 1   
    29   15   42 1   
    30   16   17 1   
    31   16   43 1   
    32   16   44 1   
    33   17   18 1   
    34   17   45 1   
    35   17   46 1   
    36   18   19 1   
    37   18   47 1   
    38   18   48 1   
    39   19   20 2   
    40   19   49 1   
    41   20   21 1   
    42   20   50 1   
    43   21   22 1   
    44   21   51 1   
    45   21   64 1   
    46   22   23 2   
    47   22   52 1   
    48   23   24 1   
    49   23   53 1   
    50   24   25 1   
    51   24   54 1   
    52   24   55 1   
    53   25   26 2   
    54   25   56 1   
    55   26   27 1   
    56   26   57 1   
    57   27   28 1   
    58   27   58 1   
    59   27   59 1   
    60   28   60 1   
    61   28   61 1   
    62   28   62 1   
    63   29   63 1   
@<TRIPOS>SUBSTRUCTURE
     1 NKQ         1 TEMP              0 ****  ****    0 ROOT
