@<TRIPOS>MOLECULE
NKQ
   64    65     1     0     0
SMALL
bcc


@<TRIPOS>ATOM
      1 OAA         0.0000    0.0000    0.0000 o         1 NKQ     -0.667167
      2 OAB         2.1460    1.3140   -0.7590 o         1 NKQ     -0.667167
      3 PAC         1.6100    0.0000    0.0000 p5        1 NKQ      0.967500
      4 OAD         2.1030    0.0000    1.3950 o         1 NKQ     -0.667167
      5 OAE         2.5560   -7.6160   -0.1060 o         1 NKQ     -0.415000
      6 OAF         2.1460   -1.3150   -0.7600 os        1 NKQ     -0.642000
      7 CAG         1.9280   -2.6390   -0.2700 c3        1 NKQ      0.134000
      8 CAH         2.5670   -3.6480   -1.2270 c3        1 NKQ      0.042000
      9 CAI         2.4420   -5.0570   -0.6400 c3        1 NKQ      0.050000
     10 OAJ         3.1510   -5.9980   -1.4890 os        1 NKQ     -0.250000
     11 CAK         3.1390   -7.2860   -1.1120 c2        1 NKQ      0.361000
     12 CAL         3.8530   -8.3210   -1.9440 c3        1 NKQ     -0.104000
     13 CAM         3.6850   -9.6980   -1.2970 c3        1 NKQ     -0.099000
     14 CAN         4.4090  -10.7490   -2.1410 c3        1 NKQ     -0.110000
     15 CAO         4.2420  -12.1260   -1.4960 c3        1 NKQ     -0.107000
     16 CAP         4.9670  -13.1760   -2.3390 c3        1 NKQ     -0.108000
     17 CAQ         4.7980  -14.5530   -1.6940 c3        1 NKQ     -0.137000
     18 CAR         5.5230  -15.6040   -2.5380 DU        1 NKQ      0.007000
     19 CAS         5.3580  -16.9600   -1.9010 c2        1 NKQ     -0.264000
     20 CAT         4.8630  -17.9540   -2.5970 c2        1 NKQ     -0.243000
     21 CAU         4.6980  -19.3090   -1.9620 DU        1 NKQ      0.028000
     22 CAV         3.2670  -19.7600   -2.1030 c2        1 NKQ     -0.154000
     23 CAW         2.9980  -20.9350   -2.6160 c2        1 NKQ     -0.171000
     24 CAX         4.1150  -21.9050   -2.9050 c3        1 NKQ     -0.071000
     25 CAY         3.8220  -23.2220   -2.2350 c2        1 NKQ     -0.127000
     26 CAZ         3.8530  -24.3320   -2.9290 c2        1 NKQ     -0.180000
     27 CBA         4.3450  -24.3160   -4.3530 c3        1 NKQ     -0.085000
     28 CBB         5.4570  -25.3540   -4.5220 c3        1 NKQ     -0.104000
     29 OBC         1.8980   -3.5970   -2.4880 oh        1 NKQ     -0.308000
     30 HAG         2.3760   -2.7390    0.7120 h1        1 NKQ      0.020000
     31 HAGA        0.8640   -2.8290   -0.2030 h1        1 NKQ      0.020000
     32 HAH         3.6140   -3.4040   -1.3630 h1        1 NKQ      0.039000
     33 HAI         2.8710   -5.0730    0.3540 h1        1 NKQ      0.055500
     34 HAIA        1.3960   -5.3340   -0.5870 h1        1 NKQ      0.055500
     35 HAL         4.9060   -8.0740   -2.0010 hc        1 NKQ      0.069500
     36 HALA        3.4310   -8.3360   -2.9410 hc        1 NKQ      0.069500
     37 HAM         4.1070   -9.6820   -0.3000 hc        1 NKQ      0.067500
     38 HAMA        2.6310   -9.9440   -1.2400 hc        1 NKQ      0.067500
     39 HAN         3.9870  -10.7640   -3.1390 hc        1 NKQ      0.050000
     40 HANA        5.4630  -10.5020   -2.1990 hc        1 NKQ      0.050000
     41 HAO         3.1890  -12.3720   -1.4400 hc        1 NKQ      0.054500
     42 HAOA        4.6630  -12.1100   -0.4980 hc        1 NKQ      0.054500
     43 HAP         4.5460  -13.1910   -3.3370 hc        1 NKQ      0.051500
     44 HAPA        6.0200  -12.9290   -2.3960 hc        1 NKQ      0.051500
     45 HAQ         3.7450  -14.7990   -1.6370 hc        1 NKQ      0.058000
     46 HAQA        5.2200  -14.5380   -0.6960 hc        1 NKQ      0.058000
     47 HAR         6.5760  -15.3580   -2.5950 ha        1 NKQ      0.038000
     48 HARA        5.1010  -15.6190   -3.5360 ha        1 NKQ      0.038000
     49 HAS         4.5500  -16.2560   -2.0590 DU        1 NKQ      0.039000
     50 HAT         4.0590  -18.2190   -1.9210 DU        1 NKQ      0.020000
     51 HAU         4.9550  -19.2490   -0.9110 ha        1 NKQ      0.046500
     52 HAV         2.4630  -19.1300   -1.7410 ha        1 NKQ      0.103000
     53 HAW         1.9760  -21.1980   -2.8610 ha        1 NKQ      0.096000
     54 HAX         5.0470  -21.5050   -2.5240 hc        1 NKQ      0.082000
     55 HAXA        4.1960  -22.0530   -3.9750 hc        1 NKQ      0.082000
     56 HAY         3.5940  -23.2520   -1.1760 ha        1 NKQ      0.099000
     57 HAZ         3.4850  -25.2530   -2.4940 ha        1 NKQ      0.097000
     58 HBA         4.7310  -23.3320   -4.5910 hc        1 NKQ      0.064000
     59 HBAA        3.5260  -24.5530   -5.0210 hc        1 NKQ      0.064000
     60 HBB         5.0460  -26.3470   -4.3910 hc        1 NKQ      0.036667
     61 HBBA        6.2270  -25.1810   -3.7800 hc        1 NKQ      0.036667
     62 HBBB        5.8840  -25.2670   -5.5130 hc        1 NKQ      0.036667
     63 HOBC        2.5120   -3.3510   -3.1600 ho        1 NKQ      0.176000
     64 HAUA        5.3510  -20.0210   -2.4530 ha        1 NKQ      0.046500
@<TRIPOS>BOND
     1    1    3 1   
     2    2    3 1   
     3    3    4 1   
     4    3    6 1   
     5    5   11 1   
     6    6    7 1   
     7    7    8 1   
     8    7   30 1   
     9    7   31 1   
    10    8    9 1   
    11    8   29 1   
    12    8   32 1   
    13    9   10 1   
    14    9   33 1   
    15    9   34 1   
    16   10   11 1   
    17   11   12 1   
    18   12   13 1   
    19   12   35 1   
    20   12   36 1   
    21   13   14 1   
    22   13   37 1   
    23   13   38 1   
    24   14   15 1   
    25   14   39 1   
    26   14   40 1   
    27   15   16 1   
    28   15   41 1   
    29   15   42 1   
    30   16   17 1   
    31   16   43 1   
    32   16   44 1   
    33   17   18 1   
    34   17   45 1   
    35   17   46 1   
    36   18   19 1   
    37   18   47 1   
    38   18   48 1   
    39   18   49 1   
    40   19   20 1   
    41   19   49 1   
    42   20   21 1   
    43   20   50 1   
    44   21   22 1   
    45   21   50 1   
    46   21   51 1   
    47   21   64 1   
    48   22   23 1   
    49   22   52 1   
    50   23   24 1   
    51   23   53 1   
    52   24   25 1   
    53   24   54 1   
    54   24   55 1   
    55   25   26 1   
    56   25   56 1   
    57   26   27 1   
    58   26   57 1   
    59   27   28 1   
    60   27   58 1   
    61   27   59 1   
    62   28   60 1   
    63   28   61 1   
    64   28   62 1   
    65   29   63 1   
@<TRIPOS>SUBSTRUCTURE
     1 NKQ         1 TEMP              0 ****  ****    0 ROOT
