@<TRIPOS>MOLECULE
NKR
   70    69     1     0     0
SMALL
bcc


@<TRIPOS>ATOM
      1 OAA         0.0000    0.0000    0.0000 o         1 NKR     -0.753833
      2 OAB         2.1470    1.3150   -0.7590 o         1 NKR     -0.753833
      3 PAC         1.6100    0.0000    0.0000 p5        1 NKR      0.668900
      4 OAD         2.1030    0.0000    1.3950 o         1 NKR     -0.753833
      5 OAE         7.5250   -4.2230   -2.4670 o         1 NKR     -0.610000
      6 OAF         2.1480   -1.3150   -0.7590 os        1 NKR     -0.471200
      7 CAG         3.5320   -1.6570   -0.8360 c3        1 NKR      0.280400
      8 CAH         3.6930   -2.9580   -1.6240 c3        1 NKR      0.149100
      9 CAI         5.1810   -3.2600   -1.8130 c3        1 NKR      0.197400
     10 OAJ         5.3330   -4.4290   -2.6610 os        1 NKR     -0.408900
     11 CAK         6.5870   -4.8290   -2.9270 c         1 NKR      0.689100
     12 CAL         6.8240   -6.0350   -3.7990 c3        1 NKR     -0.073400
     13 CAM         8.3280   -6.2740   -3.9420 c3        1 NKR      0.002800
     14 CAN         8.5650   -7.4790   -4.8150 c2        1 NKR     -0.146200
     15 CAO         9.3660   -7.3940   -5.8480 c2        1 NKR     -0.170200
     16 CAP        10.1770   -6.1440   -6.0690 c3        1 NKR      0.036000
     17 CAQ        11.6320   -6.5070   -6.2150 c2        1 NKR     -0.135200
     18 CAR        12.3000   -6.1270   -7.2770 c2        1 NKR     -0.178200
     19 CAS        13.7550   -6.4920   -7.4220 c3        1 NKR      0.063000
     20 CAT        13.9640   -7.2100   -8.7300 c2        1 NKR     -0.142200
     21 CAU        14.8510   -6.7670   -9.5870 c2        1 NKR     -0.171200
     22 CAV        15.0590   -7.4860  -10.8950 c3        1 NKR      0.042000
     23 CAW        14.8870   -6.5160  -12.0340 c2        1 NKR     -0.141200
     24 CAX        15.8190   -6.4080  -12.9490 c2        1 NKR     -0.164200
     25 CAY        16.9830   -7.3640  -12.9560 c3        1 NKR      0.020000
     26 CAZ        17.1010   -8.0020  -14.3160 c2        1 NKR     -0.144200
     27 CBA        18.2410   -7.9630  -14.9610 c2        1 NKR     -0.161200
     28 CBB        19.4770   -7.4400  -14.2760 c3        1 NKR      0.019000
     29 CBC        20.5830   -8.4570  -14.3890 c2        1 NKR     -0.145200
     30 CBD        21.7470   -8.1080  -14.8780 c2        1 NKR     -0.166200
     31 CBE        22.0350   -6.6590  -15.1750 c3        1 NKR     -0.003200
     32 CBF        23.3440   -6.2500  -14.4960 c3        1 NKR      0.013900
     33 OBG         3.0780   -4.0300   -0.9040 oh        1 NKR     -0.583800
     34 HAG         4.0730   -0.8630   -1.3360 h1        1 NKR     -0.022800
     35 HAGA        3.9280   -1.7890    0.1640 h1        1 NKR     -0.022800
     36 HAH         3.2190   -2.8550   -2.5930 h1        1 NKR     -0.001300
     37 HAI         5.6650   -2.4100   -2.2800 h1        1 NKR      0.016200
     38 HAIA        5.6360   -3.4500   -0.8490 h1        1 NKR      0.016200
     39 HAL         6.3900   -5.8640   -4.7770 hc        1 NKR      0.030700
     40 HALA        6.3610   -6.9040   -3.3470 hc        1 NKR      0.030700
     41 HAM         8.7900   -5.4050   -4.3940 hc        1 NKR      0.040700
     42 HAMA        8.7610   -6.4450   -2.9640 hc        1 NKR      0.040700
     43 HAN         7.9830   -8.3790   -4.6570 ha        1 NKR      0.097000
     44 HAO         9.5340   -8.2620   -6.4730 ha        1 NKR      0.095000
     45 HAP        10.0550   -5.4790   -5.2230 hc        1 NKR      0.037700
     46 HAPA        9.8370   -5.6480   -6.9700 hc        1 NKR      0.037700
     47 HAQ        12.1320   -7.0630   -5.4320 ha        1 NKR      0.103000
     48 HAR        11.8170   -5.5160   -8.0300 ha        1 NKR      0.110000
     49 HAS        14.3560   -5.5910   -7.4050 hc        1 NKR      0.017700
     50 HASA       14.0490   -7.1380   -6.6040 hc        1 NKR      0.017700
     51 HAT        13.4160   -8.1210   -8.9410 ha        1 NKR      0.105000
     52 HAU        15.4660   -5.9120   -9.3350 ha        1 NKR      0.108000
     53 HAV        14.3330   -8.2840  -10.9880 hc        1 NKR      0.025700
     54 HAVA       16.0590   -7.9020  -10.9230 hc        1 NKR      0.025700
     55 HAW        13.9780   -5.9320  -12.1150 ha        1 NKR      0.108000
     56 HAX        15.7660   -5.6150  -13.6860 ha        1 NKR      0.104000
     57 HAY        17.8950   -6.8250  -12.7290 hc        1 NKR      0.037200
     58 HAYA       16.8230   -8.1330  -12.2100 hc        1 NKR      0.037200
     59 HAZ        16.2500   -8.5100  -14.7520 ha        1 NKR      0.104000
     60 HBA        18.2890   -8.2780  -15.9970 ha        1 NKR      0.102000
     61 HBB        19.7870   -6.5150  -14.7470 hc        1 NKR      0.038200
     62 HBBA       19.2600   -7.2570  -13.2300 hc        1 NKR      0.038200
     63 HBC        20.4240   -9.4710  -14.0410 ha        1 NKR      0.103000
     64 HBD        22.4880   -8.8650  -15.1040 ha        1 NKR      0.101000
     65 HBE        22.1250   -6.5210  -16.2460 hc        1 NKR      0.023700
     66 HBEA       21.2250   -6.0460  -14.7990 hc        1 NKR      0.023700
     67 HBF        23.2950   -6.4920  -13.4410 hc        1 NKR     -0.000300
     68 HBFA       24.1690   -6.7840  -14.9510 hc        1 NKR     -0.000300
     69 HBFB       23.4950   -5.1840  -14.6150 hc        1 NKR     -0.000300
     70 HOBG        2.3870   -4.4030   -1.4260 ho        1 NKR      0.373000
@<TRIPOS>BOND
     1    1    3 1   
     2    2    3 1   
     3    3    4 1   
     4    3    6 1   
     5    5   11 2   
     6    6    7 1   
     7    7    8 1   
     8    7   34 1   
     9    7   35 1   
    10    8    9 1   
    11    8   33 1   
    12    8   36 1   
    13    9   10 1   
    14    9   37 1   
    15    9   38 1   
    16   10   11 1   
    17   11   12 1   
    18   12   13 1   
    19   12   39 1   
    20   12   40 1   
    21   13   14 1   
    22   13   41 1   
    23   13   42 1   
    24   14   15 2   
    25   14   43 1   
    26   15   16 1   
    27   15   44 1   
    28   16   17 1   
    29   16   45 1   
    30   16   46 1   
    31   17   18 2   
    32   17   47 1   
    33   18   19 1   
    34   18   48 1   
    35   19   20 1   
    36   19   49 1   
    37   19   50 1   
    38   20   21 2   
    39   20   51 1   
    40   21   22 1   
    41   21   52 1   
    42   22   23 1   
    43   22   53 1   
    44   22   54 1   
    45   23   24 2   
    46   23   55 1   
    47   24   25 1   
    48   24   56 1   
    49   25   26 1   
    50   25   57 1   
    51   25   58 1   
    52   26   27 2   
    53   26   59 1   
    54   27   28 1   
    55   27   60 1   
    56   28   29 1   
    57   28   61 1   
    58   28   62 1   
    59   29   30 2   
    60   29   63 1   
    61   30   31 1   
    62   30   64 1   
    63   31   32 1   
    64   31   65 1   
    65   31   66 1   
    66   32   67 1   
    67   32   68 1   
    68   32   69 1   
    69   33   70 1   
@<TRIPOS>SUBSTRUCTURE
     1 NKR         1 TEMP              0 ****  ****    0 ROOT
