@<TRIPOS>MOLECULE
NKR
   70    69     1     0     0
SMALL
bcc


@<TRIPOS>ATOM
      1 OAA        10.8000    4.5740   -2.8510 o         1 NKR     -0.920500
      2 OAB        10.0070    2.3050   -3.7530 o         1 NKR     -0.920500
      3 PAC        10.1300    3.2580   -2.5970 p5        1 NKR      1.319900
      4 OAD        10.3970    2.5980   -1.2610 o         1 NKR     -0.920500
      5 OAE         4.2350   -0.4260    0.0810 o         1 NKR     -0.587000
      6 OAF         8.4640    3.6960   -2.3250 os        1 NKR     -0.558200
      7 CAG         7.6270    2.6240   -2.2110 c3        1 NKR      0.209400
      8 CAH         7.0480    2.5260   -0.7750 c3        1 NKR      0.121100
      9 CAI         6.1310    1.2960   -0.6910 c3        1 NKR      0.122400
     10 OAJ         5.0340    1.6760    0.1800 os        1 NKR     -0.418900
     11 CAK         4.1520    0.7220    0.5360 c         1 NKR      0.623100
     12 CAL         3.1240    1.2290    1.5100 c3        1 NKR     -0.136400
     13 CAM         1.9460    0.2850    1.6040 c3        1 NKR     -0.054200
     14 CAN         0.9640    0.7140    2.6260 c2        1 NKR     -0.149200
     15 CAO        -0.1490    0.0320    2.9220 c2        1 NKR     -0.198200
     16 CAP        -0.5300   -1.2360    2.2530 c3        1 NKR     -0.020000
     17 CAQ        -1.7700   -1.8280    2.8130 c2        1 NKR     -0.147200
     18 CAR        -2.7380   -2.3590    2.0620 c2        1 NKR     -0.190200
     19 CAS        -3.9540   -2.9960    2.6280 c3        1 NKR     -0.015000
     20 CAT        -5.1910   -2.5330    1.9490 c2        1 NKR     -0.151200
     21 CAU        -6.2500   -3.3180    1.7370 c2        1 NKR     -0.186200
     22 CAV        -7.5060   -2.8410    1.1070 c3        1 NKR     -0.016000
     23 CAW        -8.0510   -3.8000    0.1150 c2        1 NKR     -0.161200
     24 CAX        -9.0970   -3.5370   -0.6760 c2        1 NKR     -0.179200
     25 CAY        -9.8290   -2.2480   -0.6700 c3        1 NKR     -0.020000
     26 CAZ       -11.1310   -2.3020   -1.3770 c2        1 NKR     -0.167200
     27 CBA       -11.8650   -1.2210   -1.6640 c2        1 NKR     -0.174200
     28 CBB       -11.4540    0.1630   -1.3280 c3        1 NKR     -0.020000
     29 CBC       -12.5230    1.1690   -1.5370 c2        1 NKR     -0.172200
     30 CBD       -12.3230    2.4890   -1.4520 c2        1 NKR     -0.174200
     31 CBE       -11.0100    3.1070   -1.1510 c3        1 NKR     -0.052200
     32 CBF       -11.0980    4.6040   -0.9960 c3        1 NKR     -0.090100
     33 OBG         8.0320    2.4020    0.2200 oh        1 NKR     -0.688800
     34 HAG         6.7400    2.7450   -2.9050 h1        1 NKR     -0.005800
     35 HAGA        8.1570    1.6600   -2.4600 h1        1 NKR     -0.005800
     36 HAH         6.4440    3.4490   -0.5460 h1        1 NKR      0.021700
     37 HAI         5.6930    1.0230   -1.6830 h1        1 NKR      0.047200
     38 HAIA        6.6580    0.4180   -0.2420 h1        1 NKR      0.047200
     39 HAL         3.6270    1.3340    2.5090 hc        1 NKR      0.072200
     40 HALA        2.7920    2.2510    1.1900 hc        1 NKR      0.072200
     41 HAM         1.4420    0.2160    0.6000 hc        1 NKR      0.064200
     42 HAMA        2.3190   -0.7510    1.8390 hc        1 NKR      0.064200
     43 HAN         1.1940    1.6540    3.1540 ha        1 NKR      0.122000
     44 HAO        -0.8430    0.4030    3.6920 ha        1 NKR      0.113000
     45 HAP        -0.6380   -1.0540    1.1470 hc        1 NKR      0.061200
     46 HAPA        0.3080   -1.9830    2.3700 hc        1 NKR      0.061200
     47 HAQ        -1.8400   -1.8170    3.9130 ha        1 NKR      0.116000
     48 HAR        -2.6750   -2.3630    0.9620 ha        1 NKR      0.127000
     49 HAS        -3.8520   -4.1130    2.5350 hc        1 NKR      0.049200
     50 HASA       -4.0440   -2.7670    3.7270 hc        1 NKR      0.049200
     51 HAT        -5.1880   -1.4750    1.6350 ha        1 NKR      0.127000
     52 HAU        -6.2470   -4.3780    2.0400 ha        1 NKR      0.119000
     53 HAV        -8.2750   -2.6790    1.9170 hc        1 NKR      0.052200
     54 HAVA       -7.3460   -1.8420    0.6130 hc        1 NKR      0.052200
     55 HAW        -7.5370   -4.7730    0.0510 ha        1 NKR      0.126000
     56 HAX        -9.4520   -4.2930   -1.3950 ha        1 NKR      0.121000
     57 HAY       -10.0040   -1.9150    0.3940 hc        1 NKR      0.056700
     58 HAYA       -9.1770   -1.4570   -1.1430 hc        1 NKR      0.056700
     59 HAZ       -11.4880   -3.3050   -1.6610 ha        1 NKR      0.122000
     60 HBA       -12.8290   -1.3290   -2.1880 ha        1 NKR      0.120000
     61 HBB       -11.1160    0.2050   -0.2520 hc        1 NKR      0.058200
     62 HBBA      -10.5530    0.4390   -1.9490 hc        1 NKR      0.058200
     63 HBC       -13.5260    0.7730   -1.7670 ha        1 NKR      0.119000
     64 HBD       -13.1590    3.1890   -1.6110 ha        1 NKR      0.120000
     65 HBE       -10.5910    2.6550   -0.2100 hc        1 NKR      0.049200
     66 HBEA      -10.2870    2.8570   -1.9770 hc        1 NKR      0.049200
     67 HBF       -11.7890    4.8750   -0.1620 hc        1 NKR      0.034033
     68 HBFA      -10.0890    5.0270   -0.7700 hc        1 NKR      0.034033
     69 HBFB      -11.4770    5.0770   -1.9340 hc        1 NKR      0.034033
     70 HOBG        8.9220    2.5230   -0.2200 ho        1 NKR      0.508000
@<TRIPOS>BOND
     1    1    3 1   
     2    2    3 1   
     3    3    4 1   
     4    3    6 1   
     5    5   11 2   
     6    6    7 1   
     7    7    8 1   
     8    7   34 1   
     9    7   35 1   
    10    8    9 1   
    11    8   33 1   
    12    8   36 1   
    13    9   10 1   
    14    9   37 1   
    15    9   38 1   
    16   10   11 1   
    17   11   12 1   
    18   12   13 1   
    19   12   39 1   
    20   12   40 1   
    21   13   14 1   
    22   13   41 1   
    23   13   42 1   
    24   14   15 2   
    25   14   43 1   
    26   15   16 1   
    27   15   44 1   
    28   16   17 1   
    29   16   45 1   
    30   16   46 1   
    31   17   18 2   
    32   17   47 1   
    33   18   19 1   
    34   18   48 1   
    35   19   20 1   
    36   19   49 1   
    37   19   50 1   
    38   20   21 2   
    39   20   51 1   
    40   21   22 1   
    41   21   52 1   
    42   22   23 1   
    43   22   53 1   
    44   22   54 1   
    45   23   24 2   
    46   23   55 1   
    47   24   25 1   
    48   24   56 1   
    49   25   26 1   
    50   25   57 1   
    51   25   58 1   
    52   26   27 2   
    53   26   59 1   
    54   27   28 1   
    55   27   60 1   
    56   28   29 1   
    57   28   61 1   
    58   28   62 1   
    59   29   30 2   
    60   29   63 1   
    61   30   31 1   
    62   30   64 1   
    63   31   32 1   
    64   31   65 1   
    65   31   66 1   
    66   32   67 1   
    67   32   68 1   
    68   32   69 1   
    69   33   70 1   
@<TRIPOS>SUBSTRUCTURE
     1 NKR         1 TEMP              0 ****  ****    0 ROOT
