@<TRIPOS>MOLECULE
NKR
   70    63     1     0     0
SMALL
bcc


@<TRIPOS>ATOM
      1 OAA        -2.8740    5.5930   13.2790 o         1 NKR     -0.928833
      2 OAB        -1.7950    3.5070   14.0610 o         1 NKR     -0.928833
      3 PAC        -3.1160    4.1570   13.6930 p5        1 NKR      1.546500
      4 OAD        -4.0410    4.1260   14.8870 o         1 NKR     -0.928833
      5 OAE        -2.0440    0.9390    6.8990 o         1 NKR     -0.391000
      6 OAF        -3.7730    3.3710   12.5000 os        1 NKR     -0.728000
      7 CAG        -3.0300    3.2120   11.3100 c3        1 NKR      0.020000
      8 CAH        -3.9150    2.6390   10.2360 c3        1 NKR      0.009000
      9 CAI        -3.0610    2.1600    9.0740 c3        1 NKR     -0.020000
     10 OAJ        -3.9060    1.5580    8.0780 os        1 NKR     -0.263000
     11 CAK        -3.2210    1.2010    6.8700 c2        1 NKR      0.297000
     12 CAL        -4.0040    1.0720    5.5560 c3        1 NKR     -0.163000
     13 CAM        -3.2060    0.2170    4.5690 c3        1 NKR     -0.137000
     14 CAN        -4.1510   -0.3530    3.5100 c2        1 NKR     -0.147000
     15 CAO        -3.6280   -0.9980    2.3680 c1        1 NKR     -0.190000
     16 CAP        -2.1010   -1.1300    2.1880 c2        1 NKR     -0.104000
     17 CAQ        -1.7890   -1.6380    0.7510 c2        1 NKR     -0.152000
     18 CAR        -0.6000   -2.2350    0.4870 c1        1 NKR     -0.175400
     19 CAS        -0.2910   -2.7370   -0.9250 c2        1 NKR     -0.104000
     20 CAT         1.2130   -2.8610   -1.1000 c2        1 NKR     -0.152000
     21 CAU         1.7390   -3.0260   -2.3370 c1        1 NKR     -0.175400
     22 CAV         3.2480   -3.1500   -2.5110 c2        1 NKR     -0.104000
     23 CAW         3.5970   -3.2350   -4.0370 c2        1 NKR     -0.152000
     24 CAX         4.4400   -2.3100   -4.6000 c1        1 NKR     -0.175400
     25 CAY         4.7830   -2.3950   -6.0980 c2        1 NKR     -0.104000
     26 CAZ         4.4040   -1.0670   -6.7860 c2        1 NKR     -0.152000
     27 CBA         4.5130   -0.9430   -8.1580 c1        1 NKR     -0.175400
     28 CBB         4.1290    0.3920   -8.8470 c2        1 NKR     -0.104000
     29 CBC         4.1320    0.2030  -10.3490 c2        1 NKR     -0.152000
     30 CBD         3.2700    0.9220  -11.1270 c1        1 NKR     -0.175400
     31 CBE         3.2700    0.7280  -12.6610 c2        1 NKR     -0.130000
     32 CBF         2.0590    1.4460  -13.2700 c3        1 NKR     -0.207000
     33 OBG        -4.6540    1.5470   10.7630 oh        1 NKR     -0.388000
     34 HAG        -2.2810    2.6050   11.4740 h1        1 NKR      0.064000
     35 HAGA       -2.6900    4.0740   11.0230 h1        1 NKR      0.064000
     36 HAH        -4.5310    3.3260    9.9230 h1        1 NKR      0.069000
     37 HAI        -2.4050    1.4910    9.3990 h1        1 NKR      0.095500
     38 HAIA       -2.5870    2.9160    8.6850 h1        1 NKR      0.095500
     39 HAL        -4.8660    0.6470    5.7320 hc        1 NKR      0.112000
     40 HALA       -4.1530    1.9730    5.1700 hc        1 NKR      0.112000
     41 HAM        -2.7770   -0.5100    5.0450 hc        1 NKR      0.104500
     42 HAMA       -2.5360    0.7600    4.1420 hc        1 NKR      0.104500
     43 HAN        -5.1250   -0.2700    3.6240 ha        1 NKR      0.121000
     44 HAO        -4.2390   -1.3670    1.6850 ha        1 NKR      0.113000
     45 HAP        -1.6770   -0.2540    2.3250 ha        1 NKR      0.092800
     46 HAPA       -1.7500   -1.7670    2.8410 ha        1 NKR      0.092800
     47 HAQ        -2.4550   -1.5420    0.0420 ha        1 NKR      0.121000
     48 HAR         0.0550   -2.3470    1.1960 ha        1 NKR      0.122000
     49 HAS        -0.6450   -2.1020   -1.5820 ha        1 NKR      0.092800
     50 HASA       -0.7120   -3.6210   -1.0610 ha        1 NKR      0.092800
     51 HAT         1.7980   -2.7620   -0.3340 ha        1 NKR      0.121000
     52 HAU         1.1580   -2.9910   -3.1250 ha        1 NKR      0.122000
     53 HAV         3.6880   -2.3650   -2.1180 ha        1 NKR      0.092800
     54 HAVA        3.5630   -3.9620   -2.0580 ha        1 NKR      0.092800
     55 HAW         3.1940   -3.9400   -4.5960 ha        1 NKR      0.121000
     56 HAX         4.7520   -1.5490   -4.0720 ha        1 NKR      0.122000
     57 HAY         4.2870   -3.1220   -6.5020 ha        1 NKR      0.092800
     58 HAYA        5.7520   -2.5580   -6.2050 ha        1 NKR      0.092800
     59 HAZ         4.0720   -0.3150   -6.2490 ha        1 NKR      0.121000
     60 HBA         4.8570   -1.6860   -8.6900 ha        1 NKR      0.122000
     61 HBB         3.2410    0.6620   -8.5570 ha        1 NKR      0.092800
     62 HBBA        4.7700    1.0770   -8.6050 ha        1 NKR      0.092800
     63 HBC         4.7990   -0.3600  -10.7610 ha        1 NKR      0.121000
     64 HBD         2.6360    1.5460  -10.7120 ha        1 NKR      0.122000
     65 HBE         4.0960    1.1020  -13.0380 ha        1 NKR      0.082000
     66 HBEA        3.2200   -0.2360  -12.8700 ha        1 NKR      0.082000
     67 HBF         1.2350    1.0050  -12.9750 hc        1 NKR      0.073000
     68 HBFA        2.1160    1.4090  -14.2500 hc        1 NKR      0.073000
     69 HBFB        2.0520    2.3820  -12.9770 hc        1 NKR      0.073000
     70 HOBG       -5.5120    1.7410   10.7560 ho        1 NKR      0.255000
@<TRIPOS>BOND
     1    1    3 1   
     2    2    3 1   
     3    3    4 1   
     4    3    6 1   
     5    5   11 1   
     6    6    7 1   
     7    7    8 1   
     8    7   34 1   
     9    7   35 1   
    10    8    9 1   
    11    8   33 1   
    12    8   36 1   
    13    9   10 1   
    14    9   37 1   
    15    9   38 1   
    16   10   11 1   
    17   11   12 1   
    18   12   13 1   
    19   12   39 1   
    20   12   40 1   
    21   13   14 1   
    22   13   41 1   
    23   13   42 1   
    24   14   15 1   
    25   14   43 1   
    26   15   44 1   
    27   16   17 1   
    28   16   45 1   
    29   16   46 1   
    30   17   18 1   
    31   17   47 1   
    32   18   48 1   
    33   19   20 1   
    34   19   49 1   
    35   19   50 1   
    36   20   21 1   
    37   20   51 1   
    38   21   52 1   
    39   22   23 1   
    40   22   53 1   
    41   22   54 1   
    42   23   24 1   
    43   23   55 1   
    44   24   56 1   
    45   25   26 1   
    46   25   57 1   
    47   25   58 1   
    48   26   27 1   
    49   26   59 1   
    50   27   60 1   
    51   28   29 1   
    52   28   61 1   
    53   28   62 1   
    54   29   30 1   
    55   29   63 1   
    56   30   64 1   
    57   31   32 1   
    58   31   65 1   
    59   31   66 1   
    60   32   67 1   
    61   32   68 1   
    62   32   69 1   
    63   33   70 1   
@<TRIPOS>SUBSTRUCTURE
     1 NKR         1 TEMP              0 ****  ****    0 ROOT
