@<TRIPOS>MOLECULE
NKS
   61    64     1     0     0
SMALL
bcc


@<TRIPOS>ATOM
      1 C1         10.8010   -0.6660   -0.4430 c3        1 NKS     -0.042800
      2 C2          9.3400   -0.5790   -0.2180 ca        1 NKS     -0.111300
      3 C3          8.6030    0.4820   -0.7540 ca        1 NKS     -0.119000
      4 C4          7.2320    0.5840   -0.5320 ca        1 NKS     -0.141000
      5 C5          6.5920   -0.3970    0.2340 ca        1 NKS      0.145100
      6 C6          7.3130   -1.4780    0.7700 ca        1 NKS     -0.141000
      7 C7          8.6830   -1.5540    0.5430 ca        1 NKS     -0.119000
      8 O8          5.2610   -0.3260    0.6140 os        1 NKS     -0.364200
      9 C9          4.3110    0.0900   -0.3310 c         1 NKS      0.730100
     10 O10         4.6830    0.1950   -1.5140 o         1 NKS     -0.612000
     11 N11         3.0840    0.3890    0.2200 n         1 NKS     -0.385800
     12 C12         1.9770    0.5880   -0.6950 c3        1 NKS      0.122300
     13 C13         1.2460   -0.6650   -1.0970 ca        1 NKS     -0.084300
     14 C14         1.6470   -1.3970   -2.2180 ca        1 NKS     -0.155000
     15 C15         0.9610   -2.5590   -2.5700 ca        1 NKS     -0.123000
     16 C16        -0.1030   -3.0180   -1.8000 ca        1 NKS     -0.164000
     17 C17        -0.4900   -2.2850   -0.6620 ca        1 NKS      0.122100
     18 C18         0.1600   -1.0920   -0.3300 ca        1 NKS     -0.162000
     19 O19        -1.5170   -2.8510    0.0700 os        1 NKS     -0.325900
     20 C20        -1.8660   -2.2280    1.3070 c3        1 NKS      0.096100
     21 C21        -2.9010   -1.1730    1.1410 cc        1 NKS      0.177300
     22 C22        -2.9570    0.0550    1.8100 cd        1 NKS      0.240700
     23 O23        -4.1130    0.7130    1.3830 os        1 NKS     -0.390800
     24 C24        -4.7180   -0.1620    0.4520 cd        1 NKS      0.485900
     25 N25        -4.0170   -1.2900    0.2990 nc        1 NKS     -0.623000
     26 C26        -5.9520    0.2840   -0.1670 ca        1 NKS     -0.096500
     27 C27        -6.6000   -0.5340   -1.1040 ca        1 NKS     -0.096000
     28 C28        -7.7870   -0.1110   -1.6980 ca        1 NKS     -0.134000
     29 C29        -8.3280    1.1310   -1.3550 ca        1 NKS      0.017400
     30 C30        -7.6870    1.9560   -0.4250 ca        1 NKS     -0.134000
     31 C31        -6.5010    1.5310    0.1670 ca        1 NKS     -0.096000
     32 CL32       -9.7810    1.6480   -2.0790 cl        1 NKS     -0.114400
     33 C33        -2.1310    0.7370    2.8020 c3        1 NKS     -0.175400
     34 C34         2.8450    0.0650    1.6140 c3        1 NKS     -0.028000
     35 C35         1.4270    0.3770    2.1490 c         1 NKS      0.903600
     36 O36         0.9340    1.5300    2.0020 o         1 NKS     -0.838300
     37 O37         0.8150   -0.5620    2.7370 o         1 NKS     -0.838300
     38 H1         11.3480   -0.1450    0.3840 hc        1 NKS      0.034700
     39 H1A        11.1390   -1.7320   -0.4670 hc        1 NKS      0.034700
     40 H1B        11.0870   -0.1840   -1.4090 hc        1 NKS      0.034700
     41 H3          9.1110    1.2480   -1.3600 ha        1 NKS      0.124000
     42 H4          6.6460    1.4050   -0.9720 ha        1 NKS      0.154000
     43 H6          6.7900   -2.2380    1.3650 ha        1 NKS      0.154000
     44 H7          9.2560   -2.3950    0.9630 ha        1 NKS      0.124000
     45 H12         1.2600    1.2940   -0.1750 h1        1 NKS      0.089700
     46 H12A        2.3780    1.0900   -1.6230 h1        1 NKS      0.089700
     47 H14         2.5130   -1.0590   -2.8080 ha        1 NKS      0.140000
     48 H15         1.2710   -3.1280   -3.4580 ha        1 NKS      0.116000
     49 H16        -0.6380   -3.9410   -2.0570 ha        1 NKS      0.133000
     50 H18        -0.1480   -0.4960    0.5490 ha        1 NKS      0.184000
     51 H20        -2.2980   -3.0860    1.8970 h1        1 NKS      0.093200
     52 H20A       -0.9650   -1.8100    1.8430 h1        1 NKS      0.093200
     53 H27        -6.1700   -1.5120   -1.3750 ha        1 NKS      0.160000
     54 H28        -8.2930   -0.7550   -2.4330 ha        1 NKS      0.143000
     55 H30        -8.1130    2.9350   -0.1610 ha        1 NKS      0.143000
     56 H31        -5.9860    2.1740    0.8980 ha        1 NKS      0.160000
     57 H33        -1.0320    0.6270    2.5470 hc        1 NKS      0.092033
     58 H33A       -2.3780    1.8260    2.8490 hc        1 NKS      0.092033
     59 H33B       -2.2970    0.2810    3.8110 hc        1 NKS      0.092033
     60 H34         3.0510   -1.0290    1.7870 h1        1 NKS      0.046200
     61 H34A        3.5790    0.6620    2.2260 h1        1 NKS      0.046200
@<TRIPOS>BOND
     1    1    2 1   
     2    1   38 1   
     3    1   39 1   
     4    1   40 1   
     5    2    3 ar  
     6    2    7 ar  
     7    3    4 ar  
     8    3   41 1   
     9    4    5 ar  
    10    4   42 1   
    11    5    6 ar  
    12    5    8 1   
    13    6    7 ar  
    14    6   43 1   
    15    7   44 1   
    16    8    9 1   
    17    9   10 2   
    18    9   11 1   
    19   11   12 1   
    20   11   34 1   
    21   12   13 1   
    22   12   45 1   
    23   12   46 1   
    24   13   14 ar  
    25   13   18 ar  
    26   14   15 ar  
    27   14   47 1   
    28   15   16 ar  
    29   15   48 1   
    30   16   17 ar  
    31   16   49 1   
    32   17   18 ar  
    33   17   19 1   
    34   18   50 1   
    35   19   20 1   
    36   20   21 1   
    37   20   51 1   
    38   20   52 1   
    39   21   22 2   
    40   21   25 1   
    41   22   23 1   
    42   22   33 1   
    43   23   24 1   
    44   24   25 2   
    45   24   26 1   
    46   26   27 ar  
    47   26   31 ar  
    48   27   28 ar  
    49   27   53 1   
    50   28   29 ar  
    51   28   54 1   
    52   29   30 ar  
    53   29   32 1   
    54   30   31 ar  
    55   30   55 1   
    56   31   56 1   
    57   33   57 1   
    58   33   58 1   
    59   33   59 1   
    60   34   35 1   
    61   34   60 1   
    62   34   61 1   
    63   35   36 1   
    64   35   37 1   
@<TRIPOS>SUBSTRUCTURE
     1 NKS         1 TEMP              0 ****  ****    0 ROOT
