@<TRIPOS>MOLECULE
NKS
   61    56     1     0     0
SMALL
bcc


@<TRIPOS>ATOM
      1 C1         -3.8270   -2.9580    8.1100 c3        1 NKS     -0.168000
      2 C2         -3.9760   -2.1010    6.8810 c2        1 NKS     -0.105000
      3 C3         -2.8420   -1.6560    6.2020 c2        1 NKS     -0.116000
      4 C4         -2.9790   -0.9420    5.0150 c1        1 NKS     -0.143000
      5 C5         -4.2380   -0.6750    4.5090 c1        1 NKS      0.102000
      6 C6         -5.3730   -1.1220    5.1910 c1        1 NKS     -0.144000
      7 C7         -5.2370   -1.8330    6.3750 c1        1 NKS     -0.119000
      8 O8         -4.3810    0.1660    3.3720 os        1 NKS     -0.223000
      9 C9         -3.5370   -0.2070    2.2570 c2        1 NKS      0.381000
     10 O10        -3.0150   -1.2830    2.2360 o         1 NKS     -0.452000
     11 N11        -3.4150    0.6770    1.1140 n         1 NKS     -0.224000
     12 C12        -2.0950    1.0500    0.6250 c3        1 NKS     -0.010000
     13 C13        -1.7480    0.2040   -0.6130 c2        1 NKS     -0.076000
     14 C14        -2.6140   -0.8120   -1.0310 c2        1 NKS     -0.127000
     15 C15        -2.2790   -1.6100   -2.1240 c1        1 NKS     -0.123000
     16 C16        -1.0790   -1.3970   -2.8020 c1        1 NKS     -0.158000
     17 C17        -0.2100   -0.3800   -2.3850 c1        1 NKS      0.049000
     18 C18        -0.5460    0.4190   -1.2910 c1        1 NKS     -0.186000
     19 O19         0.9360   -0.0460   -3.1890 os        1 NKS     -0.208000
     20 C20         1.8920   -1.0890   -3.2860 c3        1 NKS      0.059000
     21 C21         3.2680   -0.4960   -3.7170 c2        1 NKS     -0.168000
     22 C22         4.1570   -1.0700   -4.6150 c1        1 NKS     -0.013000
     23 O23         5.2840   -0.3360   -4.6080 os        1 NKS     -0.127000
     24 C24         5.1150    0.6940   -3.7160 c2        1 NKS      0.012000
     25 N25         3.8660    0.5840   -3.1730 n2        1 NKS     -0.101000
     26 C26         6.0320    1.7390   -3.4780 c1        1 NKS     -0.004000
     27 C27         6.8040    1.7300   -2.3390 c1        1 NKS     -0.110000
     28 C28         7.6420    2.8060   -2.0580 c1        1 NKS     -0.110000
     29 C29         7.6990    3.8860   -2.9260 c1        1 NKS     -0.055000
     30 C30         6.9280    3.8950   -4.0650 c1        1 NKS     -0.133000
     31 C31         6.0910    2.8220   -4.3460 c1        1 NKS     -0.095000
     32 CL32        8.7910    5.2020   -2.6060 cl        1 NKS     -0.026000
     33 C33         3.9270   -2.3670   -5.4140 c2        1 NKS     -0.169000
     34 C34        -4.5750    1.3220    0.5880 c3        1 NKS     -0.126000
     35 C35        -4.8560    2.5910    1.3830 c2        1 NKS      0.338000
     36 O36        -6.0310    2.8340    1.7970 o         1 NKS     -0.559500
     37 O37        -3.9330    3.4190    1.5900 o         1 NKS     -0.559500
     38 H1         -3.7490   -2.3840    8.9020 hc        1 NKS      0.074667
     39 H1A        -4.6070   -3.5330    8.2010 hc        1 NKS      0.074667
     40 H1B        -3.0210   -3.5110    8.0270 hc        1 NKS      0.074667
     41 H3         -1.9550   -1.7600    6.6100 ha        1 NKS      0.125000
     42 H4         -2.1810   -0.6910    4.5000 ha        1 NKS      0.158000
     43 H6         -6.2610   -0.8900    4.8620 ha        1 NKS      0.146000
     44 H7         -6.0380   -2.0710    6.9000 ha        1 NKS      0.124000
     45 H12        -2.0930    2.0020    0.3830 h1        1 NKS      0.132500
     46 H12A       -1.4370    0.8910    1.3200 h1        1 NKS      0.132500
     47 H14        -3.4540   -0.9620   -0.5580 ha        1 NKS      0.202000
     48 H15        -2.8880   -2.3240   -2.4160 ha        1 NKS      0.125000
     49 H16        -0.8840   -1.9010   -3.6170 ha        1 NKS      0.132000
     50 H18         0.0620    1.1310   -0.9980 ha        1 NKS      0.147000
     51 H20         1.9840   -1.5280   -2.4170 h1        1 NKS      0.106000
     52 H20A        1.5920   -1.7480   -3.9580 h1        1 NKS      0.106000
     53 H27         6.7630    0.9650   -1.7240 ha        1 NKS      0.155500
     54 H28         8.1920    2.8010   -1.2470 ha        1 NKS      0.155500
     55 H30         6.9680    4.6570   -4.6770 ha        1 NKS      0.147000
     56 H31         5.4970    2.8590   -5.1130 ha        1 NKS      0.156000
     57 H33         3.0940   -2.2910   -5.9310 ha        1 NKS      0.118000
     58 H33A        3.8600   -3.1290   -4.7920 ha        1 NKS      0.118000
     59 H33B        4.6820   -2.5110   -6.0290 ha        1 NKS      0.118000
     60 H34        -4.4230    1.5510   -0.3430 h1        1 NKS      0.084500
     61 H34A       -5.3480    0.7130    0.6540 h1        1 NKS      0.084500
@<TRIPOS>BOND
     1    1    2 1   
     2    1   38 1   
     3    1   39 1   
     4    1   40 1   
     5    2    3 1   
     6    2    7 1   
     7    3    4 1   
     8    3   41 1   
     9    4   42 1   
    10    5    6 1   
    11    5    8 1   
    12    6   43 1   
    13    7   44 1   
    14    8    9 1   
    15    9   10 1   
    16    9   11 1   
    17   11   12 1   
    18   11   34 1   
    19   12   13 1   
    20   12   45 1   
    21   12   46 1   
    22   13   14 1   
    23   13   18 1   
    24   14   15 1   
    25   14   47 1   
    26   15   48 1   
    27   16   17 1   
    28   16   49 1   
    29   17   19 1   
    30   18   50 1   
    31   19   20 1   
    32   20   21 1   
    33   20   51 1   
    34   20   52 1   
    35   21   22 1   
    36   21   25 1   
    37   22   23 1   
    38   23   24 1   
    39   24   25 1   
    40   24   26 1   
    41   26   31 1   
    42   27   28 1   
    43   27   53 1   
    44   28   54 1   
    45   29   30 1   
    46   29   32 1   
    47   30   55 1   
    48   31   56 1   
    49   33   57 1   
    50   33   58 1   
    51   33   59 1   
    52   34   35 1   
    53   34   60 1   
    54   34   61 1   
    55   35   36 1   
    56   35   37 1   
@<TRIPOS>SUBSTRUCTURE
     1 NKS         1 TEMP              0 ****  ****    0 ROOT
