@<TRIPOS>MOLECULE
NKX
   53    54     1     0     0
SMALL
bcc


@<TRIPOS>ATOM
      1 CAA        -0.2280    0.0380   -0.0740 c3        1 NKX     -0.070100
      2 OAB         2.9680   -0.4780    1.9700 o         1 NKX     -0.644800
      3 OAC         2.4270    4.8350    5.5880 o         1 NKX     -0.651800
      4 CAD         1.2630    0.0860    0.1680 c3        1 NKX     -0.266900
      5 SAE         1.6700    0.0250    1.8410 sy        1 NKX      1.396300
      6 CAF         1.6150    1.6310    2.3000 cc        1 NKX     -0.464600
      7 SAG         1.6920    2.1920    3.8260 ss        1 NKX      0.544200
      8 CAH         1.5860    3.7650    3.4840 cc        1 NKX     -0.496600
      9 SAI         1.6240    5.1330    4.4700 sy        1 NKX      1.561200
     10 NAJ         0.1040    5.2820    4.9450 n3        1 NKX     -1.027700
     11 OAK         0.6760   -0.6740    2.5430 o         1 NKX     -0.644800
     12 OAL         1.9800    6.2360    3.6720 o         1 NKX     -0.651800
     13 CAM         1.9310    1.2310   -0.5600 c3        1 NKX     -0.070400
     14 CAN         1.3960    2.5970   -0.0920 c3        1 NKX      0.181000
     15 CAO         1.5160    2.7190    1.4000 cd        1 NKX     -0.041300
     16 CAP         1.4920    3.9450    2.0870 cd        1 NKX     -0.069000
     17 NAQ         1.9930    3.6960   -0.8390 n         1 NKX     -0.451800
     18 CAR         1.1220    4.5980   -1.5650 c3        1 NKX      0.097000
     19 CAS         0.3420    5.5880   -0.7140 c3        1 NKX     -0.125100
     20 OAT         4.2230    3.2510   -0.1780 o         1 NKX     -0.572000
     21 CAU         3.3480    3.9410   -0.7250 c         1 NKX      0.750100
     22 OAV         3.7660    5.1070   -1.3570 os        1 NKX     -0.445900
     23 CAW         5.1690    5.3830   -1.2500 c3        1 NKX      0.128400
     24 OAX         3.1520    6.8040   -3.5190 o         1 NKX     -0.171000
     25 CAY         5.3710    6.6560   -2.0710 c3        1 NKX      0.133100
     26 OAZ         5.2760    6.3150   -3.4830 os        1 NKX     -0.353000
     27 NBA         4.0860    6.3660   -4.1130 no        1 NKX      0.387200
     28 OBB         4.1360    5.9590   -5.2270 o         1 NKX     -0.171000
     29 CBC         6.8000    7.1690   -1.9080 c3        1 NKX      0.128400
     30 OBD         6.6910    8.5940   -2.1670 os        1 NKX     -0.357000
     31 NBE         7.8180    9.3110   -2.3480 no        1 NKX      0.382200
     32 OBF         8.8540    8.7300   -2.2640 o         1 NKX     -0.167500
     33 OBG         7.6130   10.4580   -2.5670 o         1 NKX     -0.167500
     34 HAA        -0.4470    0.0800   -1.1680 hc        1 NKX      0.052033
     35 HAAA       -0.6520   -0.9110    0.3400 hc        1 NKX      0.052033
     36 HAAB       -0.7430    0.8950    0.4240 hc        1 NKX      0.052033
     37 HAD         1.6920   -0.8560   -0.2980 h1        1 NKX      0.127700
     38 HNAJ       -0.2340    4.9390    5.8100 hn        1 NKX      0.451300
     39 HNAA       -0.5900    5.7580    4.4270 hn        1 NKX      0.451300
     40 HAM         3.0440    1.1840   -0.3930 hc        1 NKX      0.082700
     41 HAMA        1.7490    1.1280   -1.6620 hc        1 NKX      0.082700
     42 HAN         0.2830    2.6320   -0.3260 h1        1 NKX      0.081700
     43 HAP         1.4330    4.9310    1.6080 ha        1 NKX      0.186000
     44 HAR         0.3930    3.9630   -2.1480 h1        1 NKX      0.070200
     45 HARA        1.7460    5.1780   -2.3090 h1        1 NKX      0.070200
     46 HAS        -0.3050    5.0650    0.0310 hc        1 NKX      0.048367
     47 HASA       -0.3100    6.1950   -1.3880 hc        1 NKX      0.048367
     48 HASB        1.0290    6.2800   -0.1710 hc        1 NKX      0.048367
     49 HAW         5.4330    5.5500   -0.1740 h1        1 NKX      0.082700
     50 HAWA        5.7560    4.5220   -1.6630 h1        1 NKX      0.082700
     51 HAY         4.6120    7.4420   -1.8000 h1        1 NKX      0.131700
     52 HBC         7.5020    6.6910   -2.6420 h1        1 NKX      0.097200
     53 HBCA        7.1640    7.0250   -0.8580 h1        1 NKX      0.097200
@<TRIPOS>BOND
     1    1    4 1   
     2    1   34 1   
     3    1   35 1   
     4    1   36 1   
     5    2    5 2   
     6    3    9 2   
     7    4    5 1   
     8    4   13 1   
     9    4   37 1   
    10    5    6 1   
    11    5   11 2   
    12    6    7 1   
    13    6   15 2   
    14    7    8 1   
    15    8    9 1   
    16    8   16 2   
    17    9   10 1   
    18    9   12 2   
    19   10   38 1   
    20   10   39 1   
    21   13   14 1   
    22   13   40 1   
    23   13   41 1   
    24   14   15 1   
    25   14   17 1   
    26   14   42 1   
    27   15   16 1   
    28   16   43 1   
    29   17   18 1   
    30   17   21 1   
    31   18   19 1   
    32   18   44 1   
    33   18   45 1   
    34   19   46 1   
    35   19   47 1   
    36   19   48 1   
    37   20   21 2   
    38   21   22 1   
    39   22   23 1   
    40   23   25 1   
    41   23   49 1   
    42   23   50 1   
    43   24   27 1   
    44   25   26 1   
    45   25   29 1   
    46   25   51 1   
    47   26   27 1   
    48   27   28 1   
    49   29   30 1   
    50   29   52 1   
    51   29   53 1   
    52   30   31 1   
    53   31   32 1   
    54   31   33 1   
@<TRIPOS>SUBSTRUCTURE
     1 NKX         1 TEMP              0 ****  ****    0 ROOT
