@<TRIPOS>MOLECULE
NKX
   53    54     1     0     0
SMALL
bcc


@<TRIPOS>ATOM
      1 CAA         4.1990   -3.3120    0.9190 c3        1 NKX     -0.070100
      2 OAB         3.9880   -1.7760   -2.5820 o         1 NKX     -0.644800
      3 OAC         3.0420    4.3180   -0.6870 o         1 NKX     -0.651800
      4 CAD         3.5130   -2.9610   -0.3800 c3        1 NKX     -0.266900
      5 SAE         4.2930   -1.6740   -1.2210 sy        1 NKX      1.396300
      6 CAF         3.5850   -0.3110   -0.5620 cc        1 NKX     -0.464600
      7 SAG         4.0690    1.2250   -0.7950 ss        1 NKX      0.544200
      8 CAH         2.9510    1.9460    0.1170 cc        1 NKX     -0.496600
      9 SAI         2.6440    3.5730    0.4400 sy        1 NKX      1.561200
     10 NAJ         3.6340    3.8960    1.6540 n3        1 NKX     -1.027700
     11 OAK         5.6600   -1.6650   -0.9040 o         1 NKX     -0.644800
     12 OAL         1.3110    3.6870    0.8740 o         1 NKX     -0.651800
     13 CAM         2.0270   -2.7370   -0.2090 c3        1 NKX     -0.070400
     14 CAN         1.7300   -1.5620    0.7410 c3        1 NKX      0.181000
     15 CAO         2.4450   -0.3260    0.2780 cd        1 NKX     -0.041300
     16 CAP         2.0880    0.9760    0.6710 cd        1 NKX     -0.069000
     17 NAQ         0.3000   -1.3900    0.9560 n         1 NKX     -0.451800
     18 CAR        -0.2130   -1.4570    2.3090 c3        1 NKX      0.097000
     19 CAS         0.0740   -0.2470    3.1840 c3        1 NKX     -0.125100
     20 OAT        -0.2330   -0.9610   -1.3110 o         1 NKX     -0.572000
     21 CAU        -0.5100   -1.0250   -0.1030 c         1 NKX      0.750100
     22 OAV        -1.8200   -0.7370    0.2620 os        1 NKX     -0.445900
     23 CAW        -2.6790   -0.3550   -0.8210 c3        1 NKX      0.128400
     24 OAX        -3.7890   -1.3850    2.1700 o         1 NKX     -0.171000
     25 CAY        -4.0500   -0.1640   -0.1730 c3        1 NKX      0.133100
     26 OAZ        -4.5960   -1.4760    0.1470 os        1 NKX     -0.353000
     27 NBA        -4.3540   -2.0350    1.3480 no        1 NKX      0.387200
     28 OBB        -4.7660   -3.1460    1.4320 o         1 NKX     -0.171000
     29 CBC        -5.0370    0.4140   -1.1840 c3        1 NKX      0.128400
     30 OBD        -6.0140    1.1050   -0.3610 os        1 NKX     -0.357000
     31 NBE        -7.1650    1.5200   -0.9260 no        1 NKX      0.382200
     32 OBF        -7.3080    1.3100   -2.0900 o         1 NKX     -0.167500
     33 OBG        -7.8960    2.0580   -0.1630 o         1 NKX     -0.167500
     34 HAA         4.2260   -2.4330    1.6090 hc        1 NKX      0.052033
     35 HAAA        3.6630   -4.1470    1.4310 hc        1 NKX      0.052033
     36 HAAB        5.2530   -3.6300    0.7220 hc        1 NKX      0.052033
     37 HAD         3.6040   -3.8750   -1.0460 h1        1 NKX      0.127700
     38 HNAJ        4.5230    4.3150    1.5380 hn        1 NKX      0.451300
     39 HNAA        3.4110    3.7350    2.6040 hn        1 NKX      0.451300
     40 HAM         1.5590   -2.5380   -1.2140 hc        1 NKX      0.082700
     41 HAMA        1.5570   -3.6680    0.2060 hc        1 NKX      0.082700
     42 HAN         2.1680   -1.8210    1.7590 h1        1 NKX      0.081700
     43 HAP         1.2320    1.2240    1.3100 ha        1 NKX      0.186000
     44 HAR        -1.3330   -1.6070    2.2610 h1        1 NKX      0.070200
     45 HARA        0.2360   -2.3730    2.7930 h1        1 NKX      0.070200
     46 HAS         1.1710   -0.0620    3.2770 hc        1 NKX      0.048367
     47 HASA       -0.4120    0.6710    2.7730 hc        1 NKX      0.048367
     48 HASB       -0.3430   -0.4410    4.2020 hc        1 NKX      0.048367
     49 HAW        -2.3070    0.6030   -1.2690 h1        1 NKX      0.082700
     50 HAWA       -2.6930   -1.1640   -1.5970 h1        1 NKX      0.082700
     51 HAY        -3.9790    0.4730    0.7540 h1        1 NKX      0.131700
     52 HBC        -4.5400    1.1640   -1.8510 h1        1 NKX      0.097200
     53 HBCA       -5.5350   -0.3900   -1.7880 h1        1 NKX      0.097200
@<TRIPOS>BOND
     1    1    4 1   
     2    1   34 1   
     3    1   35 1   
     4    1   36 1   
     5    2    5 2   
     6    3    9 2   
     7    4    5 1   
     8    4   13 1   
     9    4   37 1   
    10    5    6 1   
    11    5   11 2   
    12    6    7 1   
    13    6   15 2   
    14    7    8 1   
    15    8    9 1   
    16    8   16 2   
    17    9   10 1   
    18    9   12 2   
    19   10   38 1   
    20   10   39 1   
    21   13   14 1   
    22   13   40 1   
    23   13   41 1   
    24   14   15 1   
    25   14   17 1   
    26   14   42 1   
    27   15   16 1   
    28   16   43 1   
    29   17   18 1   
    30   17   21 1   
    31   18   19 1   
    32   18   44 1   
    33   18   45 1   
    34   19   46 1   
    35   19   47 1   
    36   19   48 1   
    37   20   21 2   
    38   21   22 1   
    39   22   23 1   
    40   23   25 1   
    41   23   49 1   
    42   23   50 1   
    43   24   27 1   
    44   25   26 1   
    45   25   29 1   
    46   25   51 1   
    47   26   27 1   
    48   27   28 1   
    49   29   30 1   
    50   29   52 1   
    51   29   53 1   
    52   30   31 1   
    53   31   32 1   
    54   31   33 1   
@<TRIPOS>SUBSTRUCTURE
     1 NKX         1 TEMP              0 ****  ****    0 ROOT
