@<TRIPOS>MOLECULE
NKX
   53    50     1     0     0
SMALL
bcc


@<TRIPOS>ATOM
      1 CAA        -2.5740   -3.3640    0.9340 c3        1 NKX     -0.189000
      2 OAB        -0.9930   -4.8180    2.8540 o         1 NKX     -0.534400
      3 OAC         2.4440    0.5350    6.1530 o         1 NKX     -0.930500
      4 CAD        -1.0000   -3.6500    0.5550 c3        1 NKX     -0.765000
      5 SAE        -0.1240   -4.0970    1.9540 s4        1 NKX      2.080800
      6 CAF         0.5760   -2.7210    2.7960 c1        1 NKX     -1.192000
      7 SAG         0.8490   -2.5410    4.2830 ss        1 NKX      1.087000
      8 CAH         0.9110   -0.9890    4.5740 c1        1 NKX     -1.213000
      9 SAI         1.2240   -0.2300    6.1680 ss        1 NKX      2.899000
     10 NAJ         1.2530   -1.4150    7.3830 n2        1 NKX     -0.953000
     11 OAK         0.9170   -5.0150    1.5930 o         1 NKX     -0.534400
     12 OAL         0.2470    0.8060    6.4630 o         1 NKX     -0.930500
     13 CAM        -0.4070   -2.4550   -0.1720 c3        1 NKX     -0.155000
     14 CAN        -0.1720   -1.1920    0.6290 c3        1 NKX      0.082000
     15 CAO         0.4710   -1.3450    2.1740 c2        1 NKX     -0.032000
     16 CAP         0.6830   -0.2790    3.3030 c1        1 NKX     -0.059000
     17 NAQ         0.6920   -0.3600   -0.1190 n         1 NKX     -0.295000
     18 CAR         1.9730   -0.7840   -0.4190 c3        1 NKX     -0.020000
     19 CAS         2.9760    0.2880    0.0060 c3        1 NKX     -0.233000
     20 OAT        -0.1060    1.7540    0.1640 o         1 NKX     -0.414000
     21 CAU         0.2250    0.8860   -0.6100 c2        1 NKX      0.400000
     22 OAV         0.0930    1.0970   -2.0250 os        1 NKX     -0.263000
     23 CAW         0.0820    2.5100   -2.4180 c3        1 NKX     -0.025000
     24 OAX        -1.2790    1.7690   -6.2300 o         1 NKX     -0.455700
     25 CAY        -0.6400    2.6640   -3.7680 c3        1 NKX     -0.003000
     26 OAZ         0.2970    2.5190   -4.8260 os        1 NKX     -0.260000
     27 NBA        -0.1650    1.6190   -5.7280 no        1 NKX      0.932400
     28 OBB         0.5500    0.4940   -5.9900 o         1 NKX     -0.455700
     29 CBC        -1.2880    4.0340   -3.8450 c3        1 NKX     -0.018000
     30 OBD        -2.1880    4.0710   -4.9560 os        1 NKX     -0.261000
     31 NBE        -2.5600    5.3250   -5.1950 no        1 NKX      0.662000
     32 OBF        -3.4040    5.9590   -4.3370 o         1 NKX     -0.319500
     33 OBG        -2.1370    5.9110   -6.1840 o         1 NKX     -0.319500
     34 HAA        -3.0420   -2.9930    0.1410 hc        1 NKX      0.093667
     35 HAAA       -3.0070   -4.2090    1.2060 hc        1 NKX      0.093667
     36 HAAB       -2.6210   -2.7100    1.6850 hc        1 NKX      0.093667
     37 HAD        -1.0900   -4.4060   -0.0470 h1        1 NKX      0.165000
     38 HNAJ        0.4950   -1.5710    7.8990 hn        1 NKX      0.247500
     39 HNAA        2.0400   -1.8930    7.5520 hn        1 NKX      0.247500
     40 HAM        -1.0340   -2.2230   -0.8810 hc        1 NKX      0.116000
     41 HAMA        0.4830   -2.7430   -0.5160 hc        1 NKX      0.116000
     42 HAN        -1.0460   -0.7240    0.7140 h1        1 NKX      0.148000
     43 HAP         0.6690    0.6710    3.1860 DU        1 NKX      0.188000
     44 HAR         2.0480   -0.9330   -1.3750 h1        1 NKX      0.102000
     45 HARA        2.1600   -1.6060    0.0500 h1        1 NKX      0.102000
     46 HAS         2.6150    0.7930    0.7780 hc        1 NKX      0.090667
     47 HASA        3.1370    0.9150   -0.7580 hc        1 NKX      0.090667
     48 HASB        3.8290   -0.1420    0.2630 hc        1 NKX      0.090667
     49 HAW        -0.3900    3.0390   -1.7290 h1        1 NKX      0.133000
     50 HAWA        1.0330    2.8420   -2.5050 h1        1 NKX      0.133000
     51 HAY        -1.3340    1.9700   -3.8490 h1        1 NKX      0.172000
     52 HBC        -1.7880    4.2100   -3.0110 h1        1 NKX      0.133000
     53 HBCA       -0.5820    4.7310   -3.9650 h1        1 NKX      0.133000
@<TRIPOS>BOND
     1    1    4 1   
     2    1   34 1   
     3    1   35 1   
     4    1   36 1   
     5    2    5 1   
     6    3    9 1   
     7    4    5 1   
     8    4   13 1   
     9    4   37 1   
    10    5   11 1   
    11    6    7 1   
    12    6   15 1   
    13    7    8 1   
    14    8   16 1   
    15    9   12 1   
    16   10   38 1   
    17   10   39 1   
    18   13   14 1   
    19   13   40 1   
    20   13   41 1   
    21   14   15 1   
    22   14   17 1   
    23   14   42 1   
    24   15   16 1   
    25   17   18 1   
    26   17   21 1   
    27   18   19 1   
    28   18   44 1   
    29   18   45 1   
    30   19   46 1   
    31   19   47 1   
    32   19   48 1   
    33   20   21 1   
    34   21   22 1   
    35   22   23 1   
    36   23   25 1   
    37   23   49 1   
    38   23   50 1   
    39   24   27 2   
    40   25   26 1   
    41   25   29 1   
    42   25   51 1   
    43   26   27 1   
    44   27   28 2   
    45   29   30 1   
    46   29   52 1   
    47   29   53 1   
    48   30   31 1   
    49   31   32 1   
    50   31   33 1   
@<TRIPOS>SUBSTRUCTURE
     1 NKX         1 TEMP              0 ****  ****    0 ROOT
