@<TRIPOS>MOLECULE
NL4
   58    62     1     0     0
SMALL
bcc


@<TRIPOS>ATOM
      1 C01         0.5490    1.5810   -0.5710 c3        1 NL4      0.082600
      2 N02         1.5560    0.8240    0.2140 n4        1 NL4     -0.594200
      3 C03         1.2980    0.9420    1.6710 c3        1 NL4      0.082600
      4 C04         2.9680    1.3320   -0.1060 c         1 NL4      0.576700
      5 O05         3.1270    2.5390   -0.0050 o         1 NL4     -0.418100
      6 C06         3.9330    0.3160   -0.5230 ca        1 NL4     -0.209600
      7 C07         3.9290   -0.9940   -0.0200 ca        1 NL4     -0.090000
      8 C08         4.8940   -1.8980   -0.4500 ca        1 NL4     -0.123000
      9 C09         5.8660   -1.5100   -1.3770 ca        1 NL4     -0.026000
     10 C10         5.8830   -0.2000   -1.8690 ca        1 NL4     -0.105300
     11 C11         6.9510    0.2280   -2.8400 c3        1 NL4      0.100600
     12 N12         6.8090   -0.3600   -4.1550 na        1 NL4      0.065400
     13 C13         6.3860    0.3400   -5.2940 cc        1 NL4     -0.104300
     14 C14         6.3810   -0.5830   -6.3540 cd        1 NL4     -0.201300
     15 C15         6.0120   -0.3680   -7.7250 ca        1 NL4      0.036000
     16 C16         6.3260    0.7870   -8.4520 ca        1 NL4     -0.094900
     17 CL1         7.2310    2.0540   -7.7770 cl        1 NL4     -0.080400
     18 C18         5.9000    0.9340   -9.8030 ca        1 NL4      0.396200
     19 N19         5.1890    0.0410  -10.4930 nb        1 NL4     -0.583000
     20 C20         4.8680   -1.1030   -9.8250 ca        1 NL4      0.537300
     21 N21         4.1350   -2.2250  -10.2850 nc        1 NL4     -0.616700
     22 C22         4.1060   -3.0880   -9.2400 cd        1 NL4      0.543400
     23 C23         3.4780   -4.3810   -9.2330 cd        1 NL4     -0.323200
     24 C24         3.6920   -5.4390   -8.3270 cc        1 NL4     -0.125300
     25 N25         2.8660   -6.4820   -8.7360 na        1 NL4      0.105400
     26 C26         2.8290   -7.7860   -8.1170 c3        1 NL4      0.035600
     27 N27         2.1560   -6.1630   -9.8350 nc        1 NL4     -0.507800
     28 C28         2.4940   -4.8880  -10.1800 cd        1 NL4      0.384600
     29 C29         1.9490   -4.1540  -11.3360 c3        1 NL4     -0.132400
     30 N30         4.7850   -2.5920   -8.0950 na        1 NL4     -0.283300
     31 C31         5.2770   -1.3360   -8.4340 ca        1 NL4     -0.179500
     32 C32         6.8190   -1.8310   -5.7460 cd        1 NL4      0.318200
     33 N33         7.0570   -1.6570   -4.4260 nc        1 NL4     -0.519800
     34 C34         4.9200    0.7160   -1.4420 ca        1 NL4     -0.036000
     35 H011       -0.4810    1.2210   -0.3060 hx        1 NL4      0.108700
     36 H012        0.7370    1.4190   -1.6660 hx        1 NL4      0.108700
     37 H013        0.6380    2.6770   -0.3340 hx        1 NL4      0.108700
     38 H031        1.4080    2.0170    1.9810 hx        1 NL4      0.108700
     39 H032        0.2560    0.5910    1.8990 hx        1 NL4      0.108700
     40 H033        2.0410    0.3120    2.2300 hx        1 NL4      0.108700
     41 H07         3.1980   -1.3170    0.7380 ha        1 NL4      0.131000
     42 H34         4.9300    1.7550   -1.8150 ha        1 NL4      0.165000
     43 H08         4.8980   -2.9270   -0.0530 ha        1 NL4      0.169000
     44 H09         6.6250   -2.2360   -1.7200 ha        1 NL4      0.186000
     45 H111        7.9570   -0.0660   -2.4130 h1        1 NL4      0.088700
     46 H112        6.9330    1.3490   -2.9660 h1        1 NL4      0.088700
     47 H13         6.1500    1.4040   -5.2760 h4        1 NL4      0.189000
     48 H32         6.9930   -2.7870   -6.2430 h4        1 NL4      0.052100
     49 H18         6.1640    1.8540  -10.3610 h4        1 NL4      0.045100
     50 H30         4.8720   -3.0390   -7.2230 hn        1 NL4      0.304700
     51 H24         4.3540   -5.5210   -7.4670 h4        1 NL4      0.170000
     52 H261        3.3350   -7.7250   -7.1190 h1        1 NL4      0.064033
     53 H262        1.7650   -8.1180   -7.9820 h1        1 NL4      0.064033
     54 H263        3.3640   -8.5320   -8.7650 h1        1 NL4      0.064033
     55 H291        1.1330   -4.7230  -11.8460 hc        1 NL4      0.066700
     56 H292        2.7690   -3.9610  -12.0740 hc        1 NL4      0.066700
     57 H293        1.5440   -3.1670  -10.9980 hc        1 NL4      0.066700
     58 H021        1.5020   -0.1660   -0.0550 hn        1 NL4      0.454800
@<TRIPOS>BOND
     1    1    2 1   
     2    1   35 1   
     3    1   36 1   
     4    1   37 1   
     5    2    3 1   
     6    2    4 1   
     7    2   58 1   
     8    3   38 1   
     9    3   39 1   
    10    3   40 1   
    11    4    5 2   
    12    4    6 1   
    13    6    7 ar  
    14    6   34 ar  
    15    7    8 ar  
    16    7   41 1   
    17    8    9 ar  
    18    8   43 1   
    19    9   10 ar  
    20    9   44 1   
    21   10   11 1   
    22   10   34 ar  
    23   11   12 1   
    24   11   45 1   
    25   11   46 1   
    26   12   13 1   
    27   12   33 1   
    28   13   14 2   
    29   13   47 1   
    30   14   15 1   
    31   14   32 1   
    32   15   16 ar  
    33   15   31 ar  
    34   16   17 1   
    35   16   18 ar  
    36   18   19 ar  
    37   18   49 1   
    38   19   20 ar  
    39   20   21 1   
    40   20   31 ar  
    41   21   22 2   
    42   22   23 1   
    43   22   30 1   
    44   23   24 2   
    45   23   28 1   
    46   24   25 1   
    47   24   51 1   
    48   25   26 1   
    49   25   27 1   
    50   26   52 1   
    51   26   53 1   
    52   26   54 1   
    53   27   28 2   
    54   28   29 1   
    55   29   55 1   
    56   29   56 1   
    57   29   57 1   
    58   30   31 1   
    59   30   50 1   
    60   32   33 2   
    61   32   48 1   
    62   34   42 1   
@<TRIPOS>SUBSTRUCTURE
     1 NL4         1 TEMP              0 ****  ****    0 ROOT
