@<TRIPOS>MOLECULE
NL4
   58    62     1     0     0
SMALL
bcc


@<TRIPOS>ATOM
      1 C01         0.5390    1.5450   -0.5500 c3        1 NL4      0.082600
      2 N02         1.5660    0.8090    0.2300 nx        1 NL4     -0.594200
      3 C03         1.3200    0.9310    1.6890 c3        1 NL4      0.082600
      4 C04         2.9660    1.3380   -0.1070 c         1 NL4      0.576700
      5 O05         3.1070    2.5480   -0.0150 o         1 NL4     -0.418100
      6 C06         3.9440    0.3360   -0.5290 ca        1 NL4     -0.209600
      7 C07         3.9660   -0.9710   -0.0190 ca        1 NL4     -0.090000
      8 C08         4.9410   -1.8620   -0.4540 ca        1 NL4     -0.123000
      9 C09         5.8970   -1.4630   -1.3930 ca        1 NL4     -0.026000
     10 C10         5.8870   -0.1550   -1.8920 ca        1 NL4     -0.105300
     11 C11         6.9390    0.2840   -2.8760 c3        1 NL4      0.100600
     12 N12         6.7930   -0.3120   -4.1860 na        1 NL4      0.065400
     13 C13         6.3500    0.3750   -5.3260 cc        1 NL4     -0.104300
     14 C14         6.3490   -0.5530   -6.3800 cd        1 NL4     -0.201300
     15 C15         5.9640   -0.3510   -7.7500 ca        1 NL4      0.036000
     16 C16         6.2550    0.8050   -8.4850 ca        1 NL4     -0.094900
     17 Cl1         7.1470    2.0880   -7.8250 cl        1 NL4     -0.080400
     18 C18         5.8140    0.9380   -9.8330 ca        1 NL4      0.396200
     19 N19         5.1110    0.0310  -10.5120 nb        1 NL4     -0.583000
     20 C20         4.8120   -1.1130   -9.8350 ca        1 NL4      0.537300
     21 N21         4.0920   -2.2490  -10.2820 nc        1 NL4     -0.616700
     22 C22         4.0840   -3.1070   -9.2330 cd        1 NL4      0.543400
     23 C23         3.4750   -4.4090   -9.2140 cd        1 NL4     -0.323200
     24 C24         3.7130   -5.4580   -8.3040 cc        1 NL4     -0.125300
     25 N25         2.8980   -6.5150   -8.7000 na        1 NL4      0.105400
     26 C26         2.8860   -7.8170   -8.0730 c3        1 NL4      0.035600
     27 N27         2.1750   -6.2130   -9.7940 nc        1 NL4     -0.507800
     28 C28         2.4910   -4.9350  -10.1500 cd        1 NL4      0.384600
     29 C29         1.9260   -4.2150  -11.3050 c3        1 NL4     -0.132400
     30 N30         4.7670   -2.5950   -8.0970 na        1 NL4     -0.283300
     31 C31         5.2370   -1.3340   -8.4470 ca        1 NL4     -0.179500
     32 C32         6.8100   -1.7920   -5.7700 cd        1 NL4      0.318200
     33 N33         7.0580   -1.6070   -4.4540 nc        1 NL4     -0.519800
     34 C34         4.9140    0.7470   -1.4600 ca        1 NL4     -0.036000
     35 H011        0.7190    1.3800   -1.6460 hx        1 NL4      0.108700
     36 H012       -0.4820    1.1690   -0.2720 hx        1 NL4      0.108700
     37 H013        0.6130    2.6430   -0.3200 hx        1 NL4      0.108700
     38 H031        1.4160    2.0100    1.9910 hx        1 NL4      0.108700
     39 H032        2.0790    0.3170    2.2440 hx        1 NL4      0.108700
     40 H033        0.2860    0.5650    1.9290 hx        1 NL4      0.108700
     41 H07         3.2480   -1.3020    0.7480 ha        1 NL4      0.131000
     42 H34         4.9040    1.7830   -1.8390 ha        1 NL4      0.165000
     43 H08         4.9660   -2.8890   -0.0520 ha        1 NL4      0.169000
     44 H09         6.6650   -2.1780   -1.7410 ha        1 NL4      0.186000
     45 H111        7.9540    0.0090   -2.4580 h1        1 NL4      0.088700
     46 H112        6.9020    1.4040   -3.0070 h1        1 NL4      0.088700
     47 H13         6.0980    1.4360   -5.3110 h4        1 NL4      0.189000
     48 H32         6.9940   -2.7480   -6.2640 h4        1 NL4      0.052100
     49 H18         6.0600    1.8590  -10.3980 h4        1 NL4      0.045100
     50 H30         4.8680   -3.0360   -7.2230 hn        1 NL4      0.304700
     51 H24         4.3830   -5.5260   -7.4490 h4        1 NL4      0.170000
     52 H261        3.4260   -8.5580   -8.7220 h1        1 NL4      0.064033
     53 H262        1.8280   -8.1630   -7.9280 h1        1 NL4      0.064033
     54 H263        3.4000   -7.7420   -7.0800 h1        1 NL4      0.064033
     55 H291        1.5090   -3.2330  -10.9690 hc        1 NL4      0.066700
     56 H292        2.7370   -4.0150  -12.0510 hc        1 NL4      0.066700
     57 H293        1.1150   -4.8000  -11.8050 hc        1 NL4      0.066700
     58 H021        1.5260   -0.1840   -0.0330 hn        1 NL4      0.454800
@<TRIPOS>BOND
     1    1    2 1   
     2    1   35 1   
     3    1   36 1   
     4    1   37 1   
     5    2    3 1   
     6    2    4 1   
     7    2   58 1   
     8    3   38 1   
     9    3   39 1   
    10    3   40 1   
    11    4    5 2   
    12    4    6 1   
    13    6    7 ar  
    14    6   34 ar  
    15    7    8 ar  
    16    7   41 1   
    17    8    9 ar  
    18    8   43 1   
    19    9   10 ar  
    20    9   44 1   
    21   10   11 1   
    22   10   34 ar  
    23   11   12 1   
    24   11   45 1   
    25   11   46 1   
    26   12   13 1   
    27   12   33 1   
    28   13   14 2   
    29   13   47 1   
    30   14   15 1   
    31   14   32 1   
    32   15   16 ar  
    33   15   31 ar  
    34   16   17 1   
    35   16   18 ar  
    36   18   19 ar  
    37   18   49 1   
    38   19   20 ar  
    39   20   21 1   
    40   20   31 ar  
    41   21   22 2   
    42   22   23 1   
    43   22   30 1   
    44   23   24 2   
    45   23   28 1   
    46   24   25 1   
    47   24   51 1   
    48   25   26 1   
    49   25   27 1   
    50   26   52 1   
    51   26   53 1   
    52   26   54 1   
    53   27   28 2   
    54   28   29 1   
    55   29   55 1   
    56   29   56 1   
    57   29   57 1   
    58   30   31 1   
    59   30   50 1   
    60   32   33 2   
    61   32   48 1   
    62   34   42 1   
@<TRIPOS>SUBSTRUCTURE
     1 NL4         1 TEMP              0 ****  ****    0 ROOT
