@<TRIPOS>MOLECULE
NLA
   23    24     1     0     0
SMALL
bcc


@<TRIPOS>ATOM
      1 C1         -0.1170   -0.2560   -0.5950 ca        1 NLA     -0.044000
      2 C2          0.7410   -0.4740    0.5300 ca        1 NLA      0.023700
      3 C3          2.1050   -0.2930    0.3770 ca        1 NLA     -0.171000
      4 C4          2.6610    0.0610   -0.8700 ca        1 NLA     -0.114000
      5 C5          1.8580    0.2180   -1.9730 ca        1 NLA     -0.169000
      6 C6          0.4520    0.0630   -1.8570 ca        1 NLA     -0.029000
      7 C7         -0.4010    0.2340   -2.9820 ca        1 NLA     -0.151000
      8 C8         -1.7620    0.1190   -2.8520 ca        1 NLA     -0.130000
      9 C9         -2.3340   -0.1550   -1.5870 ca        1 NLA     -0.172000
     10 C10        -1.5350   -0.3330   -0.4840 ca        1 NLA     -0.081000
     11 C11         0.2000   -0.9380    1.8280 c3        1 NLA     -0.187100
     12 C12        -0.5200    0.1680    2.6460 c         1 NLA      0.922600
     13 O1          0.1790    0.8930    3.4010 o         1 NLA     -0.833300
     14 O2         -1.7780    0.2370    2.5410 o         1 NLA     -0.833300
     15 H31         2.7720   -0.4170    1.2430 ha        1 NLA      0.131000
     16 H41         3.7490    0.2010   -0.9480 ha        1 NLA      0.108000
     17 H51         2.2840    0.4740   -2.9530 ha        1 NLA      0.109000
     18 H71         0.0550    0.4680   -3.9550 ha        1 NLA      0.110000
     19 H81        -2.4220    0.2510   -3.7210 ha        1 NLA      0.107000
     20 H91        -3.4280   -0.2100   -1.4950 ha        1 NLA      0.119000
     21 H101       -1.9740   -0.4860    0.5250 ha        1 NLA      0.203000
     22 H111        1.0310   -1.3350    2.4680 hc        1 NLA      0.039200
     23 H112       -0.5330   -1.7680    1.6540 hc        1 NLA      0.039200
@<TRIPOS>BOND
     1    1    2 ar  
     2    1    6 ar  
     3    1   10 ar  
     4    2    3 ar  
     5    2   11 1   
     6    3    4 ar  
     7    3   15 1   
     8    4    5 ar  
     9    4   16 1   
    10    5    6 ar  
    11    5   17 1   
    12    6    7 ar  
    13    7    8 ar  
    14    7   18 1   
    15    8    9 ar  
    16    8   19 1   
    17    9   10 ar  
    18    9   20 1   
    19   10   21 1   
    20   11   12 1   
    21   11   22 1   
    22   11   23 1   
    23   12   13 1   
    24   12   14 1   
@<TRIPOS>SUBSTRUCTURE
     1 NLA         1 TEMP              0 ****  ****    0 ROOT
