@<TRIPOS>MOLECULE
NLA
   23    20     1     0     0
SMALL
bcc


@<TRIPOS>ATOM
      1 C1         -0.3570    0.1900   -0.1340 c1        1 NLA     -0.036500
      2 C2          1.0490    0.2350   -0.0990 c1        1 NLA      0.031000
      3 C3          1.7140    0.2470    1.1200 c1        1 NLA     -0.171000
      4 C4          0.9900    0.2140    2.3080 c1        1 NLA     -0.141500
      5 C5         -0.3970    0.1700    2.2760 c1        1 NLA     -0.141500
      6 C6         -1.0730    0.1580    1.0400 c1        1 NLA     -0.036500
      7 C7         -2.4790    0.1130    1.0060 c2        1 NLA     -0.116000
      8 C8         -3.1440    0.1010   -0.2130 c1        1 NLA     -0.151000
      9 C9         -2.4200    0.1330   -1.4010 c1        1 NLA     -0.151000
     10 C10        -1.0330    0.1780   -1.3690 c2        1 NLA     -0.116000
     11 C11         2.0830    0.2680   -1.2030 c3        1 NLA     -0.223000
     12 C12         2.4750   -1.1470   -1.5690 c2        1 NLA      0.342000
     13 O1          2.4580   -2.0510   -0.6930 o         1 NLA     -0.568000
     14 O2          2.8310   -1.4170   -2.7460 o         1 NLA     -0.568000
     15 H31         2.6890    0.2780    1.1430 ha        1 NLA      0.131000
     16 H41         1.4580    0.2230    3.1650 ha        1 NLA      0.108500
     17 H51        -0.9040    0.1470    3.1090 ha        1 NLA      0.108500
     18 H71        -2.9870    0.0900    1.8390 ha        1 NLA      0.156500
     19 H81        -4.1190    0.0690   -0.2360 ha        1 NLA      0.113000
     20 H91        -2.8880    0.1250   -2.2580 ha        1 NLA      0.113000
     21 H101       -0.5260    0.2040   -2.2020 ha        1 NLA      0.156500
     22 H111        1.7080    0.7150   -1.9880 hc        1 NLA      0.078500
     23 H112        2.8730    0.7560   -0.8960 hc        1 NLA      0.078500
@<TRIPOS>BOND
     1    1    6 1   
     2    1   10 1   
     3    2    3 1   
     4    2   11 1   
     5    3   15 1   
     6    4    5 1   
     7    4   16 1   
     8    5   17 1   
     9    6    7 1   
    10    7    8 1   
    11    7   18 1   
    12    8   19 1   
    13    9   10 1   
    14    9   20 1   
    15   10   21 1   
    16   11   12 1   
    17   11   22 1   
    18   11   23 1   
    19   12   13 1   
    20   12   14 1   
@<TRIPOS>SUBSTRUCTURE
     1 NLA         1 TEMP              0 ****  ****    0 ROOT
