@<TRIPOS>MOLECULE
NLA
   23    24     1     0     0
SMALL
bcc


@<TRIPOS>ATOM
      1 C1          0.0300   -0.0400    0.0180 ca        1 NLA     -0.044000
      2 C2          1.4600   -0.0760    0.0830 ca        1 NLA      0.023700
      3 C3          2.0730   -0.0930    1.3250 ca        1 NLA     -0.171000
      4 C4          1.3190   -0.0340    2.5150 ca        1 NLA     -0.114000
      5 C5         -0.0510    0.0600    2.4700 ca        1 NLA     -0.169000
      6 C6         -0.7220    0.0580    1.2180 ca        1 NLA     -0.029000
      7 C7         -2.1410    0.1400    1.1470 ca        1 NLA     -0.151000
      8 C8         -2.7830    0.1000   -0.0650 ca        1 NLA     -0.130000
      9 C9         -2.0380   -0.0410   -1.2590 ca        1 NLA     -0.172000
     10 C10        -0.6670   -0.1150   -1.2220 ca        1 NLA     -0.081000
     11 C11         2.2850   -0.0430   -1.1460 c3        1 NLA     -0.187100
     12 C12         2.3270   -1.3910   -1.9170 c         1 NLA      0.922600
     13 O1          3.1930   -2.2390   -1.5750 o         1 NLA     -0.833300
     14 O2          1.5190   -1.5320   -2.8790 o         1 NLA     -0.833300
     15 H31         3.1690   -0.1630    1.3900 ha        1 NLA      0.131000
     16 H41         1.8450   -0.0560    3.4800 ha        1 NLA      0.108000
     17 H51        -0.6460    0.1260    3.3900 ha        1 NLA      0.109000
     18 H71        -2.7080    0.2290    2.0840 ha        1 NLA      0.110000
     19 H81        -3.8790    0.1640   -0.1210 ha        1 NLA      0.107000
     20 H91        -2.5720   -0.1050   -2.2180 ha        1 NLA      0.119000
     21 H101       -0.0750   -0.2890   -2.1460 ha        1 NLA      0.203000
     22 H111        1.8860    0.7380   -1.8440 hc        1 NLA      0.039200
     23 H112        3.3420    0.2250   -0.8890 hc        1 NLA      0.039200
@<TRIPOS>BOND
     1    1    2 ar  
     2    1    6 ar  
     3    1   10 ar  
     4    2    3 ar  
     5    2   11 1   
     6    3    4 ar  
     7    3   15 1   
     8    4    5 ar  
     9    4   16 1   
    10    5    6 ar  
    11    5   17 1   
    12    6    7 ar  
    13    7    8 ar  
    14    7   18 1   
    15    8    9 ar  
    16    8   19 1   
    17    9   10 ar  
    18    9   20 1   
    19   10   21 1   
    20   11   12 1   
    21   11   22 1   
    22   11   23 1   
    23   12   13 1   
    24   12   14 1   
@<TRIPOS>SUBSTRUCTURE
     1 NLA         1 TEMP              0 ****  ****    0 ROOT
