@<TRIPOS>MOLECULE
NLC
   51    52     1     0     0
SMALL
bcc


@<TRIPOS>ATOM
      1 C1         -2.0270   -0.3420   -2.7140 c3        1 NLC      0.310900
      2 O1         -2.4500   -1.5930   -2.3130 oh        1 NLC     -0.633800
      3 C2         -0.5190   -0.3210   -2.7440 c3        1 NLC      0.046700
      4 N          -0.0450   -1.4580   -3.5280 n         1 NLC     -0.562900
      5 C7          0.1840   -1.3160   -4.9030 c         1 NLC      0.652100
      6 C8          0.6030   -2.5190   -5.7280 c3        1 NLC     -0.175100
      7 O7         -0.0090   -0.2620   -5.4360 o         1 NLC     -0.594100
      8 C3          0.0710   -0.3950   -1.3850 c3        1 NLC      0.119100
      9 O3          1.4980   -0.1860   -1.4820 oh        1 NLC     -0.597800
     10 C4         -0.5010    0.6310   -0.4640 c3        1 NLC      0.134100
     11 O4         -0.0170    0.3760    0.8640 os        1 NLC     -0.446600
     12 C5         -2.0190    0.6110   -0.4450 c3        1 NLC      0.097100
     13 C6         -2.5110    1.7910    0.3570 c3        1 NLC      0.130400
     14 O6         -3.7560    2.1860   -0.1180 oh        1 NLC     -0.593800
     15 O5         -2.5950    0.6810   -1.7830 os        1 NLC     -0.451600
     16 C12         0.7270    2.0370    2.3300 c3        1 NLC      0.097100
     17 O12         1.7350    3.0300    2.4740 oh        1 NLC     -0.588800
     18 C13         0.6590    1.2410    3.5840 c3        1 NLC      0.093100
     19 O13        -0.5010    0.3840    3.5310 oh        1 NLC     -0.607800
     20 C14         1.8820    0.3910    3.7870 c3        1 NLC      0.095100
     21 C15         2.2040   -0.4580    2.5720 c3        1 NLC      0.116100
     22 C16         1.1710   -1.4980    2.4300 c3        1 NLC      0.089400
     23 C10         1.0500    1.1840    1.1250 c3        1 NLC      0.338900
     24 O16         1.4490   -2.5680    3.3320 oh        1 NLC     -0.620800
     25 O15         2.2660    0.3320    1.3340 os        1 NLC     -0.380600
     26 O40         1.6630   -0.4680    4.9010 oh        1 NLC     -0.604800
     27 H1         -2.3620   -0.1700   -3.6160 h2        1 NLC      0.083700
     28 HA         -3.1880   -1.8180   -2.7660 ho        1 NLC      0.424000
     29 H2         -0.2260    0.5020   -3.1710 h1        1 NLC      0.115700
     30 H           0.1450   -2.2360   -3.1200 hn        1 NLC      0.313500
     31 H8C1       -0.1560   -3.1590   -5.7890 hc        1 NLC      0.069367
     32 H8C2        1.3670   -2.9580   -5.3000 hc        1 NLC      0.069367
     33 H8C3        0.8570   -2.2250   -6.6300 hc        1 NLC      0.069367
     34 H3         -0.0970   -1.2830   -1.0160 h1        1 NLC      0.065700
     35 HB          1.7840   -0.4820   -2.2490 ho        1 NLC      0.417000
     36 H4         -0.1920    1.5370   -0.7560 h1        1 NLC      0.071700
     37 H5         -2.3230   -0.2220   -0.0090 h1        1 NLC      0.076700
     38 H6C1       -2.5880    1.5320    1.3110 h1        1 NLC      0.069700
     39 H6C2       -1.8730    2.5410    0.2680 h1        1 NLC      0.069700
     40 H6         -4.0370    2.8930    0.3410 ho        1 NLC      0.406000
     41 H12        -0.1280    2.4740    2.1860 h1        1 NLC      0.062700
     42 HD          1.3490    3.8280    2.6330 ho        1 NLC      0.409000
     43 H13         0.5680    1.8470    4.3380 h1        1 NLC      0.047700
     44 HC         -1.1180    0.6730    4.1330 ho        1 NLC      0.420000
     45 H14         2.6370    0.9670    3.9760 h1        1 NLC      0.089700
     46 H15         3.0840   -0.8990    2.7140 h1        1 NLC      0.100700
     47 H161        0.3050   -1.1210    2.6340 h1        1 NLC      0.059200
     48 H162        1.1710   -1.8330    1.5210 h1        1 NLC      0.059200
     49 H10         1.2010    1.7630    0.3620 h2        1 NLC      0.129700
     50 H16         1.3650   -3.3650    2.8940 ho        1 NLC      0.412000
     51 H40         2.2410   -0.2750    5.5370 ho        1 NLC      0.428000
@<TRIPOS>BOND
     1    1    2 1   
     2    1    3 1   
     3    1   15 1   
     4    1   27 1   
     5    2   28 1   
     6    3    4 1   
     7    3    8 1   
     8    3   29 1   
     9    4    5 1   
    10    4   30 1   
    11    5    6 1   
    12    5    7 2   
    13    6   31 1   
    14    6   32 1   
    15    6   33 1   
    16    8    9 1   
    17    8   10 1   
    18    8   34 1   
    19    9   35 1   
    20   10   11 1   
    21   10   12 1   
    22   10   36 1   
    23   11   23 1   
    24   12   13 1   
    25   12   15 1   
    26   12   37 1   
    27   13   14 1   
    28   13   38 1   
    29   13   39 1   
    30   14   40 1   
    31   16   17 1   
    32   16   18 1   
    33   16   23 1   
    34   16   41 1   
    35   17   42 1   
    36   18   19 1   
    37   18   20 1   
    38   18   43 1   
    39   19   44 1   
    40   20   21 1   
    41   20   26 1   
    42   20   45 1   
    43   21   22 1   
    44   21   25 1   
    45   21   46 1   
    46   22   24 1   
    47   22   47 1   
    48   22   48 1   
    49   23   25 1   
    50   23   49 1   
    51   24   50 1   
    52   26   51 1   
@<TRIPOS>SUBSTRUCTURE
     1 NLC         1 TEMP              0 ****  ****    0 ROOT
