@<TRIPOS>MOLECULE
NLC
   52    53     1     0     0
SMALL
bcc


@<TRIPOS>ATOM
      1 C1         -0.1390   -0.2470    0.0450 c3        1 NLC      0.330900
      2 O1         -0.4040   -1.4970    0.6360 oh        1 NLC     -0.664800
      3 C2          1.4050   -0.0830   -0.0310 c3        1 NLC      0.089500
      4 N           2.0600   -1.2560   -0.7020 n4        1 NLC     -0.672800
      5 C7          2.0070   -1.2220   -2.2130 c         1 NLC      0.555100
      6 C8          3.0720   -2.0110   -2.8980 c3        1 NLC     -0.191100
      7 O7          1.1160   -0.5630   -2.7240 o         1 NLC     -0.408100
      8 C3          1.9990    0.1070    1.3870 c3        1 NLC      0.121100
      9 O3          3.3810    0.3300    1.2120 oh        1 NLC     -0.640800
     10 C4          1.2560    1.2740    2.0650 c3        1 NLC      0.096100
     11 O4          1.7810    1.3790    3.3830 os        1 NLC     -0.390600
     12 C5         -0.2320    0.8960    2.1530 c3        1 NLC      0.115100
     13 C6         -1.0710    1.9890    2.8170 c3        1 NLC      0.134400
     14 O6         -2.2540    1.3540    3.2700 oh        1 NLC     -0.596800
     15 O5         -0.7450    0.7500    0.8200 os        1 NLC     -0.406600
     16 C12         2.3480    2.7080    5.2630 c3        1 NLC      0.132100
     17 O12         1.0280    2.9450    5.7150 oh        1 NLC     -0.599800
     18 C13         3.2740    3.8540    5.7040 c3        1 NLC      0.066100
     19 O13         3.4730    3.6620    7.0970 oh        1 NLC     -0.599800
     20 C14         4.6230    3.7900    4.9710 c3        1 NLC      0.086100
     21 C15         4.3920    3.7340    3.4550 c3        1 NLC      0.158100
     22 C16         5.7070    3.4860    2.7120 c3        1 NLC      0.138400
     23 C10         2.2630    2.6700    3.7270 c3        1 NLC      0.339900
     24 O16         5.5200    3.9410    1.3820 oh        1 NLC     -0.608800
     25 O15         3.5300    2.6530    3.0900 os        1 NLC     -0.457600
     26 O40         5.3780    2.6520    5.3460 oh        1 NLC     -0.589800
     27 H1         -0.6090   -0.1560   -0.9790 h2        1 NLC      0.115700
     28 HA         -1.3310   -1.5080    0.9210 ho        1 NLC      0.470000
     29 H2          1.6280    0.8360   -0.6510 hx        1 NLC      0.131700
     30 H           3.0460   -1.2800   -0.4000 hn        1 NLC      0.478800
     31 H8C1        4.0710   -1.5270   -2.7440 hc        1 NLC      0.114367
     32 H8C2        3.1110   -3.0630   -2.5190 hc        1 NLC      0.114367
     33 H8C3        2.8490   -2.0300   -3.9980 hc        1 NLC      0.114367
     34 H3          1.8540   -0.8270    2.0050 h1        1 NLC      0.085700
     35 HB          3.6960    0.8970    1.9380 ho        1 NLC      0.481000
     36 H4          1.4010    2.2210    1.4780 h1        1 NLC      0.087700
     37 H5         -0.3570   -0.0730    2.7130 h1        1 NLC      0.094700
     38 H6C1       -0.4910    2.4100    3.6860 h1        1 NLC      0.057700
     39 H6C2       -1.3200    2.7970    2.0800 h1        1 NLC      0.057700
     40 H6         -2.7660    2.0250    3.7390 ho        1 NLC      0.421000
     41 H12         2.7390    1.7290    5.6560 h1        1 NLC      0.092700
     42 HD          1.0580    2.9030    6.6810 ho        1 NLC      0.435000
     43 H13         2.7770    4.8440    5.5080 h1        1 NLC      0.067700
     44 HC          3.8430    4.4810    7.4500 ho        1 NLC      0.423000
     45 H14         5.2210    4.7150    5.2170 h1        1 NLC      0.057700
     46 H15         3.9220    4.7000    3.1160 h1        1 NLC      0.069700
     47 H161        5.9480    2.3900    2.7160 h1        1 NLC      0.054200
     48 H162        6.5290    4.0560    3.2200 h1        1 NLC      0.054200
     49 H10         1.6190    3.4980    3.3240 h2        1 NLC      0.067700
     50 H16         6.3940    3.9690    0.9740 ho        1 NLC      0.413000
     51 H40         5.2480    2.5220    6.2970 ho        1 NLC      0.427000
     52 HN3         1.5920   -2.1130   -0.3710 hn        1 NLC      0.478800
@<TRIPOS>BOND
     1    1    2 1   
     2    1    3 1   
     3    1   15 1   
     4    1   27 1   
     5    2   28 1   
     6    3    4 1   
     7    3    8 1   
     8    3   29 1   
     9    4    5 1   
    10    4   30 1   
    11    4   52 1   
    12    5    6 1   
    13    5    7 2   
    14    6   31 1   
    15    6   32 1   
    16    6   33 1   
    17    8    9 1   
    18    8   10 1   
    19    8   34 1   
    20    9   35 1   
    21   10   11 1   
    22   10   12 1   
    23   10   36 1   
    24   11   23 1   
    25   12   13 1   
    26   12   15 1   
    27   12   37 1   
    28   13   14 1   
    29   13   38 1   
    30   13   39 1   
    31   14   40 1   
    32   16   17 1   
    33   16   18 1   
    34   16   23 1   
    35   16   41 1   
    36   17   42 1   
    37   18   19 1   
    38   18   20 1   
    39   18   43 1   
    40   19   44 1   
    41   20   21 1   
    42   20   26 1   
    43   20   45 1   
    44   21   22 1   
    45   21   25 1   
    46   21   46 1   
    47   22   24 1   
    48   22   47 1   
    49   22   48 1   
    50   23   25 1   
    51   23   49 1   
    52   24   50 1   
    53   26   51 1   
@<TRIPOS>SUBSTRUCTURE
     1 NLC         1 TEMP              0 ****  ****    0 ROOT
