@<TRIPOS>MOLECULE
NLC
   52    53     1     0     0
SMALL
bcc


@<TRIPOS>ATOM
      1 C1         -0.3270   -0.2410    0.1050 c3        1 NLC      0.330900
      2 O1         -0.7690   -1.3930    0.7790 oh        1 NLC     -0.652800
      3 C2          1.2270   -0.2370    0.1590 c3        1 NLC      0.090500
      4 N           1.8070   -1.5080   -0.3950 ny        1 NLC     -0.673800
      5 C7          2.6050   -1.2560   -1.6620 c         1 NLC      0.558100
      6 C8          3.9620   -0.6760   -1.4710 c3        1 NLC     -0.193100
      7 O7          2.0410   -1.5750   -2.6970 o         1 NLC     -0.414100
      8 C3          1.6980   -0.0050    1.6170 c3        1 NLC      0.124100
      9 O3          3.1090    0.0110    1.5790 oh        1 NLC     -0.641800
     10 C4          1.0560    1.3040    2.1200 c3        1 NLC      0.102100
     11 O4          1.4720    1.4730    3.4710 os        1 NLC     -0.413600
     12 C5         -0.4710    1.1160    2.0880 c3        1 NLC      0.114100
     13 C6         -1.2280    2.3710    2.5320 c3        1 NLC      0.141400
     14 O6         -2.4240    1.9160    3.1370 oh        1 NLC     -0.595800
     15 O5         -0.8790    0.8850    0.7310 os        1 NLC     -0.415600
     16 C12         2.6200    2.5850    5.2170 c3        1 NLC      0.089100
     17 O12         1.5420    2.9440    6.0560 oh        1 NLC     -0.591800
     18 C13         3.7440    3.5990    5.4870 c3        1 NLC      0.114100
     19 O13         4.2950    3.3860    6.7730 oh        1 NLC     -0.596800
     20 C14         4.8930    3.3820    4.4870 c3        1 NLC      0.120100
     21 C15         4.3540    3.4710    3.0540 c3        1 NLC      0.121100
     22 C16         5.4310    3.0580    2.0420 c3        1 NLC      0.135400
     23 C10         2.1870    2.6740    3.7410 c3        1 NLC      0.307900
     24 O16         4.9970    3.2400    0.7130 oh        1 NLC     -0.598800
     25 O15         3.2610    2.5820    2.8220 os        1 NLC     -0.465600
     26 O40         5.4850    2.1070    4.6530 oh        1 NLC     -0.600800
     27 H1         -0.7070   -0.2010   -0.9580 h2        1 NLC      0.106700
     28 HA         -1.7210   -1.3040    0.9410 ho        1 NLC      0.467000
     29 H2          1.5930    0.6240   -0.4750 hx        1 NLC      0.123700
     30 H           1.0430   -2.1750   -0.5760 hn        1 NLC      0.472800
     31 H8C1        4.2120   -0.0470   -2.3650 hc        1 NLC      0.122367
     32 H8C2        4.0400   -0.0490   -0.5430 hc        1 NLC      0.122367
     33 H8C3        4.7070   -1.5130   -1.4060 hc        1 NLC      0.122367
     34 H3          1.3630   -0.8570    2.2780 h1        1 NLC      0.088700
     35 HB          3.4350    0.6140    2.2700 ho        1 NLC      0.480000
     36 H4          1.3690    2.1680    1.4750 h1        1 NLC      0.093700
     37 H5         -0.7710    0.2380    2.7250 h1        1 NLC      0.098700
     38 H6C1       -1.4420    3.0330    1.6520 h1        1 NLC      0.051200
     39 H6C2       -0.6100    2.9230    3.2910 h1        1 NLC      0.051200
     40 H6         -3.0300    2.6670    3.1700 ho        1 NLC      0.423000
     41 H12         2.9860    1.5450    5.4430 h1        1 NLC      0.087700
     42 HD          0.9120    2.2120    6.0370 ho        1 NLC      0.427000
     43 H13         3.3430    4.6460    5.4050 h1        1 NLC      0.066700
     44 HC          3.5730    3.4920    7.4090 ho        1 NLC      0.437000
     45 H14         5.6710    4.1820    4.6460 h1        1 NLC      0.073700
     46 H15         4.0000    4.5230    2.8620 h1        1 NLC      0.054700
     47 H161        6.3650    3.6420    2.2510 h1        1 NLC      0.075200
     48 H162        5.6350    1.9560    2.1360 h1        1 NLC      0.075200
     49 H10         1.5610    3.5840    3.5310 h2        1 NLC      0.066700
     50 H16         4.9280    4.1900    0.5560 ho        1 NLC      0.405000
     51 H40         5.7500    2.0420    5.5820 ho        1 NLC      0.438000
     52 HN3         2.4370   -1.9110    0.3130 hn        1 NLC      0.472800
@<TRIPOS>BOND
     1    1    2 1   
     2    1    3 1   
     3    1   15 1   
     4    1   27 1   
     5    2   28 1   
     6    3    4 1   
     7    3    8 1   
     8    3   29 1   
     9    4    5 1   
    10    4   30 1   
    11    4   52 1   
    12    5    6 1   
    13    5    7 2   
    14    6   31 1   
    15    6   32 1   
    16    6   33 1   
    17    8    9 1   
    18    8   10 1   
    19    8   34 1   
    20    9   35 1   
    21   10   11 1   
    22   10   12 1   
    23   10   36 1   
    24   11   23 1   
    25   12   13 1   
    26   12   15 1   
    27   12   37 1   
    28   13   14 1   
    29   13   38 1   
    30   13   39 1   
    31   14   40 1   
    32   16   17 1   
    33   16   18 1   
    34   16   23 1   
    35   16   41 1   
    36   17   42 1   
    37   18   19 1   
    38   18   20 1   
    39   18   43 1   
    40   19   44 1   
    41   20   21 1   
    42   20   26 1   
    43   20   45 1   
    44   21   22 1   
    45   21   25 1   
    46   21   46 1   
    47   22   24 1   
    48   22   47 1   
    49   22   48 1   
    50   23   25 1   
    51   23   49 1   
    52   24   50 1   
    53   26   51 1   
@<TRIPOS>SUBSTRUCTURE
     1 NLC         1 TEMP              0 ****  ****    0 ROOT
