@<TRIPOS>MOLECULE
NLC
   52    53     1     0     0
SMALL
bcc


@<TRIPOS>ATOM
      1 C1         -0.1410   -0.2340    0.0440 c3        1 NLC      0.330900
      2 O1         -0.4080   -1.4850    0.6330 oh        1 NLC     -0.664800
      3 C2          1.4030   -0.0730   -0.0310 c3        1 NLC      0.089500
      4 N           2.0570   -1.2460   -0.7030 n4        1 NLC     -0.672800
      5 C7          2.0040   -1.2110   -2.2140 c         1 NLC      0.555100
      6 C8          3.0630   -2.0070   -2.8980 c3        1 NLC     -0.191100
      7 O7          1.1170   -0.5460   -2.7240 o         1 NLC     -0.408100
      8 C3          1.9960    0.1140    1.3880 c3        1 NLC      0.121100
      9 O3          3.3790    0.3360    1.2140 oh        1 NLC     -0.640800
     10 C4          1.2550    1.2820    2.0660 c3        1 NLC      0.096100
     11 O4          1.7790    1.3850    3.3850 os        1 NLC     -0.390600
     12 C5         -0.2340    0.9060    2.1530 c3        1 NLC      0.115100
     13 C6         -1.0720    2.0000    2.8180 c3        1 NLC      0.134400
     14 O6         -2.2560    1.3670    3.2680 oh        1 NLC     -0.596800
     15 O5         -0.7460    0.7620    0.8200 os        1 NLC     -0.406600
     16 C12         2.3470    2.7110    5.2670 c3        1 NLC      0.132100
     17 O12         1.0270    2.9490    5.7190 oh        1 NLC     -0.599800
     18 C13         3.2750    3.8550    5.7100 c3        1 NLC      0.066100
     19 O13         3.4730    3.6600    7.1020 oh        1 NLC     -0.599800
     20 C14         4.6240    3.7890    4.9770 c3        1 NLC      0.086100
     21 C15         4.3930    3.7360    3.4600 c3        1 NLC      0.158100
     22 C16         5.7090    3.4870    2.7170 c3        1 NLC      0.138400
     23 C10         2.2630    2.6740    3.7310 c3        1 NLC      0.339900
     24 O16         5.5230    3.9440    1.3880 oh        1 NLC     -0.608800
     25 O15         3.5300    2.6570    3.0940 os        1 NLC     -0.457600
     26 O40         5.3770    2.6500    5.3510 oh        1 NLC     -0.589800
     27 H1         -0.6100   -0.1410   -0.9810 h2        1 NLC      0.115700
     28 HA         -1.3350   -1.4940    0.9170 ho        1 NLC      0.470000
     29 H2          1.6280    0.8460   -0.6500 hx        1 NLC      0.131700
     30 H           1.5880   -2.1030   -0.3730 hn        1 NLC      0.478800
     31 H8C1        3.0960   -3.0600   -2.5200 hc        1 NLC      0.114367
     32 H8C2        2.8400   -2.0260   -3.9990 hc        1 NLC      0.114367
     33 H8C3        4.0660   -1.5290   -2.7460 hc        1 NLC      0.114367
     34 H3          1.8500   -0.8200    2.0050 h1        1 NLC      0.085700
     35 HB          3.6940    0.9010    1.9410 ho        1 NLC      0.481000
     36 H4          1.4020    2.2290    1.4810 h1        1 NLC      0.087700
     37 H5         -0.3610   -0.0630    2.7110 h1        1 NLC      0.094700
     38 H6C1       -1.3180    2.8100    2.0820 h1        1 NLC      0.057700
     39 H6C2       -0.4920    2.4180    3.6870 h1        1 NLC      0.057700
     40 H6         -2.7680    2.0370    3.7370 ho        1 NLC      0.421000
     41 H12         2.7370    1.7300    5.6590 h1        1 NLC      0.092700
     42 HD          1.0570    2.9050    6.6850 ho        1 NLC      0.435000
     43 H13         2.7800    4.8450    5.5150 h1        1 NLC      0.067700
     44 HC          3.8440    4.4780    7.4570 ho        1 NLC      0.423000
     45 H14         5.2240    4.7130    5.2240 h1        1 NLC      0.057700
     46 H15         3.9250    4.7030    3.1230 h1        1 NLC      0.069700
     47 H161        6.5310    4.0550    3.2270 h1        1 NLC      0.054200
     48 H162        5.9480    2.3900    2.7200 h1        1 NLC      0.054200
     49 H10         1.6200    3.5050    3.3290 h2        1 NLC      0.067700
     50 H16         6.3970    3.9720    0.9810 ho        1 NLC      0.413000
     51 H40         5.2470    2.5190    6.3020 ho        1 NLC      0.427000
     52 HN3         3.0430   -1.2710   -0.4010 hn        1 NLC      0.478800
@<TRIPOS>BOND
     1    1    2 1   
     2    1    3 1   
     3    1   15 1   
     4    1   27 1   
     5    2   28 1   
     6    3    4 1   
     7    3    8 1   
     8    3   29 1   
     9    4    5 1   
    10    4   30 1   
    11    4   52 1   
    12    5    6 1   
    13    5    7 2   
    14    6   31 1   
    15    6   32 1   
    16    6   33 1   
    17    8    9 1   
    18    8   10 1   
    19    8   34 1   
    20    9   35 1   
    21   10   11 1   
    22   10   12 1   
    23   10   36 1   
    24   11   23 1   
    25   12   13 1   
    26   12   15 1   
    27   12   37 1   
    28   13   14 1   
    29   13   38 1   
    30   13   39 1   
    31   14   40 1   
    32   16   17 1   
    33   16   18 1   
    34   16   23 1   
    35   16   41 1   
    36   17   42 1   
    37   18   19 1   
    38   18   20 1   
    39   18   43 1   
    40   19   44 1   
    41   20   21 1   
    42   20   26 1   
    43   20   45 1   
    44   21   22 1   
    45   21   25 1   
    46   21   46 1   
    47   22   24 1   
    48   22   47 1   
    49   22   48 1   
    50   23   25 1   
    51   23   49 1   
    52   24   50 1   
    53   26   51 1   
@<TRIPOS>SUBSTRUCTURE
     1 NLC         1 TEMP              0 ****  ****    0 ROOT
