@<TRIPOS>MOLECULE
NLC
   51    52     1     0     0
SMALL
bcc


@<TRIPOS>ATOM
      1 C1          1.3210    0.0630    3.3120 c3        1 NLC      0.309900
      2 O1          1.7600   -1.2690    3.4280 oh        1 NLC     -0.631800
      3 C2         -0.1600    0.0780    2.8520 c3        1 NLC      0.046700
      4 N          -1.0180   -0.6590    3.7460 n         1 NLC     -0.561900
      5 C7         -1.6940   -0.0330    4.7880 c         1 NLC      0.652100
      6 C8         -2.4380   -0.9230    5.7520 c3        1 NLC     -0.174100
      7 O7         -1.7200    1.2080    4.8870 o         1 NLC     -0.594100
      8 C3         -0.2850   -0.4400    1.3940 c3        1 NLC      0.137100
      9 O3         -1.5640   -0.0930    0.8880 oh        1 NLC     -0.584800
     10 C4          0.7370    0.2580    0.4780 c3        1 NLC      0.132100
     11 O4          0.7900   -0.4720   -0.7540 os        1 NLC     -0.412600
     12 C5          2.1510    0.1740    1.0710 c3        1 NLC      0.084100
     13 C6          3.1340    1.0270    0.2620 c3        1 NLC      0.136400
     14 O6          4.4630    0.8050    0.6750 oh        1 NLC     -0.592800
     15 O5          2.1910    0.6970    2.3980 os        1 NLC     -0.450600
     16 C12         0.8400   -0.5610   -3.1260 c3        1 NLC      0.083100
     17 O12         2.2440   -0.4910   -3.2890 oh        1 NLC     -0.606800
     18 C13         0.2100    0.0600   -4.3820 c3        1 NLC      0.111100
     19 O13         0.4640   -0.7430   -5.5210 oh        1 NLC     -0.606800
     20 C14        -1.3210    0.1260   -4.2220 c3        1 NLC      0.123100
     21 C15        -1.6780    0.8400   -2.9110 c3        1 NLC      0.108100
     22 C16        -3.1710    0.7160   -2.5810 c3        1 NLC      0.149400
     23 C10         0.3970    0.2570   -1.8980 c3        1 NLC      0.311900
     24 O16        -3.4730    1.3710   -1.3700 oh        1 NLC     -0.607800
     25 O15        -1.0140    0.2830   -1.7750 os        1 NLC     -0.415600
     26 O40        -1.8940   -1.1690   -4.2020 oh        1 NLC     -0.589800
     27 H1          1.4570    0.6400    4.2720 h2        1 NLC      0.085700
     28 HA          2.6920   -1.2480    3.6800 ho        1 NLC      0.423000
     29 H2         -0.4880    1.1640    2.8600 h1        1 NLC      0.117700
     30 H          -0.8090   -1.6270    3.8380 hn        1 NLC      0.312500
     31 H8C1       -2.9370   -0.2810    6.5190 hc        1 NLC      0.069033
     32 H8C2       -3.2160   -1.5160    5.2130 hc        1 NLC      0.069033
     33 H8C3       -1.7340   -1.6230    6.2640 hc        1 NLC      0.069033
     34 H3         -0.1220   -1.5510    1.3490 h1        1 NLC      0.065700
     35 HB         -2.2000   -0.6950    1.2910 ho        1 NLC      0.411000
     36 H4          0.4250    1.3240    0.3140 h1        1 NLC      0.082700
     37 H5          2.4900   -0.9000    1.0900 h1        1 NLC      0.078700
     38 H6C1        3.0980    0.7080   -0.8160 h1        1 NLC      0.057200
     39 H6C2        2.8680    2.1130    0.3550 h1        1 NLC      0.057200
     40 H6          4.5160    1.0660    1.6040 ho        1 NLC      0.411000
     41 H12         0.5030   -1.6280   -3.0130 h1        1 NLC      0.087700
     42 HD          2.6330   -0.9240   -2.5180 ho        1 NLC      0.424000
     43 H13         0.6280    1.0910   -4.5470 h1        1 NLC      0.057700
     44 HC          1.4170   -0.9000   -5.5440 ho        1 NLC      0.430000
     45 H14        -1.7500    0.7060   -5.0880 h1        1 NLC      0.056700
     46 H15        -1.3820    1.9230   -3.0050 h1        1 NLC      0.050700
     47 H161       -3.7760    1.2390   -3.3670 h1        1 NLC      0.062200
     48 H162       -3.4530   -0.3690   -2.5290 h1        1 NLC      0.062200
     49 H10         0.8250    1.2980   -1.9120 h2        1 NLC      0.048700
     50 H16        -2.9260    0.9660   -0.6790 ho        1 NLC      0.430000
     51 H40        -1.5380   -1.6420   -4.9670 ho        1 NLC      0.424000
@<TRIPOS>BOND
     1    1    2 1   
     2    1    3 1   
     3    1   15 1   
     4    1   27 1   
     5    2   28 1   
     6    3    4 1   
     7    3    8 1   
     8    3   29 1   
     9    4    5 1   
    10    4   30 1   
    11    5    6 1   
    12    5    7 2   
    13    6   31 1   
    14    6   32 1   
    15    6   33 1   
    16    8    9 1   
    17    8   10 1   
    18    8   34 1   
    19    9   35 1   
    20   10   11 1   
    21   10   12 1   
    22   10   36 1   
    23   11   23 1   
    24   12   13 1   
    25   12   15 1   
    26   12   37 1   
    27   13   14 1   
    28   13   38 1   
    29   13   39 1   
    30   14   40 1   
    31   16   17 1   
    32   16   18 1   
    33   16   23 1   
    34   16   41 1   
    35   17   42 1   
    36   18   19 1   
    37   18   20 1   
    38   18   43 1   
    39   19   44 1   
    40   20   21 1   
    41   20   26 1   
    42   20   45 1   
    43   21   22 1   
    44   21   25 1   
    45   21   46 1   
    46   22   24 1   
    47   22   47 1   
    48   22   48 1   
    49   23   25 1   
    50   23   49 1   
    51   24   50 1   
    52   26   51 1   
@<TRIPOS>SUBSTRUCTURE
     1 NLC         1 TEMP              0 ****  ****    0 ROOT
