@<TRIPOS>MOLECULE
NLD
   49    50     1     0     0
SMALL
bcc


@<TRIPOS>ATOM
      1 O19         1.1570   -0.0430    0.7450 o         1 NLD     -0.628000
      2 C15         2.2560    0.4010    0.3700 c         1 NLD      0.648100
      3 C16         3.4600    0.6570    1.2270 c3        1 NLD     -0.149400
      4 C17         3.1130    0.7530    2.6990 c3        1 NLD     -0.142400
      5 C18         2.7800   -0.5950    3.2780 c         1 NLD      0.547100
      6 O14         2.4500    0.6900   -0.9300 os        1 NLD     -0.395900
      7 C13         1.3490    0.4360   -1.8410 c3        1 NLD      0.148400
      8 C7          1.9100    0.6550   -3.2320 c3        1 NLD     -0.083700
      9 C6          0.9630    0.0230   -4.2960 c3        1 NLD      0.236800
     10 N2          0.9650    0.9210   -5.4640 n3        1 NLD     -0.723600
     11 C10        -0.2940    0.9750   -6.1620 c3        1 NLD      0.154100
     12 C9          1.4860    2.2250   -5.0530 c3        1 NLD      0.158800
     13 C8          2.0300    2.1270   -3.6200 c3        1 NLD     -0.089400
     14 C2          1.4100   -1.3680   -4.6390 ca        1 NLD     -0.209600
     15 C1          2.6170   -1.6000   -5.3340 ca        1 NLD      0.425200
     16 N1          3.0680   -2.8280   -5.6480 nb        1 NLD     -0.660000
     17 C5          2.3120   -3.8810   -5.2830 ca        1 NLD      0.402200
     18 C4          1.0890   -3.7550   -4.5980 ca        1 NLD     -0.250300
     19 C3          0.6350   -2.4760   -4.2760 ca        1 NLD     -0.097000
     20 O20         3.5640   -1.4640    3.6250 o         1 NLD     -0.404100
     21 N21         1.3170   -0.9270    3.4400 ny        1 NLD     -0.688800
     22 C22         0.7670   -0.3800    4.7180 c3        1 NLD      0.115800
     23 C23        -0.6960   -0.7170    4.9100 c3        1 NLD     -0.136100
     24 H161        3.9370    1.6250    0.9020 hc        1 NLD      0.124700
     25 H162        4.2110   -0.1590    1.0390 hc        1 NLD      0.124700
     26 H171        4.0160    1.1330    3.2600 hc        1 NLD      0.114200
     27 H172        2.2750    1.4850    2.8520 hc        1 NLD      0.114200
     28 H131        1.0030   -0.6210   -1.6960 h1        1 NLD      0.065700
     29 H132        0.5210    1.1470   -1.5860 h1        1 NLD      0.065700
     30 H7          2.9210    0.1670   -3.2970 hc        1 NLD      0.087700
     31 H6         -0.0790   -0.0430   -3.8530 h1        1 NLD      0.033700
     32 H81C        3.0940    2.4640   -3.5770 hc        1 NLD      0.053200
     33 H82C        1.4380    2.7780   -2.9310 hc        1 NLD      0.053200
     34 H101       -0.1670    1.6230   -7.0690 h1        1 NLD      0.040700
     35 H102       -0.5660   -0.0620   -6.4920 h1        1 NLD      0.040700
     36 H103       -1.1380    1.3870   -5.5420 h1        1 NLD      0.040700
     37 H91C        2.3100    2.4890   -5.7700 h1        1 NLD      0.053700
     38 H92C        0.7060    3.0340   -5.1130 h1        1 NLD      0.053700
     39 H1          3.2460   -0.7530   -5.6660 h4        1 NLD      0.037100
     40 H3         -0.3230   -2.3430   -3.7520 ha        1 NLD      0.131000
     41 H5          2.7060   -4.8760   -5.5620 h4        1 NLD      0.030100
     42 H4          0.5040   -4.6470   -4.3360 ha        1 NLD      0.147000
     43 H231       -1.0310   -0.2670    5.8800 hc        1 NLD      0.082367
     44 H232       -1.3300   -0.2950    4.0920 hc        1 NLD      0.082367
     45 H233       -0.8620   -1.8210    4.9640 hc        1 NLD      0.082367
     46 H221        0.9070    0.7390    4.6970 hx        1 NLD      0.103200
     47 H222        1.3790   -0.8080    5.5640 hx        1 NLD      0.103200
     48 H21         1.1980   -1.9490    3.4370 hn        1 NLD      0.478300
     49 H212        0.7900   -0.5380    2.6350 hn        1 NLD      0.478300
@<TRIPOS>BOND
     1    1    2 2   
     2    2    3 1   
     3    2    6 1   
     4    3    4 1   
     5    3   24 1   
     6    3   25 1   
     7    4    5 1   
     8    4   26 1   
     9    4   27 1   
    10    5   20 2   
    11    5   21 1   
    12    6    7 1   
    13    7    8 1   
    14    7   28 1   
    15    7   29 1   
    16    8    9 1   
    17    8   13 1   
    18    8   30 1   
    19    9   10 1   
    20    9   14 1   
    21    9   31 1   
    22   10   11 1   
    23   10   12 1   
    24   11   34 1   
    25   11   35 1   
    26   11   36 1   
    27   12   13 1   
    28   12   37 1   
    29   12   38 1   
    30   13   32 1   
    31   13   33 1   
    32   14   15 ar  
    33   14   19 ar  
    34   15   16 ar  
    35   15   39 1   
    36   16   17 ar  
    37   17   18 ar  
    38   17   41 1   
    39   18   19 ar  
    40   18   42 1   
    41   19   40 1   
    42   21   22 1   
    43   21   48 1   
    44   21   49 1   
    45   22   23 1   
    46   22   46 1   
    47   22   47 1   
    48   23   43 1   
    49   23   44 1   
    50   23   45 1   
@<TRIPOS>SUBSTRUCTURE
     1 NLD         1 TEMP              0 ****  ****    0 ROOT
