@<TRIPOS>MOLECULE
NLD
   48    46     1     0     0
SMALL
bcc


@<TRIPOS>ATOM
      1 O19        -0.9350    0.6970    1.9540 o         1 NLD     -0.363000
      2 C15         0.1250    0.2150    1.6150 c1        1 NLD      0.303000
      3 C16         0.8220   -0.7960    2.5170 c2        1 NLD     -0.150000
      4 C17        -0.1520   -1.2470    3.6350 c3        1 NLD     -0.181000
      5 C18         0.4500   -2.4240    4.3950 c2        1 NLD      0.298000
      6 O14         0.7850    0.6840    0.4070 os        1 NLD     -0.275000
      7 C13        -0.0790    1.4110   -0.4910 c3        1 NLD     -0.006000
      8 C7          0.7130    1.7870   -1.7870 c3        1 NLD     -0.116000
      9 C6         -0.1360    1.9510   -2.8190 c3        1 NLD      0.024000
     10 N2          0.4870    3.1170   -3.7370 n3        1 NLD     -0.254000
     11 C10        -0.5260    3.7250   -4.4680 c3        1 NLD     -0.118000
     12 C9          1.0210    3.9990   -2.9050 c3        1 NLD     -0.077000
     13 C8          1.4070    3.1710   -1.6150 c3        1 NLD     -0.166000
     14 C2         -0.2480    0.6790   -3.6070 c2        1 NLD     -0.122000
     15 C1          0.8750    0.1190   -4.1750 c2        1 NLD     -0.042000
     16 N1          0.7620   -1.0030   -4.9530 n1        1 NLD     -0.143000
     17 C5         -0.4630   -1.5640   -5.1660 c1        1 NLD     -0.128000
     18 C4         -1.5890   -1.0030   -4.5970 c1        1 NLD     -0.128000
     19 C3         -1.4780    0.1130   -3.8220 c1        1 NLD     -0.096000
     20 O20         1.6250   -2.6720    4.2870 o         1 NLD     -0.371000
     21 N21        -0.3710   -3.1830    5.3270 n         1 NLD     -0.376000
     22 C22         0.2260   -4.1450    6.1660 c3        1 NLD     -0.033000
     23 C23        -0.8140   -4.6940    7.1360 c3        1 NLD     -0.239000
     24 H161        1.0920   -1.5680    1.9900 ha        1 NLD      0.139500
     25 H162        1.6110   -0.3850    2.9180 ha        1 NLD      0.139500
     26 H171       -1.0040   -1.5180    3.2320 hc        1 NLD      0.118000
     27 H172       -0.3040   -0.5060    4.2510 hc        1 NLD      0.118000
     28 H131       -0.8320    0.8630   -0.7260 h1        1 NLD      0.093500
     29 H132       -0.3960    2.2320   -0.0500 h1        1 NLD      0.093500
     30 H7          1.3900    1.0820   -2.0000 hc        1 NLD      0.122000
     31 H6         -1.0260    2.2230   -2.4850 h1        1 NLD      0.080000
     32 H81C        2.3900    3.0580   -1.5620 hc        1 NLD      0.094500
     33 H82C        1.0650    3.6310   -0.7920 hc        1 NLD      0.094500
     34 H101       -1.2130    4.0950   -3.8420 h1        1 NLD      0.074000
     35 H102       -0.9380    3.0750   -5.0510 h1        1 NLD      0.074000
     36 H103       -0.1420    4.4630   -5.0140 h1        1 NLD      0.074000
     37 H91C        0.3680    4.6880   -2.6800 h1        1 NLD      0.084000
     38 H92C        1.8260    4.4050   -3.3070 h1        1 NLD      0.084000
     39 H1          1.7270    0.5110   -4.0260 h4        1 NLD      0.174000
     40 H3         -2.2880    0.5170   -3.4140 ha        1 NLD      0.135000
     41 H5         -0.5440   -2.3720   -5.7270 ha        1 NLD      0.150000
     42 H4         -2.4520   -1.3990   -4.7470 ha        1 NLD      0.150000
     43 H231       -1.0550   -3.9950    7.7910 hc        1 NLD      0.081333
     44 H232       -0.4430   -5.4730    7.6070 hc        1 NLD      0.081333
     45 H233       -1.6190   -4.9660    6.6350 hc        1 NLD      0.081333
     46 H221        0.5780   -4.8690    5.6260 h1        1 NLD      0.102000
     47 H222        0.9460   -3.7360    6.6630 h1        1 NLD      0.102000
     48 H21        -1.2440   -2.9930    5.4130 hn        1 NLD      0.219000
@<TRIPOS>BOND
     1    1    2 1   
     2    2    6 1   
     3    3    4 1   
     4    3   24 1   
     5    3   25 1   
     6    4    5 1   
     7    4   26 1   
     8    4   27 1   
     9    5   20 1   
    10    5   21 1   
    11    6    7 1   
    12    7    8 1   
    13    7   28 1   
    14    7   29 1   
    15    8    9 1   
    16    8   13 1   
    17    8   30 1   
    18    9   10 1   
    19    9   14 1   
    20    9   31 1   
    21   10   11 1   
    22   10   12 1   
    23   11   34 1   
    24   11   35 1   
    25   11   36 1   
    26   12   13 1   
    27   12   37 1   
    28   12   38 1   
    29   13   32 1   
    30   13   33 1   
    31   14   15 1   
    32   14   19 1   
    33   15   16 1   
    34   15   39 1   
    35   17   18 1   
    36   17   41 1   
    37   18   42 1   
    38   19   40 1   
    39   21   22 1   
    40   21   48 1   
    41   22   23 1   
    42   22   46 1   
    43   22   47 1   
    44   23   43 1   
    45   23   44 1   
    46   23   45 1   
@<TRIPOS>SUBSTRUCTURE
     1 NLD         1 TEMP              0 ****  ****    0 ROOT
