@<TRIPOS>MOLECULE
NLD
   49    50     1     0     0
SMALL
bcc


@<TRIPOS>ATOM
      1 O19         1.1590   -0.0290    0.7390 o         1 NLD     -0.628000
      2 C15         2.2620    0.3990    0.3580 c         1 NLD      0.648100
      3 C16         3.4710    0.6450    1.2110 c3        1 NLD     -0.149400
      4 C17         3.1290    0.7550    2.6830 c3        1 NLD     -0.142400
      5 C18         2.7790   -0.5850    3.2710 c         1 NLD      0.547100
      6 O14         2.4570    0.6770   -0.9440 os        1 NLD     -0.395900
      7 C13         1.3500    0.4320   -1.8510 c3        1 NLD      0.148400
      8 C7          1.9090    0.6410   -3.2440 c3        1 NLD     -0.084700
      9 C6          0.9540    0.0140   -4.3030 c3        1 NLD      0.236800
     10 N2          0.9600    0.9080   -5.4740 n3        1 NLD     -0.723600
     11 C10        -0.3010    0.9720   -6.1680 c3        1 NLD      0.154100
     12 C9          1.4940    2.2090   -5.0690 c3        1 NLD      0.158800
     13 C8          2.0420    2.1100   -3.6380 c3        1 NLD     -0.089400
     14 C2          1.3860   -1.3820   -4.6430 ca        1 NLD     -0.209600
     15 C1          2.5880   -1.6270   -5.3410 ca        1 NLD      0.425200
     16 N1          3.0270   -2.8600   -5.6530 nb        1 NLD     -0.660000
     17 C5          2.2630   -3.9060   -5.2820 ca        1 NLD      0.402200
     18 C4          1.0440   -3.7660   -4.5930 ca        1 NLD     -0.250300
     19 C3          0.6030   -2.4820   -4.2730 ca        1 NLD     -0.097000
     20 O20         3.5530   -1.4620    3.6220 o         1 NLD     -0.404100
     21 N21         1.3130   -0.8970    3.4390 n4        1 NLD     -0.688800
     22 C22         0.7730   -0.3330    4.7140 c3        1 NLD      0.115800
     23 C23        -0.6940   -0.6500    4.9110 c3        1 NLD     -0.136100
     24 H161        3.9600    1.6040    0.8790 hc        1 NLD      0.124700
     25 H162        4.2110   -0.1820    1.0260 hc        1 NLD      0.124700
     26 H171        4.0380    1.1270    3.2400 hc        1 NLD      0.114200
     27 H172        2.3010    1.4990    2.8330 hc        1 NLD      0.114200
     28 H131        0.5300    1.1520   -1.5960 h1        1 NLD      0.065700
     29 H132        0.9940   -0.6210   -1.7020 h1        1 NLD      0.065700
     30 H7          2.9150    0.1430   -3.3110 hc        1 NLD      0.087700
     31 H6         -0.0880   -0.0410   -3.8560 h1        1 NLD      0.033700
     32 H81C        3.1100    2.4370   -3.6000 hc        1 NLD      0.053200
     33 H82C        1.4580    2.7690   -2.9490 hc        1 NLD      0.053200
     34 H101       -0.5840   -0.0640   -6.4940 h1        1 NLD      0.040700
     35 H102       -0.1700    1.6150   -7.0770 h1        1 NLD      0.040700
     36 H103       -1.1390    1.3940   -5.5470 h1        1 NLD      0.040700
     37 H91C        0.7210    3.0250   -5.1300 h1        1 NLD      0.053700
     38 H92C        2.3190    2.4630   -5.7900 h1        1 NLD      0.053700
     39 H1          3.2240   -0.7870   -5.6780 h4        1 NLD      0.037100
     40 H3         -0.3520   -2.3380   -3.7460 ha        1 NLD      0.131000
     41 H5          2.6470   -4.9040   -5.5590 h4        1 NLD      0.030100
     42 H4          0.4520   -4.6510   -4.3260 ha        1 NLD      0.147000
     43 H231       -0.8750   -1.7510    4.9740 hc        1 NLD      0.082367
     44 H232       -1.3240   -0.2250    4.0920 hc        1 NLD      0.082367
     45 H233       -1.0210   -0.1880    5.8790 hc        1 NLD      0.082367
     46 H221        1.3810   -0.7630    5.5620 hx        1 NLD      0.103200
     47 H222        0.9280    0.7840    4.6850 hx        1 NLD      0.103200
     48 H21         0.7890   -0.5060    2.6330 hn        1 NLD      0.478300
     49 H212        1.1810   -1.9170    3.4430 hn        1 NLD      0.478300
@<TRIPOS>BOND
     1    1    2 2   
     2    2    3 1   
     3    2    6 1   
     4    3    4 1   
     5    3   24 1   
     6    3   25 1   
     7    4    5 1   
     8    4   26 1   
     9    4   27 1   
    10    5   20 2   
    11    5   21 1   
    12    6    7 1   
    13    7    8 1   
    14    7   28 1   
    15    7   29 1   
    16    8    9 1   
    17    8   13 1   
    18    8   30 1   
    19    9   10 1   
    20    9   14 1   
    21    9   31 1   
    22   10   11 1   
    23   10   12 1   
    24   11   34 1   
    25   11   35 1   
    26   11   36 1   
    27   12   13 1   
    28   12   37 1   
    29   12   38 1   
    30   13   32 1   
    31   13   33 1   
    32   14   15 ar  
    33   14   19 ar  
    34   15   16 ar  
    35   15   39 1   
    36   16   17 ar  
    37   17   18 ar  
    38   17   41 1   
    39   18   19 ar  
    40   18   42 1   
    41   19   40 1   
    42   21   22 1   
    43   21   48 1   
    44   21   49 1   
    45   22   23 1   
    46   22   46 1   
    47   22   47 1   
    48   23   43 1   
    49   23   44 1   
    50   23   45 1   
@<TRIPOS>SUBSTRUCTURE
     1 NLD         1 TEMP              0 ****  ****    0 ROOT
