@<TRIPOS>MOLECULE
NLD
   49    50     1     0     0
SMALL
bcc


@<TRIPOS>ATOM
      1 O19         0.2850    0.0470    0.1920 o         1 NLD     -0.630000
      2 C15         1.5100    0.1460    0.0690 c         1 NLD      0.649100
      3 C16         2.5330    0.0520    1.1670 c3        1 NLD     -0.149400
      4 C17         1.9400   -0.6870    2.3540 c3        1 NLD     -0.147400
      5 C18         2.5530   -0.2260    3.6400 c         1 NLD      0.545100
      6 O14         2.0630    0.3760   -1.1450 os        1 NLD     -0.394900
      7 C13         1.1510    0.4920   -2.2640 c3        1 NLD      0.148400
      8 C7          2.0220    0.5320   -3.5040 c3        1 NLD     -0.083700
      9 C6          1.1660    0.2260   -4.7690 c3        1 NLD      0.236800
     10 N2          1.6680    1.0890   -5.8540 n3        1 NLD     -0.723600
     11 C10         0.6450    1.5370   -6.7640 c3        1 NLD      0.154100
     12 C9          2.4660    2.1650   -5.2650 c3        1 NLD      0.158800
     13 C8          2.6550    1.8970   -3.7650 c3        1 NLD     -0.089400
     14 C2          1.2400   -1.2330   -5.1140 ca        1 NLD     -0.209600
     15 C1          2.4310   -1.8120   -5.6020 ca        1 NLD      0.424200
     16 N1          2.5520   -3.1180   -5.9040 nb        1 NLD     -0.660000
     17 C5          1.4670   -3.8990   -5.7360 ca        1 NLD      0.401200
     18 C4          0.2330   -3.4160   -5.2650 ca        1 NLD     -0.249300
     19 C3          0.1230   -2.0610   -4.9520 ca        1 NLD     -0.097000
     20 O20         3.4920    0.5270    3.8320 o         1 NLD     -0.403100
     21 N21         1.9120   -0.7850    4.9010 n4        1 NLD     -0.684800
     22 C22         0.7410    0.0490    5.3270 c3        1 NLD      0.110800
     23 C23         0.0960   -0.4620    6.5960 c3        1 NLD     -0.135100
     24 H161        2.8380    1.0990    1.4430 hc        1 NLD      0.124200
     25 H162        3.4490   -0.4730    0.7840 hc        1 NLD      0.124200
     26 H171        0.8220   -0.5200    2.3820 hc        1 NLD      0.114700
     27 H172        2.1160   -1.7930    2.2410 hc        1 NLD      0.114700
     28 H131        0.5480    1.4260   -2.1240 h1        1 NLD      0.065700
     29 H132        0.4710   -0.4010   -2.2670 h1        1 NLD      0.065700
     30 H7          2.8300   -0.2430   -3.4060 hc        1 NLD      0.087700
     31 H6          0.0840    0.4760   -4.5380 h1        1 NLD      0.033700
     32 H81C        2.1590    2.6960   -3.1600 hc        1 NLD      0.053200
     33 H82C        3.7390    1.8900   -3.4980 hc        1 NLD      0.053200
     34 H101        1.1350    2.1220   -7.5860 h1        1 NLD      0.040700
     35 H102       -0.1390    2.1840   -6.2810 h1        1 NLD      0.040700
     36 H103        0.1420    0.6380   -7.2090 h1        1 NLD      0.040700
     37 H91C        1.9980    3.1760   -5.4200 h1        1 NLD      0.053700
     38 H92C        3.4590    2.1620   -5.7940 h1        1 NLD      0.053700
     39 H1          3.3310   -1.1910   -5.7700 h4        1 NLD      0.037100
     40 H3         -0.8310   -1.6510   -4.5890 ha        1 NLD      0.132000
     41 H5          1.5970   -4.9640   -6.0000 h4        1 NLD      0.029100
     42 H4         -0.6240   -4.0930   -5.1560 ha        1 NLD      0.147000
     43 H231       -0.7630    0.2150    6.8430 hc        1 NLD      0.080367
     44 H232        0.8070   -0.4470    7.4590 hc        1 NLD      0.080367
     45 H233       -0.3040   -1.4980    6.4720 hc        1 NLD      0.080367
     46 H221        1.1180    1.1030    5.4760 hx        1 NLD      0.111200
     47 H222       -0.0060    0.0460    4.4810 hx        1 NLD      0.111200
     48 H21         2.6050   -0.7910    5.6620 hn        1 NLD      0.477300
     49 H212        1.6020   -1.7470    4.7360 hn        1 NLD      0.477300
@<TRIPOS>BOND
     1    1    2 2   
     2    2    3 1   
     3    2    6 1   
     4    3    4 1   
     5    3   24 1   
     6    3   25 1   
     7    4    5 1   
     8    4   26 1   
     9    4   27 1   
    10    5   20 2   
    11    5   21 1   
    12    6    7 1   
    13    7    8 1   
    14    7   28 1   
    15    7   29 1   
    16    8    9 1   
    17    8   13 1   
    18    8   30 1   
    19    9   10 1   
    20    9   14 1   
    21    9   31 1   
    22   10   11 1   
    23   10   12 1   
    24   11   34 1   
    25   11   35 1   
    26   11   36 1   
    27   12   13 1   
    28   12   37 1   
    29   12   38 1   
    30   13   32 1   
    31   13   33 1   
    32   14   15 ar  
    33   14   19 ar  
    34   15   16 ar  
    35   15   39 1   
    36   16   17 ar  
    37   17   18 ar  
    38   17   41 1   
    39   18   19 ar  
    40   18   42 1   
    41   19   40 1   
    42   21   22 1   
    43   21   48 1   
    44   21   49 1   
    45   22   23 1   
    46   22   46 1   
    47   22   47 1   
    48   23   43 1   
    49   23   44 1   
    50   23   45 1   
@<TRIPOS>SUBSTRUCTURE
     1 NLD         1 TEMP              0 ****  ****    0 ROOT
