@<TRIPOS>MOLECULE
NLD
   48    49     1     0     0
SMALL
bcc


@<TRIPOS>ATOM
      1 O19         1.5660    0.2510    1.8580 o         1 NLD     -0.552000
      2 C15         1.6430    0.3300    0.6290 c         1 NLD      0.632100
      3 C16         2.8430    0.1840   -0.2520 c3        1 NLD     -0.121400
      4 C17         4.1150    0.2100    0.5670 c3        1 NLD     -0.152400
      5 C18         5.3170   -0.0950   -0.3090 c         1 NLD      0.654100
      6 O14         0.5000    0.5780   -0.0780 os        1 NLD     -0.436900
      7 C13        -0.7110    0.7070    0.6880 c3        1 NLD      0.144400
      8 C7         -1.8380    0.8790   -0.3150 c3        1 NLD     -0.076700
      9 C6         -3.2120    0.7710    0.4080 c3        1 NLD      0.228800
     10 N2         -4.0830    1.8410   -0.1130 n3        1 NLD     -0.728600
     11 C10        -4.9060    2.4620    0.8930 c3        1 NLD      0.158100
     12 C9         -3.2690    2.7770   -0.8880 c3        1 NLD      0.159800
     13 C8         -1.8340    2.2460   -0.9940 c3        1 NLD     -0.087400
     14 C2         -3.7970   -0.5990    0.2140 ca        1 NLD     -0.194600
     15 C1         -4.4560   -0.9670   -0.9800 ca        1 NLD      0.423200
     16 N1         -4.9750   -2.1900   -1.1940 nb        1 NLD     -0.669000
     17 C5         -4.8510   -3.1000   -0.2090 ca        1 NLD      0.393200
     18 C4         -4.2150   -2.8330    1.0160 ca        1 NLD     -0.249300
     19 C3         -3.6830   -1.5600    1.2260 ca        1 NLD     -0.096000
     20 O20         5.1950   -0.3780   -1.5180 o         1 NLD     -0.610100
     21 N21         6.5580   -0.0050    0.2900 n         1 NLD     -0.566900
     22 C22         7.7730   -0.3760   -0.3830 c3        1 NLD      0.083000
     23 C23         8.4520   -1.6200    0.1710 c3        1 NLD     -0.121100
     24 H161        2.7590   -0.7850   -0.8150 hc        1 NLD      0.099700
     25 H162        2.8500    1.0050   -1.0180 hc        1 NLD      0.099700
     26 H171        4.2390    1.2170    1.0460 hc        1 NLD      0.078700
     27 H172        4.0500   -0.5500    1.3910 hc        1 NLD      0.078700
     28 H131       -0.8530   -0.2230    1.3010 h1        1 NLD      0.054200
     29 H132       -0.6110    1.5890    1.3710 h1        1 NLD      0.054200
     30 H7         -1.7550    0.0730   -1.0930 hc        1 NLD      0.082700
     31 H6         -3.0440    0.9170    1.5210 h1        1 NLD      0.040700
     32 H81C       -1.1180    2.9420   -0.4910 hc        1 NLD      0.055200
     33 H82C       -1.5230    2.1560   -2.0630 hc        1 NLD      0.055200
     34 H101       -4.3220    2.9960    1.6930 h1        1 NLD      0.034700
     35 H102       -5.5800    3.2040    0.3900 h1        1 NLD      0.034700
     36 H103       -5.5360    1.6710    1.3800 h1        1 NLD      0.034700
     37 H91C       -3.7380    2.8500   -1.9080 h1        1 NLD      0.044700
     38 H92C       -3.2670    3.8090   -0.4390 h1        1 NLD      0.044700
     39 H1         -4.5780   -0.2400   -1.8040 h4        1 NLD      0.037100
     40 H3         -3.1810   -1.3170    2.1740 ha        1 NLD      0.135000
     41 H5         -5.2870   -4.0940   -0.4160 h4        1 NLD      0.021100
     42 H4         -4.1410   -3.6100    1.7870 ha        1 NLD      0.142000
     43 H231        8.7040   -1.4980    1.2520 hc        1 NLD      0.042033
     44 H232        7.8000   -2.5190    0.0580 hc        1 NLD      0.042033
     45 H233        9.3980   -1.7940   -0.3960 hc        1 NLD      0.042033
     46 H221        7.5460   -0.5340   -1.4770 h1        1 NLD      0.062700
     47 H222        8.4890    0.4940   -0.2990 h1        1 NLD      0.062700
     48 H21         6.6030    0.0950    1.2760 hn        1 NLD      0.305500
@<TRIPOS>BOND
     1    1    2 2   
     2    2    3 1   
     3    2    6 1   
     4    3    4 1   
     5    3   24 1   
     6    3   25 1   
     7    4    5 1   
     8    4   26 1   
     9    4   27 1   
    10    5   20 2   
    11    5   21 1   
    12    6    7 1   
    13    7    8 1   
    14    7   28 1   
    15    7   29 1   
    16    8    9 1   
    17    8   13 1   
    18    8   30 1   
    19    9   10 1   
    20    9   14 1   
    21    9   31 1   
    22   10   11 1   
    23   10   12 1   
    24   11   34 1   
    25   11   35 1   
    26   11   36 1   
    27   12   13 1   
    28   12   37 1   
    29   12   38 1   
    30   13   32 1   
    31   13   33 1   
    32   14   15 ar  
    33   14   19 ar  
    34   15   16 ar  
    35   15   39 1   
    36   16   17 ar  
    37   17   18 ar  
    38   17   41 1   
    39   18   19 ar  
    40   18   42 1   
    41   19   40 1   
    42   21   22 1   
    43   21   48 1   
    44   22   23 1   
    45   22   46 1   
    46   22   47 1   
    47   23   43 1   
    48   23   44 1   
    49   23   45 1   
@<TRIPOS>SUBSTRUCTURE
     1 NLD         1 TEMP              0 ****  ****    0 ROOT
