@<TRIPOS>MOLECULE
NLE
   21    20     1     0     0
SMALL
bcc


@<TRIPOS>ATOM
      1 N           0.7080    1.8990    0.2350 n3        1 NLE     -0.891800
      2 CA          0.7040    0.4480    0.3830 c3        1 NLE      0.019500
      3 C           2.0250   -0.2520   -0.0810 c         1 NLE      0.887600
      4 O           2.9590    0.4750   -0.5270 o         1 NLE     -0.845800
      5 OXT         2.0930   -1.5070    0.0360 o         1 NLE     -0.845800
      6 CB         -0.4690   -0.2320   -0.3240 c3        1 NLE     -0.064400
      7 CG         -1.8060    0.1420    0.2770 c3        1 NLE     -0.075400
      8 CD         -2.9390   -0.6160   -0.3850 c3        1 NLE     -0.082400
      9 CE         -4.2750   -0.2520    0.2080 c3        1 NLE     -0.088100
     10 H           1.6270    2.2200    0.4970 hn        1 NLE      0.329300
     11 HN2         0.6050    2.1180   -0.7410 hn        1 NLE      0.329300
     12 HA          0.6120    0.2440    1.4900 h1        1 NLE      0.040700
     13 HB2        -0.4610    0.0260   -1.4150 hc        1 NLE      0.045200
     14 HB3        -0.3060   -1.3400   -0.2400 hc        1 NLE      0.045200
     15 HG2        -1.7980   -0.0830    1.3760 hc        1 NLE      0.035200
     16 HG3        -1.9800    1.2440    0.1680 hc        1 NLE      0.035200
     17 HD2        -2.9420   -0.3940   -1.4850 hc        1 NLE      0.032700
     18 HD3        -2.7640   -1.7180   -0.2730 hc        1 NLE      0.032700
     19 HE1        -4.4760    0.8400    0.0860 hc        1 NLE      0.021033
     20 HE2        -5.0960   -0.8200   -0.2930 hc        1 NLE      0.021033
     21 HE3        -4.2980   -0.4900    1.2990 hc        1 NLE      0.021033
@<TRIPOS>BOND
     1    1    2 1   
     2    1   10 1   
     3    1   11 1   
     4    2    3 1   
     5    2    6 1   
     6    2   12 1   
     7    3    4 1   
     8    3    5 1   
     9    6    7 1   
    10    6   13 1   
    11    6   14 1   
    12    7    8 1   
    13    7   15 1   
    14    7   16 1   
    15    8    9 1   
    16    8   17 1   
    17    8   18 1   
    18    9   19 1   
    19    9   20 1   
    20    9   21 1   
@<TRIPOS>SUBSTRUCTURE
     1 NLE         1 TEMP              0 ****  ****    0 ROOT
