@<TRIPOS>MOLECULE
NLG
   22    20     1     0     0
SMALL
bcc


@<TRIPOS>ATOM
      1 CA         -0.4360   -0.2280   -0.1400 c3        1 NLG     -0.071000
      2 C          -1.9460   -0.1450   -0.1500 c2        1 NLG      0.320000
      3 OXT        -2.6260   -1.0970   -0.6160 o         1 NLG     -0.591500
      4 O          -2.5240    0.8770    0.3040 o         1 NLG     -0.591500
      5 CB          0.0590   -0.2120    1.2890 c3        1 NLG     -0.130000
      6 CG          0.2960   -1.6310    1.7570 c3        1 NLG     -0.208000
      7 CD          0.6800   -1.6220    3.2210 c2        1 NLG      0.323000
      8 OE1        -0.2140   -1.6560    4.1060 o         1 NLG     -0.611500
      9 OE2         1.8930   -1.5740    3.5530 o         1 NLG     -0.611500
     10 C7          0.2310    0.8350   -2.2530 c1        1 NLG      0.286000
     11 C8          0.8080    2.0180   -3.0000 c2        1 NLG     -0.247000
     12 O7         -0.1190   -0.1550   -2.8620 o         1 NLG     -0.432000
     13 N2          0.1040    0.8820   -0.8410 n3        1 NLG     -0.294000
     14 HA         -0.1520   -1.0570   -0.5730 h1        1 NLG      0.108000
     15 HBC1       -0.6100    0.2130    1.8620 hc        1 NLG      0.088000
     16 HBC2        0.8970    0.2910    1.3380 hc        1 NLG      0.088000
     17 HGC1        1.0180   -2.0310    1.2330 hc        1 NLG      0.058500
     18 HGC2       -0.5220   -2.1540    1.6380 hc        1 NLG      0.058500
     19 H8C1        1.7770    2.0550   -2.8560 ha        1 NLG      0.080000
     20 H8C2        0.3970    2.8450   -2.6700 ha        1 NLG      0.080000
     21 H8C3        0.6230    1.9210   -3.9570 ha        1 NLG      0.080000
     22 H2          0.3680    1.6260   -0.3830 hn        1 NLG      0.218000
@<TRIPOS>BOND
     1    1    2 1   
     2    1    5 1   
     3    1   13 1   
     4    1   14 1   
     5    2    3 1   
     6    2    4 1   
     7    5    6 1   
     8    5   15 1   
     9    5   16 1   
    10    6    7 1   
    11    6   17 1   
    12    6   18 1   
    13    7    8 1   
    14    7    9 1   
    15   10   12 1   
    16   10   13 1   
    17   11   19 1   
    18   11   20 1   
    19   11   21 1   
    20   13   22 1   
@<TRIPOS>SUBSTRUCTURE
     1 NLG         1 TEMP              0 ****  ****    0 ROOT
