@<TRIPOS>MOLECULE
NLG
   22    21     1     0     0
SMALL
bcc


@<TRIPOS>ATOM
      1 CA         -0.3960   -0.2970   -0.5860 c3        1 NLG     -0.044300
      2 C          -1.7000    0.0090   -1.3980 c         1 NLG      0.900600
      3 OXT        -1.7950    1.1140   -2.0150 o         1 NLG     -0.856800
      4 O          -2.5970   -0.8780   -1.4160 o         1 NLG     -0.856800
      5 CB         -0.6570    0.0060    0.8990 c3        1 NLG     -0.051400
      6 CG          0.4200   -0.5220    1.8170 c3        1 NLG     -0.179400
      7 CD          0.2380   -0.0730    3.2720 c         1 NLG      0.903600
      8 OE1         0.2430    1.1650    3.5490 o         1 NLG     -0.876800
      9 OE2         0.1360   -0.9640    4.1710 o         1 NLG     -0.876800
     10 C7          1.7270   -0.0740   -1.8730 c         1 NLG      0.642100
     11 C8          2.6210    0.9120   -2.6120 c3        1 NLG     -0.179100
     12 O7          1.9940   -1.2980   -1.9440 o         1 NLG     -0.671100
     13 N2          0.7300    0.4640   -1.1070 n         1 NLG     -0.484900
     14 HA         -0.1640   -1.3940   -0.6980 h1        1 NLG      0.068700
     15 HBC1       -0.7690    1.1100    1.0570 hc        1 NLG      0.048700
     16 HBC2       -1.6390   -0.4730    1.1530 hc        1 NLG      0.048700
     17 HGC1        0.4340   -1.6410    1.7790 hc        1 NLG      0.019200
     18 HGC2        1.4240   -0.1570    1.4800 hc        1 NLG      0.019200
     19 H8C1        3.4290    0.3470   -3.1340 hc        1 NLG      0.040700
     20 H8C2        2.0250    1.4780   -3.3660 hc        1 NLG      0.040700
     21 H8C3        3.0840    1.6330   -1.8980 hc        1 NLG      0.040700
     22 H2          0.4890    1.4170   -1.2900 hn        1 NLG      0.304500
@<TRIPOS>BOND
     1    1    2 1   
     2    1    5 1   
     3    1   13 1   
     4    1   14 1   
     5    2    3 1   
     6    2    4 1   
     7    5    6 1   
     8    5   15 1   
     9    5   16 1   
    10    6    7 1   
    11    6   17 1   
    12    6   18 1   
    13    7    8 1   
    14    7    9 1   
    15   10   11 1   
    16   10   12 2   
    17   10   13 1   
    18   11   19 1   
    19   11   20 1   
    20   11   21 1   
    21   13   22 1   
@<TRIPOS>SUBSTRUCTURE
     1 NLG         1 TEMP              0 ****  ****    0 ROOT
