@<TRIPOS>MOLECULE
NLG
   22    21     1     0     0
SMALL
bcc


@<TRIPOS>ATOM
      1 CA          1.5180    0.0770   -0.0010 c3        1 NLG     -0.044300
      2 C          -0.0470    0.0450    0.0760 c         1 NLG      0.900600
      3 OXT        -0.6890    1.1330   -0.0290 o         1 NLG     -0.856800
      4 O          -0.6000   -1.0800    0.2200 o         1 NLG     -0.856800
      5 CB          2.0830    0.0360    1.4290 c3        1 NLG     -0.051400
      6 CG          3.5690   -0.2320    1.4790 c3        1 NLG     -0.179400
      7 CD          4.1520   -0.1050    2.8910 c         1 NLG      0.903600
      8 OE1         4.0650    1.0010    3.5060 o         1 NLG     -0.876800
      9 OE2         4.7530   -1.1070    3.3890 o         1 NLG     -0.876800
     10 C7          2.4540    1.2060   -2.0160 c         1 NLG      0.642100
     11 C8          2.5600    2.5400   -2.7420 c3        1 NLG     -0.179100
     12 O7          2.8720    0.1730   -2.5930 o         1 NLG     -0.671100
     13 N2          1.9780    1.2460   -0.7350 n         1 NLG     -0.484900
     14 HA          1.8600   -0.8450   -0.5530 h1        1 NLG      0.068700
     15 HBC1        1.8630    0.9970    1.9620 hc        1 NLG      0.048700
     16 HBC2        1.5330   -0.7820    1.9650 hc        1 NLG      0.048700
     17 HGC1        3.7810   -1.2590    1.0870 hc        1 NLG      0.019200
     18 HGC2        4.1120    0.5000    0.8280 hc        1 NLG      0.019200
     19 H8C1        3.0270    2.3720   -3.7410 hc        1 NLG      0.040700
     20 H8C2        3.1890    3.2540   -2.1610 hc        1 NLG      0.040700
     21 H8C3        1.5450    2.9800   -2.8830 hc        1 NLG      0.040700
     22 H2          1.4920    2.0770   -0.4640 hn        1 NLG      0.304500
@<TRIPOS>BOND
     1    1    2 1   
     2    1    5 1   
     3    1   13 1   
     4    1   14 1   
     5    2    3 1   
     6    2    4 1   
     7    5    6 1   
     8    5   15 1   
     9    5   16 1   
    10    6    7 1   
    11    6   17 1   
    12    6   18 1   
    13    7    8 1   
    14    7    9 1   
    15   10   11 1   
    16   10   12 2   
    17   10   13 1   
    18   11   19 1   
    19   11   20 1   
    20   11   21 1   
    21   13   22 1   
@<TRIPOS>SUBSTRUCTURE
     1 NLG         1 TEMP              0 ****  ****    0 ROOT
