@<TRIPOS>MOLECULE
NLI
   57    58     1     0     0
SMALL
bcc


@<TRIPOS>ATOM
      1 C01         0.0000    0.0000    0.0000 c3        1 NLI      0.056100
      2 C02         1.5080    0.0000    0.0000 cc        1 NLI     -0.109600
      3 C03         2.1740    0.0000    1.1740 cd        1 NLI      0.016600
      4 N04         3.5040    0.0010    1.2250 nd        1 NLI     -0.245300
      5 C05         4.2200    0.0010    0.1210 cc        1 NLI      0.055200
      6 N06         5.6070    0.0010    0.1810 ny        1 NLI      0.178000
      7 C07         6.2840    0.0000    1.4800 c3        1 NLI     -0.092200
      8 C08         7.8000    0.0010    1.2660 c3        1 NLI      0.451900
      9 F09         8.1680   -1.1410    0.5480 f         1 NLI     -0.197300
     10 F10         8.1680    1.1430    0.5470 f         1 NLI     -0.197300
     11 C11         8.4960    0.0000    2.6020 ca        1 NLI     -0.243300
     12 C12         8.8100    1.1980    3.2180 ca        1 NLI     -0.038500
     13 C13         9.4500    1.1980    4.4430 ca        1 NLI     -0.062500
     14 C14         9.7740    0.0000    5.0540 ca        1 NLI     -0.033000
     15 C15         9.4590   -1.1960    4.4390 ca        1 NLI     -0.062500
     16 C16         8.8150   -1.1960    3.2150 ca        1 NLI     -0.038500
     17 C17         3.5320    0.0000   -1.1750 c         1 NLI      0.511200
     18 O18         4.1640    0.0010   -2.2180 o         1 NLI     -0.639500
     19 N19         2.1800   -0.0050   -1.1860 n         1 NLI      0.130000
     20 C20         1.4470   -0.0120   -2.4550 c3        1 NLI     -0.036000
     21 C21         1.1960    1.4060   -2.8960 c         1 NLI      0.305100
     22 O22         1.5890    2.3320   -2.2190 o         1 NLI     -0.361100
     23 N23         0.5330    1.6470   -4.0460 ny        1 NLI      0.157200
     24 C24         0.2890    3.0260   -4.4750 c3        1 NLI     -0.002200
     25 C25        -0.4760    3.0190   -5.8000 c3        1 NLI      0.215400
     26 O26        -1.7710    2.4500   -5.6000 os        1 NLI     -0.380100
     27 N27        -2.5650    2.3970   -6.7720 ny        1 NLI      0.321500
     28 C28        -3.8340    1.8730   -6.7180 c2        1 NLI     -0.052900
     29 N29        -4.3080    1.4240   -5.5900 n2        1 NLI     -0.187100
     30 N30        -4.6050    1.8210   -7.8550 nz        1 NLI      0.192400
     31 HN29       -3.7490    1.4610   -4.7610 hn        1 NLI      0.376400
     32 H01        -0.3610   -0.8730   -0.5300 hc        1 NLI      0.035033
     33 H01A       -0.3610   -0.0230    1.0210 hc        1 NLI      0.035033
     34 H4         -0.3610    0.8960   -0.4910 hc        1 NLI      0.035033
     35 H03         1.6110    0.0000    2.1000 h4        1 NLI      0.189000
     36 H6          5.9190    0.8150   -0.3100 hn        1 NLI      0.245800
     37 H07         5.9980    0.8840    2.0370 hx        1 NLI      0.112700
     38 H07A        5.9990   -0.8850    2.0360 hx        1 NLI      0.112700
     39 H12         8.5690    2.1360    2.7330 ha        1 NLI      0.113500
     40 H13         9.7150    2.1360    4.9160 ha        1 NLI      0.132500
     41 H14        10.2760    0.0000    6.0140 ha        1 NLI      0.134000
     42 H15         9.7130   -2.1350    4.9170 ha        1 NLI      0.132500
     43 H16         8.5680   -2.1340    2.7330 ha        1 NLI      0.113500
     44 H20         0.5010   -0.5220   -2.3220 h1        1 NLI      0.094700
     45 H20A        2.0330   -0.5270   -3.2070 h1        1 NLI      0.094700
     46 HN23       -0.3610    1.2040   -3.9640 hn        1 NLI      0.258300
     47 H24        -0.2970    3.5390   -3.7220 hx        1 NLI      0.130700
     48 H24A        1.2360    3.5360   -4.6060 hx        1 NLI      0.130700
     49 H25         0.0690    2.4300   -6.5280 h1        1 NLI      0.068700
     50 H25A       -0.5790    4.0350   -6.1620 h1        1 NLI      0.068700
     51 HN27       -2.0550    1.8590   -7.4440 hn        1 NLI      0.245300
     52 HN30       -4.0660    1.4380   -8.6070 hn        1 NLI      0.260467
     53 HN3A       -4.9060    2.7440   -8.0970 hn        1 NLI      0.260467
     54 H062        5.9200   -0.8130   -0.3100 hn        1 NLI      0.245800
     55 H232        1.0500    1.2020   -4.7780 hn        1 NLI      0.258300
     56 H272       -2.6520    3.3360   -7.1070 hn        1 NLI      0.245300
     57 H303       -5.4060    1.2440   -7.6900 hn        1 NLI      0.260467
@<TRIPOS>BOND
     1    1    2 1   
     2    1   32 1   
     3    1   33 1   
     4    1   34 1   
     5    2    3 2   
     6    2   19 1   
     7    3    4 1   
     8    3   35 1   
     9    4    5 2   
    10    5    6 1   
    11    5   17 1   
    12    6    7 1   
    13    6   36 1   
    14    6   54 1   
    15    7    8 1   
    16    7   37 1   
    17    7   38 1   
    18    8    9 1   
    19    8   10 1   
    20    8   11 1   
    21   11   12 ar  
    22   11   16 ar  
    23   12   13 ar  
    24   12   39 1   
    25   13   14 ar  
    26   13   40 1   
    27   14   15 ar  
    28   14   41 1   
    29   15   16 ar  
    30   15   42 1   
    31   16   43 1   
    32   17   18 2   
    33   17   19 1   
    34   19   20 1   
    35   20   21 1   
    36   20   44 1   
    37   20   45 1   
    38   21   22 2   
    39   21   23 1   
    40   23   24 1   
    41   23   46 1   
    42   23   55 1   
    43   24   25 1   
    44   24   47 1   
    45   24   48 1   
    46   25   26 1   
    47   25   49 1   
    48   25   50 1   
    49   26   27 1   
    50   27   28 1   
    51   27   51 1   
    52   27   56 1   
    53   28   29 2   
    54   28   30 1   
    55   29   31 1   
    56   30   52 1   
    57   30   53 1   
    58   30   57 1   
@<TRIPOS>SUBSTRUCTURE
     1 NLI         1 TEMP              0 ****  ****    0 ROOT
