@<TRIPOS>MOLECULE
NLI
   53    49     1     0     0
SMALL
bcc


@<TRIPOS>ATOM
      1 C01        -4.3870    0.5700    2.0250 c3        1 NLI     -0.189000
      2 C02        -2.8730    0.4070    1.9930 c2        1 NLI     -0.022000
      3 C03        -2.0960    0.3890    3.2840 c1        1 NLI     -0.142000
      4 N04        -0.6950    0.2860    3.2610 n1        1 NLI     -0.158000
      5 C05         0.0000    0.2060    2.0080 c1        1 NLI      0.057000
      6 N06         1.3930    0.0300    1.9900 n2        1 NLI     -0.276000
      7 C07         2.0850   -0.4120    3.1900 c3        1 NLI     -0.068000
      8 C08         3.5160   -0.8330    2.8240 c3        1 NLI      0.302000
      9 F09         3.4790   -1.6980    1.7820 f         1 NLI     -0.163000
     10 F10         4.2260    0.2580    2.4750 f         1 NLI     -0.163000
     11 C11         4.1850   -1.5250    4.0430 c2        1 NLI     -0.151000
     12 C12         4.9690   -0.7890    4.9120 c2        1 NLI     -0.095000
     13 C13         5.6420   -1.4280    5.9560 c1        1 NLI     -0.131000
     14 C14         5.5250   -2.8050    6.1210 c1        1 NLI     -0.120500
     15 C15         4.7380   -3.5420    5.2470 c1        1 NLI     -0.120500
     16 C16         4.0670   -2.9060    4.2070 c1        1 NLI     -0.097000
     17 C17        -0.7730    0.2730    0.7100 c2        1 NLI      0.285000
     18 O18        -0.1830    0.2050   -0.3590 o         1 NLI     -0.382000
     19 N19        -2.1810    0.3390    0.7340 n         1 NLI     -0.215000
     20 C20        -2.9040    0.1920   -0.4460 c3        1 NLI     -0.062000
     21 C21        -2.4830    1.2930   -1.4550 c2        1 NLI      0.285000
     22 O22        -1.6500    2.1500   -1.1240 o         1 NLI     -0.364000
     23 N23        -3.1440    1.3820   -2.7520 n         1 NLI     -0.369000
     24 C24        -2.4010    1.8240   -3.9090 c3        1 NLI     -0.055000
     25 C25        -3.0550    1.2770   -5.1790 c3        1 NLI     -0.107000
     26 O26        -2.5640    1.9820   -6.3050 os        1 NLI     -0.171000
     27 N27        -1.2060    1.7340   -6.4650 n3        1 NLI     -0.133000
     28 C28        -0.7630    0.9290   -7.5260 c2        1 NLI      0.095000
     29 N29        -0.5550    1.4330   -8.6450 n1        1 NLI     -0.312000
     30 N30        -0.5540   -0.4510   -7.3240 n3        1 NLI     -0.324000
     31 HN29       -0.6880    2.3110   -8.7740 DU        1 NLI      0.156000
     32 H01        -4.6870    0.6960    2.9650 hc        1 NLI      0.105000
     33 H01A       -4.6420    1.3450    1.4980 hc        1 NLI      0.105000
     34 H4         -4.8100   -0.2300    1.6530 hc        1 NLI      0.105000
     35 H03        -2.5780    0.4450    4.1580 ha        1 NLI      0.177000
     36 H6          1.8660    0.2370    1.2430 hn        1 NLI      0.242000
     37 H07         2.1160    0.3260    3.8430 h1        1 NLI      0.117000
     38 H07A        1.6130   -1.1670    3.5770 h1        1 NLI      0.117000
     39 H12         5.0520    0.1780    4.7960 ha        1 NLI      0.147000
     40 H13         6.1900   -0.9130    6.5640 ha        1 NLI      0.140000
     41 H14         5.9960   -3.2530    6.8530 ha        1 NLI      0.138000
     42 H15         4.6540   -4.5160    5.3630 ha        1 NLI      0.138000
     43 H16         3.5070   -3.4300    3.5850 ha        1 NLI      0.145000
     44 H20        -3.8470    0.2740   -0.2580 h1        1 NLI      0.137500
     45 H20A       -2.7240   -0.6880   -0.8310 h1        1 NLI      0.137500
     46 HN23       -4.0320    1.2230   -2.8180 hn        1 NLI      0.252000
     47 H24        -2.3970    2.7890   -3.9400 h1        1 NLI      0.108000
     48 H24A       -1.4720    1.4930   -3.8490 h1        1 NLI      0.108000
     49 H25        -2.8430    0.3240   -5.2710 h1        1 NLI      0.113500
     50 H25A       -4.0350    1.3930   -5.1210 h1        1 NLI      0.113500
     51 HN27       -0.5840    2.1970   -5.9410 hn        1 NLI      0.165000
     52 HN30       -0.9040   -0.8570   -6.6060 hn        1 NLI      0.199000
     53 HN3A       -0.1120   -0.9460   -7.9620 hn        1 NLI      0.199000
@<TRIPOS>BOND
     1    1    2 1   
     2    1   32 1   
     3    1   33 1   
     4    1   34 1   
     5    2    3 1   
     6    2   19 1   
     7    3   35 1   
     8    4    5 1   
     9    5   17 1   
    10    6    7 1   
    11    6   36 1   
    12    7    8 1   
    13    7   37 1   
    14    7   38 1   
    15    8    9 1   
    16    8   10 1   
    17    8   11 1   
    18   11   12 1   
    19   11   16 1   
    20   12   13 1   
    21   12   39 1   
    22   13   40 1   
    23   14   15 1   
    24   14   41 1   
    25   15   42 1   
    26   16   43 1   
    27   17   18 1   
    28   17   19 1   
    29   19   20 1   
    30   20   21 1   
    31   20   44 1   
    32   20   45 1   
    33   21   22 1   
    34   21   23 1   
    35   23   24 1   
    36   23   46 1   
    37   24   25 1   
    38   24   47 1   
    39   24   48 1   
    40   25   26 1   
    41   25   49 1   
    42   25   50 1   
    43   26   27 1   
    44   27   28 1   
    45   27   51 1   
    46   28   29 1   
    47   28   30 1   
    48   30   52 1   
    49   30   53 1   
@<TRIPOS>SUBSTRUCTURE
     1 NLI         1 TEMP              0 ****  ****    0 ROOT
