@<TRIPOS>MOLECULE
NLI
   53    54     1     0     0
SMALL
bcc


@<TRIPOS>ATOM
      1 C01        -0.8250    2.1800    2.0400 c3        1 NLI     -0.067900
      2 C02         0.3340    1.4400    1.4680 cc        1 NLI     -0.022600
      3 C03         1.6010    1.5950    1.9960 cd        1 NLI     -0.003400
      4 N04         2.7290    0.9510    1.5410 nd        1 NLI     -0.584300
      5 C05         2.5870    0.1290    0.5050 cc        1 NLI      0.565200
      6 N06         3.6200   -0.6840    0.0340 nh        1 NLI     -0.787200
      7 C07         4.9790   -0.3660    0.3850 c3        1 NLI      0.165800
      8 C08         6.0300   -1.2340   -0.4000 c3        1 NLI      0.452900
      9 F09         5.8260   -2.5870   -0.2090 f         1 NLI     -0.233800
     10 F10         5.8490   -1.1240   -1.7670 f         1 NLI     -0.233800
     11 C11         7.4100   -0.7780    0.0520 ca        1 NLI     -0.158300
     12 C12         8.0720    0.2380   -0.6420 ca        1 NLI     -0.095500
     13 C13         9.3210    0.6750   -0.2020 ca        1 NLI     -0.131500
     14 C14         9.9080    0.0990    0.9250 ca        1 NLI     -0.110000
     15 C15         9.2460   -0.9190    1.6130 ca        1 NLI     -0.131500
     16 C16         7.9970   -1.3600    1.1780 ca        1 NLI     -0.095500
     17 C17         1.2580   -0.0540   -0.2020 c         1 NLI      0.561200
     18 O18         1.1290   -0.7100   -1.2580 o         1 NLI     -0.658500
     19 N19         0.1510    0.5740    0.3800 n         1 NLI     -0.324000
     20 C20        -1.1600    0.3630   -0.1880 c3        1 NLI      0.005000
     21 C21        -1.5110    1.3720   -1.2980 c         1 NLI      0.639100
     22 O22        -2.3820    2.2410   -1.0920 o         1 NLI     -0.614100
     23 N23        -0.8680    1.2200   -2.5000 n         1 NLI     -0.548900
     24 C24        -1.0400    2.1320   -3.5940 c3        1 NLI      0.063000
     25 C25         0.1730    3.0250   -3.8710 c3        1 NLI      0.106400
     26 O26         1.4190    2.2920   -3.9210 os        1 NLI     -0.246100
     27 N27         1.4860    1.3620   -4.8910 nh        1 NLI     -0.576700
     28 C28         2.3450    1.8100   -6.0130 c2        1 NLI      0.691100
     29 N29         2.6600    3.0440   -6.2980 n2        1 NLI     -0.845100
     30 N30         2.8180    0.7380   -6.8310 nh        1 NLI     -0.879800
     31 HN29        2.3960    3.7210   -5.6140 hn        1 NLI      0.401400
     32 H01        -1.4830    1.4860    2.6210 hc        1 NLI      0.065700
     33 H01A       -1.4370    2.6630    1.2350 hc        1 NLI      0.065700
     34 H4         -0.4560    2.9770    2.7330 hc        1 NLI      0.065700
     35 H03         1.7810    2.2710    2.8490 h4        1 NLI      0.176000
     36 H6          3.4800   -1.0320   -0.8950 hn        1 NLI      0.444800
     37 H07         5.1250   -0.5710    1.4830 h1        1 NLI      0.077700
     38 H07A        5.2300    0.7140    0.1820 h1        1 NLI      0.077700
     39 H12         7.6100    0.6820   -1.5370 ha        1 NLI      0.147000
     40 H13         9.8440    1.4740   -0.7490 ha        1 NLI      0.139000
     41 H14        10.8930    0.4450    1.2700 ha        1 NLI      0.137000
     42 H15         9.7100   -1.3780    2.4990 ha        1 NLI      0.139000
     43 H16         7.4750   -2.1700    1.7100 ha        1 NLI      0.147000
     44 H20        -1.9430    0.4610    0.6160 h1        1 NLI      0.097700
     45 H20A       -1.2050   -0.6840   -0.6110 h1        1 NLI      0.097700
     46 HN23       -0.1130    0.5700   -2.5660 hn        1 NLI      0.340500
     47 H24        -1.9240    2.8020   -3.3860 h1        1 NLI      0.074200
     48 H24A       -1.2620    1.5250   -4.5190 h1        1 NLI      0.074200
     49 H25         0.0110    3.5860   -4.8270 h1        1 NLI      0.066700
     50 H25A        0.3700    3.7380   -3.0260 h1        1 NLI      0.066700
     51 HN27        1.8930    0.5340   -4.4570 hn        1 NLI      0.401800
     52 HN30        3.2720    1.0580   -7.6630 hn        1 NLI      0.397800
     53 HN3A        2.1140    0.0590   -7.0320 hn        1 NLI      0.397800
@<TRIPOS>BOND
     1    1    2 1   
     2    1   32 1   
     3    1   33 1   
     4    1   34 1   
     5    2    3 2   
     6    2   19 1   
     7    3    4 1   
     8    3   35 1   
     9    4    5 2   
    10    5    6 1   
    11    5   17 1   
    12    6    7 1   
    13    6   36 1   
    14    7    8 1   
    15    7   37 1   
    16    7   38 1   
    17    8    9 1   
    18    8   10 1   
    19    8   11 1   
    20   11   12 ar  
    21   11   16 ar  
    22   12   13 ar  
    23   12   39 1   
    24   13   14 ar  
    25   13   40 1   
    26   14   15 ar  
    27   14   41 1   
    28   15   16 ar  
    29   15   42 1   
    30   16   43 1   
    31   17   18 2   
    32   17   19 1   
    33   19   20 1   
    34   20   21 1   
    35   20   44 1   
    36   20   45 1   
    37   21   22 2   
    38   21   23 1   
    39   23   24 1   
    40   23   46 1   
    41   24   25 1   
    42   24   47 1   
    43   24   48 1   
    44   25   26 1   
    45   25   49 1   
    46   25   50 1   
    47   26   27 1   
    48   27   28 1   
    49   27   51 1   
    50   28   29 2   
    51   28   30 1   
    52   29   31 1   
    53   30   52 1   
    54   30   53 1   
@<TRIPOS>SUBSTRUCTURE
     1 NLI         1 TEMP              0 ****  ****    0 ROOT
