@<TRIPOS>MOLECULE
NLI
   53    54     1     0     0
SMALL
bcc


@<TRIPOS>ATOM
      1 C01         1.7690   -3.7560   -2.7880 c3        1 NLI     -0.068900
      2 C02         1.0050   -2.9360   -1.8080 cc        1 NLI     -0.002600
      3 C03        -0.3730   -2.8490   -1.8910 cd        1 NLI     -0.011400
      4 N04        -1.1660   -2.1070   -1.0480 nd        1 NLI     -0.575300
      5 C05        -0.5590   -1.4230   -0.0840 cc        1 NLI      0.551200
      6 N06        -1.2620   -0.7300    0.9100 nh        1 NLI     -0.784200
      7 C07        -2.6280   -0.3510    0.6620 c3        1 NLI      0.164800
      8 C08        -3.1270    0.7990    1.6110 c3        1 NLI      0.448900
      9 F09        -2.9630    0.4750    2.9440 f         1 NLI     -0.235800
     10 F10        -2.3180    1.9180    1.5070 f         1 NLI     -0.235800
     11 C11        -4.5770    1.0840    1.2480 ca        1 NLI     -0.157300
     12 C12        -4.8770    2.0260    0.2600 ca        1 NLI     -0.096000
     13 C13        -6.2050    2.2580   -0.0960 ca        1 NLI     -0.131000
     14 C14        -7.2310    1.5540    0.5350 ca        1 NLI     -0.110000
     15 C15        -6.9300    0.6180    1.5250 ca        1 NLI     -0.131000
     16 C16        -5.6040    0.3820    1.8840 ca        1 NLI     -0.096000
     17 C17         0.9490   -1.4080    0.0700 c         1 NLI      0.571200
     18 O18         1.5360   -0.7030    0.9210 o         1 NLI     -0.681500
     19 N19         1.6730   -2.2370   -0.7940 n         1 NLI     -0.307000
     20 C20         3.1130   -2.3000   -0.6720 c3        1 NLI      0.007000
     21 C21         3.8710   -1.3070   -1.5750 c         1 NLI      0.631100
     22 O22         3.4580   -1.0210   -2.7170 o         1 NLI     -0.610100
     23 N23         5.0820   -0.8480   -1.0970 n         1 NLI     -0.536900
     24 C24         5.7800    0.2250   -1.7510 c3        1 NLI      0.068000
     25 C25         5.4260    1.6300   -1.2460 c3        1 NLI      0.100400
     26 O26         5.8050    1.6850    0.1530 os        1 NLI     -0.237100
     27 N27         4.9100    2.2970    0.9470 nh        1 NLI     -0.521700
     28 C28         3.9330    1.3530    1.5650 c2        1 NLI      0.691100
     29 N29         4.2530    0.1190    1.8450 n2        1 NLI     -0.870100
     30 N30         2.6900    1.9730    1.8660 nh        1 NLI     -0.923800
     31 HN29        3.5140   -0.4470    2.2090 hn        1 NLI      0.408400
     32 H01         2.2390   -4.6390   -2.2870 hc        1 NLI      0.065700
     33 H01A        1.0790   -4.1300   -3.5840 hc        1 NLI      0.065700
     34 H4          2.5710   -3.1400   -3.2730 hc        1 NLI      0.065700
     35 H03        -0.9300   -3.3930   -2.6740 h4        1 NLI      0.176000
     36 H6         -0.7090   -0.0530    1.3990 hn        1 NLI      0.436800
     37 H07        -2.7910    0.0090   -0.3940 h1        1 NLI      0.078700
     38 H07A       -3.2830   -1.2480    0.8430 h1        1 NLI      0.078700
     39 H12        -4.0630    2.5860   -0.2280 ha        1 NLI      0.146500
     40 H13        -6.4410    2.9990   -0.8730 ha        1 NLI      0.139000
     41 H14        -8.2780    1.7380    0.2530 ha        1 NLI      0.137000
     42 H15        -7.7390    0.0650    2.0260 ha        1 NLI      0.139000
     43 H16        -5.3600   -0.3490    2.6720 ha        1 NLI      0.146500
     44 H20         3.3690   -2.1180    0.4130 h1        1 NLI      0.095700
     45 H20A        3.4650   -3.3340   -0.9560 h1        1 NLI      0.095700
     46 HN23        5.2740   -0.9460   -0.1230 hn        1 NLI      0.335500
     47 H24         6.8820    0.0530   -1.5880 h1        1 NLI      0.073700
     48 H24A        5.5610    0.1940   -2.8570 h1        1 NLI      0.073700
     49 H25         6.0600    2.3910   -1.7720 h1        1 NLI      0.061700
     50 H25A        4.3440    1.8630   -1.4070 h1        1 NLI      0.061700
     51 HN27        5.4610    2.6820    1.7180 hn        1 NLI      0.393800
     52 HN30        2.5040    2.8250    1.3850 hn        1 NLI      0.405800
     53 HN3A        1.9140    1.3430    1.8600 hn        1 NLI      0.405800
@<TRIPOS>BOND
     1    1    2 1   
     2    1   32 1   
     3    1   33 1   
     4    1   34 1   
     5    2    3 2   
     6    2   19 1   
     7    3    4 1   
     8    3   35 1   
     9    4    5 2   
    10    5    6 1   
    11    5   17 1   
    12    6    7 1   
    13    6   36 1   
    14    7    8 1   
    15    7   37 1   
    16    7   38 1   
    17    8    9 1   
    18    8   10 1   
    19    8   11 1   
    20   11   12 ar  
    21   11   16 ar  
    22   12   13 ar  
    23   12   39 1   
    24   13   14 ar  
    25   13   40 1   
    26   14   15 ar  
    27   14   41 1   
    28   15   16 ar  
    29   15   42 1   
    30   16   43 1   
    31   17   18 2   
    32   17   19 1   
    33   19   20 1   
    34   20   21 1   
    35   20   44 1   
    36   20   45 1   
    37   21   22 2   
    38   21   23 1   
    39   23   24 1   
    40   23   46 1   
    41   24   25 1   
    42   24   47 1   
    43   24   48 1   
    44   25   26 1   
    45   25   49 1   
    46   25   50 1   
    47   26   27 1   
    48   27   28 1   
    49   27   51 1   
    50   28   29 2   
    51   28   30 1   
    52   29   31 1   
    53   30   52 1   
    54   30   53 1   
@<TRIPOS>SUBSTRUCTURE
     1 NLI         1 TEMP              0 ****  ****    0 ROOT
