@<TRIPOS>MOLECULE
NLN
   23    22     1     0     0
SMALL
bcc


@<TRIPOS>ATOM
      1 N           1.3140   -0.8170   -0.9350 n3        1 NLN     -0.910800
      2 CA         -0.0860   -0.5140   -0.7090 c3        1 NLN      0.095500
      3 C          -0.7330    0.1020   -1.9690 c         1 NLN      0.655100
      4 O          -1.4420    1.1270   -1.9030 o         1 NLN     -0.620100
      5 CB         -0.3870    0.4040    0.4840 c3        1 NLN     -0.112400
      6 CG          0.0480   -0.2150    1.7930 c3        1 NLN     -0.081400
      7 CD         -0.4300    0.6100    2.9700 c3        1 NLN     -0.079400
      8 CE          0.0210    0.0180    4.2800 c3        1 NLN     -0.093100
      9 NH2        -0.5610   -0.5480   -3.1620 n         1 NLN     -0.659000
     10 H           1.6820   -1.3190   -0.1500 hn        1 NLN      0.355800
     11 H2          1.8420    0.0260   -1.0570 hn        1 NLN      0.355800
     12 HA         -0.6140   -1.5010   -0.5290 h1        1 NLN      0.075700
     13 HB2        -1.4920    0.6020    0.5030 hc        1 NLN      0.066200
     14 HB3         0.1170    1.3940    0.3370 hc        1 NLN      0.066200
     15 HG2         1.1670   -0.2950    1.8330 hc        1 NLN      0.035200
     16 HG3        -0.3610   -1.2570    1.8770 hc        1 NLN      0.035200
     17 HD2        -1.5500    0.6740    2.9500 hc        1 NLN      0.043700
     18 HD3        -0.0390    1.6580    2.8730 hc        1 NLN      0.043700
     19 HE1        -0.3470    0.6390    5.1320 hc        1 NLN      0.033367
     20 HE2        -0.3760   -1.0190    4.4020 hc        1 NLN      0.033367
     21 HE3         1.1350   -0.0260    4.3310 hc        1 NLN      0.033367
     22 HH21       -0.9320   -0.1490   -3.9880 hn        1 NLN      0.314500
     23 HH22        0.0860   -1.2900   -3.2440 hn        1 NLN      0.314500
@<TRIPOS>BOND
     1    1    2 1   
     2    1   10 1   
     3    1   11 1   
     4    2    3 1   
     5    2    5 1   
     6    2   12 1   
     7    3    4 2   
     8    3    9 1   
     9    5    6 1   
    10    5   13 1   
    11    5   14 1   
    12    6    7 1   
    13    6   15 1   
    14    6   16 1   
    15    7    8 1   
    16    7   17 1   
    17    7   18 1   
    18    8   19 1   
    19    8   20 1   
    20    8   21 1   
    21    9   22 1   
    22    9   23 1   
@<TRIPOS>SUBSTRUCTURE
     1 NLN         1 TEMP              0 ****  ****    0 ROOT
