@<TRIPOS>MOLECULE
NLN
   23    22     1     0     0
SMALL
bcc


@<TRIPOS>ATOM
      1 N          -1.9730   -0.7170    1.1050 n3        1 NLN     -0.883800
      2 CA         -0.5510   -0.7170    1.1050 c3        1 NLN      0.107500
      3 C          -0.0470   -0.7170    2.5300 c         1 NLN      0.609100
      4 O          -0.1030    0.2990    3.1940 o         1 NLN     -0.625100
      5 CB         -0.0470    0.5170    0.3920 c3        1 NLN     -0.073400
      6 CG          0.1230    0.2150   -1.0800 c3        1 NLN     -0.077400
      7 CD          0.6230    1.4510   -1.7940 c3        1 NLN     -0.081400
      8 CE          0.8010    1.1470   -3.2650 c3        1 NLN     -0.092100
      9 NH2         0.4960   -1.9020    3.0900 n         1 NLN     -0.671000
     10 H          -2.2780   -0.5740    1.9530 hn        1 NLN      0.360300
     11 H2         -2.2780   -1.5230    0.8040 hn        1 NLN      0.360300
     12 HA         -0.2250   -1.5140    0.6450 h1        1 NLN      0.071700
     13 HB2         0.8120    0.7830    0.7710 hc        1 NLN      0.046700
     14 HB3        -0.6910    1.2420    0.5030 hc        1 NLN      0.046700
     15 HG2         0.7690   -0.5090   -1.1920 hc        1 NLN      0.051700
     16 HG3        -0.7360   -0.0540   -1.4590 hc        1 NLN      0.051700
     17 HD2         1.4790    1.7240   -1.4120 hc        1 NLN      0.037200
     18 HD3        -0.0250    2.1730   -1.6880 hc        1 NLN      0.037200
     19 HE1        -0.0540    0.8740   -3.6480 hc        1 NLN      0.033700
     20 HE2         1.1240    1.9450   -3.7260 hc        1 NLN      0.033700
     21 HE3         1.4500    0.4250   -3.3720 hc        1 NLN      0.033700
     22 HH21        0.4890   -2.6780    2.6110 hn        1 NLN      0.311000
     23 HH22        0.8420   -1.8900    3.9340 hn        1 NLN      0.311000
@<TRIPOS>BOND
     1    1    2 1   
     2    1   10 1   
     3    1   11 1   
     4    2    3 1   
     5    2    5 1   
     6    2   12 1   
     7    3    4 2   
     8    3    9 1   
     9    5    6 1   
    10    5   13 1   
    11    5   14 1   
    12    6    7 1   
    13    6   15 1   
    14    6   16 1   
    15    7    8 1   
    16    7   17 1   
    17    7   18 1   
    18    8   19 1   
    19    8   20 1   
    20    8   21 1   
    21    9   22 1   
    22    9   23 1   
@<TRIPOS>SUBSTRUCTURE
     1 NLN         1 TEMP              0 ****  ****    0 ROOT
