@<TRIPOS>MOLECULE
NLO
   25    24     1     0     0
SMALL
bcc


@<TRIPOS>ATOM
      1 N          -2.2990   -0.5090    0.4060 n3        1 NLO     -0.901800
      2 CA         -0.8850   -0.5570    0.5510 c3        1 NLO      0.129500
      3 C          -0.5290   -0.5650    2.0190 c         1 NLO      0.632100
      4 O          -0.8490    0.3680    2.7270 o         1 NLO     -0.539000
      5 CB         -0.2690    0.6550   -0.1110 c3        1 NLO     -0.120400
      6 CG          0.3820    0.2430   -1.4130 c3        1 NLO     -0.079400
      7 CD          0.7760    1.4780   -2.1920 c3        1 NLO     -0.080400
      8 CE          1.3030    1.0700   -3.5510 c3        1 NLO     -0.094100
      9 OH          0.1860   -1.6460    2.5630 os        1 NLO     -0.433900
     10 C1          0.4240   -1.5340    3.9480 c3        1 NLO      0.124700
     11 H          -2.5320   -0.8240   -0.4230 hn        1 NLO      0.363300
     12 H2         -2.6900   -1.0290    1.0510 hn        1 NLO      0.363300
     13 HA         -0.5410   -1.3690    0.1270 h1        1 NLO      0.092700
     14 HB2         0.4050    1.0420    0.4830 hc        1 NLO      0.058700
     15 HB3        -0.9660    1.3170   -0.2900 hc        1 NLO      0.058700
     16 HG2         1.1790   -0.2920   -1.2240 hc        1 NLO      0.041200
     17 HG3        -0.2490   -0.2880   -1.9390 hc        1 NLO      0.041200
     18 HD2         1.4720    1.9630   -1.7050 hc        1 NLO      0.042200
     19 HD3        -0.0060    2.0550   -2.3060 hc        1 NLO      0.042200
     20 HE1         0.5680    0.7170   -4.0940 hc        1 NLO      0.035033
     21 HE2         1.6930    1.8500   -3.9970 hc        1 NLO      0.035033
     22 HE3         1.9890    0.3790   -3.4410 hc        1 NLO      0.035033
     23 H11         0.9820   -2.2850    4.2460 h1        1 NLO      0.051700
     24 H12         0.8870   -0.6880    4.1330 h1        1 NLO      0.051700
     25 H13        -0.4310   -1.5510    4.4300 h1        1 NLO      0.051700
@<TRIPOS>BOND
     1    1    2 1   
     2    1   11 1   
     3    1   12 1   
     4    2    3 1   
     5    2    5 1   
     6    2   13 1   
     7    3    4 2   
     8    3    9 1   
     9    5    6 1   
    10    5   14 1   
    11    5   15 1   
    12    6    7 1   
    13    6   16 1   
    14    6   17 1   
    15    7    8 1   
    16    7   18 1   
    17    7   19 1   
    18    8   20 1   
    19    8   21 1   
    20    8   22 1   
    21    9   10 1   
    22   10   23 1   
    23   10   24 1   
    24   10   25 1   
@<TRIPOS>SUBSTRUCTURE
     1 NLO         1 TEMP              0 ****  ****    0 ROOT
