@<TRIPOS>MOLECULE
NLO
   25    24     1     0     0
SMALL
bcc


@<TRIPOS>ATOM
      1 N           2.0640   -0.4740   -0.2310 n3        1 NLO     -0.901800
      2 CA          0.6200   -0.4310   -0.3270 c3        1 NLO      0.129500
      3 C           0.2050    0.1540   -1.6700 c         1 NLO      0.632100
      4 O           0.6280    1.1650   -2.2310 o         1 NLO     -0.539000
      5 CB         -0.1200    0.3760    0.7540 c3        1 NLO     -0.120400
      6 CG          0.0710   -0.2230    2.1290 c3        1 NLO     -0.079400
      7 CD         -0.8180    0.4610    3.1480 c3        1 NLO     -0.080400
      8 CE         -0.6130   -0.1090    4.5280 c3        1 NLO     -0.094100
      9 OH         -0.7850   -0.5690   -2.2720 os        1 NLO     -0.433900
     10 C1         -1.2460   -0.0950   -3.5380 c3        1 NLO      0.124700
     11 H           2.4670    0.4150   -0.4590 hn        1 NLO      0.363300
     12 H2          2.3360   -0.7390    0.6960 hn        1 NLO      0.363300
     13 HA          0.2550   -1.5020   -0.2820 h1        1 NLO      0.092700
     14 HB2        -1.2130    0.3830    0.4970 hc        1 NLO      0.058700
     15 HB3         0.2340    1.4400    0.7460 hc        1 NLO      0.058700
     16 HG2         1.1420   -0.1210    2.4500 hc        1 NLO      0.041200
     17 HG3        -0.1650   -1.3200    2.1020 hc        1 NLO      0.041200
     18 HD2        -1.8920    0.3410    2.8460 hc        1 NLO      0.042200
     19 HD3        -0.5980    1.5610    3.1570 hc        1 NLO      0.042200
     20 HE1        -1.2810    0.4040    5.2610 hc        1 NLO      0.035033
     21 HE2        -0.8460   -1.2020    4.5420 hc        1 NLO      0.035033
     22 HE3         0.4450    0.0270    4.8590 hc        1 NLO      0.035033
     23 H11        -2.0260   -0.8400   -3.8310 h1        1 NLO      0.051700
     24 H12        -1.6770    0.9280   -3.4270 h1        1 NLO      0.051700
     25 H13        -0.4010   -0.0780   -4.2680 h1        1 NLO      0.051700
@<TRIPOS>BOND
     1    1    2 1   
     2    1   11 1   
     3    1   12 1   
     4    2    3 1   
     5    2    5 1   
     6    2   13 1   
     7    3    4 2   
     8    3    9 1   
     9    5    6 1   
    10    5   14 1   
    11    5   15 1   
    12    6    7 1   
    13    6   16 1   
    14    6   17 1   
    15    7    8 1   
    16    7   18 1   
    17    7   19 1   
    18    8   20 1   
    19    8   21 1   
    20    8   22 1   
    21    9   10 1   
    22   10   23 1   
    23   10   24 1   
    24   10   25 1   
@<TRIPOS>SUBSTRUCTURE
     1 NLO         1 TEMP              0 ****  ****    0 ROOT
