@<TRIPOS>MOLECULE
NLP
   22    21     1     0     0
SMALL
bcc


@<TRIPOS>ATOM
      1 N          -2.1700    0.5970   -1.2330 n3        1 NLP     -0.871800
      2 CA         -0.9230    0.4850   -0.5310 c3        1 NLP     -0.040700
      3 CB         -0.9360   -0.2740    0.7790 c3        1 NLP     -0.035400
      4 CG         -0.1310    0.4230    1.8610 c3        1 NLP     -0.073400
      5 CD         -0.2340   -0.3060    3.1860 c3        1 NLP     -0.078400
      6 CE          0.5870    0.3610    4.2600 c3        1 NLP     -0.082100
      7 P           0.2520   -0.4510   -1.6380 p5        1 NLP      1.204700
      8 O1         -0.6080   -1.6200   -2.0750 o         1 NLP     -0.947500
      9 O2          0.6300    0.5170   -2.7280 o         1 NLP     -0.947500
     10 O3          1.3830   -0.8120   -0.7010 o         1 NLP     -0.947500
     11 HN1        -2.9470    0.4770   -0.6020 hn        1 NLP      0.304800
     12 HN2        -2.2190   -0.1620   -1.8990 hn        1 NLP      0.304800
     13 HA         -0.5150    1.5140   -0.3840 h1        1 NLP      0.027700
     14 HB1        -0.4940   -1.2940    0.6000 hc        1 NLP      0.012200
     15 HB2        -1.9830   -0.4270    1.1730 hc        1 NLP      0.012200
     16 HG1        -0.4900    1.4780    1.9930 hc        1 NLP      0.042700
     17 HG2         0.9430    0.4590    1.5330 hc        1 NLP      0.042700
     18 HD1         0.1160   -1.3630    3.0470 hc        1 NLP      0.022700
     19 HD2        -1.3070   -0.3520    3.5140 hc        1 NLP      0.022700
     20 HE1         0.5090   -0.1950    5.2270 hc        1 NLP      0.009033
     21 HE2         1.6620    0.3960    3.9590 hc        1 NLP      0.009033
     22 HE3         0.2390    1.4090    4.4290 hc        1 NLP      0.009033
@<TRIPOS>BOND
     1    1    2 1   
     2    1   11 1   
     3    1   12 1   
     4    2    3 1   
     5    2    7 1   
     6    2   13 1   
     7    3    4 1   
     8    3   14 1   
     9    3   15 1   
    10    4    5 1   
    11    4   16 1   
    12    4   17 1   
    13    5    6 1   
    14    5   18 1   
    15    5   19 1   
    16    6   20 1   
    17    6   21 1   
    18    6   22 1   
    19    7    8 1   
    20    7    9 1   
    21    7   10 1   
@<TRIPOS>SUBSTRUCTURE
     1 NLP         1 TEMP              0 ****  ****    0 ROOT
