@<TRIPOS>MOLECULE
NLP
   22    21     1     0     0
SMALL
bcc


@<TRIPOS>ATOM
      1 N          -1.9680   -0.6110   -1.3790 n3        1 NLP     -0.882800
      2 CA         -0.5460   -0.6110   -1.3790 c3        1 NLP     -0.042700
      3 CB         -0.0420   -0.6110    0.0460 c3        1 NLP     -0.051400
      4 CG          0.1940    0.8130    0.4970 c3        1 NLP     -0.067400
      5 CD          0.6860    0.8140    1.9280 c3        1 NLP     -0.084400
      6 CE          0.9260    2.2380    2.3780 c3        1 NLP     -0.083100
      7 P           0.0590   -2.0920   -2.2340 p5        1 NLP      1.204700
      8 O1         -0.5360   -2.1510   -3.6200 o         1 NLP     -0.948500
      9 O2          1.5640   -2.0360   -2.3340 o         1 NLP     -0.948500
     10 O3         -0.3490   -3.3230   -1.4590 o         1 NLP     -0.948500
     11 HN1        -2.2730   -1.4160   -1.6820 hn        1 NLP      0.310300
     12 HN2        -2.2730    0.0540   -1.9230 hn        1 NLP      0.310300
     13 HA         -0.2210    0.1860   -1.8390 h1        1 NLP      0.003700
     14 HB1        -0.7060   -1.0300    0.6260 hc        1 NLP      0.060200
     15 HB2         0.7940   -1.1110    0.0950 hc        1 NLP      0.060200
     16 HG1        -0.6410    1.3160    0.4400 hc        1 NLP      0.012200
     17 HG2         0.8650    1.2290   -0.0770 hc        1 NLP      0.012200
     18 HD1         1.5190    0.3090    1.9860 hc        1 NLP      0.032200
     19 HD2         0.0140    0.4000    2.5030 hc        1 NLP      0.032200
     20 HE1         0.0920    2.7430    2.3210 hc        1 NLP      0.006367
     21 HE2         1.2430    2.2390    3.3010 hc        1 NLP      0.006367
     22 HE3         1.5970    2.6520    1.8030 hc        1 NLP      0.006367
@<TRIPOS>BOND
     1    1    2 1   
     2    1   11 1   
     3    1   12 1   
     4    2    3 1   
     5    2    7 1   
     6    2   13 1   
     7    3    4 1   
     8    3   14 1   
     9    3   15 1   
    10    4    5 1   
    11    4   16 1   
    12    4   17 1   
    13    5    6 1   
    14    5   18 1   
    15    5   19 1   
    16    6   20 1   
    17    6   21 1   
    18    6   22 1   
    19    7    8 1   
    20    7    9 1   
    21    7   10 1   
@<TRIPOS>SUBSTRUCTURE
     1 NLP         1 TEMP              0 ****  ****    0 ROOT
