@<TRIPOS>MOLECULE
NLQ
   24    23     1     0     0
SMALL
bcc


@<TRIPOS>ATOM
      1 OXT        -1.4600    1.8470   -1.7720 o         1 NLQ     -0.826800
      2 C          -1.7420    0.7270   -1.2600 c         1 NLQ      0.910600
      3 O          -2.8760    0.1840   -1.2710 o         1 NLQ     -0.826800
      4 CA         -0.5910   -0.0800   -0.5450 c3        1 NLQ     -0.065300
      5 N           0.7070    0.5370   -0.7560 n         1 NLQ     -0.521900
      6 C6          1.8000   -0.1960   -1.1670 c         1 NLQ      0.633100
      7 O4          1.8940   -1.4330   -0.9930 o         1 NLQ     -0.646100
      8 C7          2.9590    0.5700   -1.7700 c3        1 NLQ     -0.177100
      9 CB         -0.9750   -0.2060    0.9330 c3        1 NLQ     -0.070400
     10 CG         -0.0810   -1.1500    1.7130 c3        1 NLQ     -0.158400
     11 CD          0.6620   -0.4880    2.8530 c         1 NLQ      0.663100
     12 NE2         1.4180    0.6290    2.5890 n         1 NLQ     -0.674000
     13 OE1         0.6440   -0.9510    4.0170 o         1 NLQ     -0.664100
     14 HA         -0.5820   -1.1170   -0.9920 h1        1 NLQ      0.063700
     15 H           0.6250    1.4650   -1.1320 hn        1 NLQ      0.319500
     16 H71         3.8030   -0.1360   -1.9590 hc        1 NLQ      0.052367
     17 H72         2.6470    1.0340   -2.7360 hc        1 NLQ      0.052367
     18 H73         3.3060    1.3730   -1.0770 hc        1 NLQ      0.052367
     19 HB2        -2.0290   -0.5990    0.9410 hc        1 NLQ      0.057200
     20 HB3        -1.0080    0.8100    1.4040 hc        1 NLQ      0.057200
     21 HG2         0.6770   -1.6260    1.0310 hc        1 NLQ      0.078700
     22 HG3        -0.6960   -1.9750    2.1610 hc        1 NLQ      0.078700
     23 HE21        1.8560    1.1090    3.3330 hn        1 NLQ      0.306500
     24 HE22        1.3670    1.0650    1.7040 hn        1 NLQ      0.306500
@<TRIPOS>BOND
     1    1    2 1   
     2    2    3 1   
     3    2    4 1   
     4    4    5 1   
     5    4    9 1   
     6    4   14 1   
     7    5    6 1   
     8    5   15 1   
     9    6    7 2   
    10    6    8 1   
    11    8   16 1   
    12    8   17 1   
    13    8   18 1   
    14    9   10 1   
    15    9   19 1   
    16    9   20 1   
    17   10   11 1   
    18   10   21 1   
    19   10   22 1   
    20   11   12 1   
    21   11   13 2   
    22   12   23 1   
    23   12   24 1   
@<TRIPOS>SUBSTRUCTURE
     1 NLQ         1 TEMP              0 ****  ****    0 ROOT
