@<TRIPOS>MOLECULE
NLT
   58    58     1     0     0
SMALL
bcc


@<TRIPOS>ATOM
      1 N          -2.8720   -1.1900   -0.9040 n         1 NLT     -0.503900
      2 C1         -1.7460   -1.0080   -0.1310 c         1 NLT      0.643100
      3 OL         -1.7930   -0.7440    1.0930 o         1 NLT     -0.654100
      4 C2         -0.4100   -1.0550   -0.8620 c3        1 NLT     -0.157400
      5 C3          0.7230   -0.6170    0.0390 c3        1 NLT     -0.071400
      6 C4          2.0530   -0.6970   -0.6790 c3        1 NLT     -0.079400
      7 C5          3.1880   -0.2580    0.2210 c3        1 NLT     -0.078400
      8 C6          4.5200   -0.3380   -0.4920 c3        1 NLT     -0.079400
      9 C7          5.6540    0.1020    0.4080 c3        1 NLT     -0.079400
     10 C8          6.9870    0.0220   -0.3050 c3        1 NLT     -0.078400
     11 C9          8.1210    0.4630    0.5960 c3        1 NLT     -0.079400
     12 C10         9.4530    0.3830   -0.1170 c3        1 NLT     -0.079400
     13 C11        10.5880    0.8230    0.7830 c3        1 NLT     -0.080400
     14 C12        11.9170    0.7450    0.0770 c3        1 NLT     -0.092100
     15 CA         -4.1500   -1.5620   -0.3250 c3        1 NLT     -0.062300
     16 CB         -5.2770   -0.5860   -0.6760 c3        1 NLT     -0.034100
     17 CG         -5.1410    0.8160   -0.2040 ca        1 NLT     -0.071300
     18 CD2        -4.3330    1.1780    0.8820 ca        1 NLT     -0.103000
     19 CE2        -4.2710    2.4970    1.3210 ca        1 NLT     -0.188000
     20 CZ         -5.0290    3.4750    0.6630 ca        1 NLT      0.087100
     21 CE1        -5.8380    3.1380   -0.4290 ca        1 NLT     -0.188000
     22 CD1        -5.8860    1.8130   -0.8520 ca        1 NLT     -0.103000
     23 OH         -4.9330    4.7690    1.1420 oh        1 NLT     -0.514100
     24 C          -4.6330   -2.9790   -0.8280 c         1 NLT      0.906600
     25 O          -5.5830   -3.4990   -0.1890 o         1 NLT     -0.828300
     26 O2         -4.0550   -3.4860   -1.8290 o         1 NLT     -0.828300
     27 HN         -2.7280   -1.6250   -1.7970 hn        1 NLT      0.313500
     28 H21        -0.4510   -0.3970   -1.7680 hc        1 NLT      0.057700
     29 H22        -0.2370   -2.1080   -1.2110 hc        1 NLT      0.057700
     30 H31         0.7390   -1.2640    0.9560 hc        1 NLT      0.055200
     31 H32         0.5360    0.4320    0.3880 hc        1 NLT      0.055200
     32 H41         2.0280   -0.0500   -1.5950 hc        1 NLT      0.034700
     33 H42         2.2330   -1.7500   -1.0230 hc        1 NLT      0.034700
     34 H51         3.2120   -0.9040    1.1380 hc        1 NLT      0.040700
     35 H52         3.0070    0.7950    0.5660 hc        1 NLT      0.040700
     36 H61         4.4950    0.3090   -1.4090 hc        1 NLT      0.037200
     37 H62         4.7000   -1.3910   -0.8360 hc        1 NLT      0.037200
     38 H71         5.6790   -0.5440    1.3250 hc        1 NLT      0.039200
     39 H72         5.4740    1.1550    0.7520 hc        1 NLT      0.039200
     40 H81         6.9620    0.6680   -1.2220 hc        1 NLT      0.038200
     41 H82         7.1670   -1.0310   -0.6480 hc        1 NLT      0.038200
     42 H91         8.1450   -0.1840    1.5120 hc        1 NLT      0.038700
     43 H92         7.9410    1.5160    0.9390 hc        1 NLT      0.038700
     44 H101        9.4290    1.0290   -1.0340 hc        1 NLT      0.038700
     45 H102        9.6330   -0.6700   -0.4610 hc        1 NLT      0.038700
     46 H111       10.6100    0.1760    1.7000 hc        1 NLT      0.037700
     47 H112       10.4050    1.8750    1.1260 hc        1 NLT      0.037700
     48 H121       12.7390    1.0730    0.7570 hc        1 NLT      0.030700
     49 H122       12.1280   -0.3020   -0.2510 hc        1 NLT      0.030700
     50 H123       11.9230    1.4020   -0.8260 hc        1 NLT      0.030700
     51 HA         -4.0460   -1.6210    0.7960 h1        1 NLT      0.071700
     52 HB1        -5.4190   -0.5860   -1.7920 hc        1 NLT      0.062700
     53 HB2        -6.2120   -1.0260   -0.2230 hc        1 NLT      0.062700
     54 HD2        -3.7180    0.4110    1.3880 ha        1 NLT      0.151000
     55 HE2        -3.6350    2.7800    2.1710 ha        1 NLT      0.126500
     56 HE1        -6.4260    3.9090   -0.9430 ha        1 NLT      0.126500
     57 HD1        -6.5200    1.5420   -1.7100 ha        1 NLT      0.151000
     58 HOH        -5.4980    5.3240    0.5880 ho        1 NLT      0.403000
@<TRIPOS>BOND
     1    1    2 1   
     2    1   15 1   
     3    1   27 1   
     4    2    3 2   
     5    2    4 1   
     6    4    5 1   
     7    4   28 1   
     8    4   29 1   
     9    5    6 1   
    10    5   30 1   
    11    5   31 1   
    12    6    7 1   
    13    6   32 1   
    14    6   33 1   
    15    7    8 1   
    16    7   34 1   
    17    7   35 1   
    18    8    9 1   
    19    8   36 1   
    20    8   37 1   
    21    9   10 1   
    22    9   38 1   
    23    9   39 1   
    24   10   11 1   
    25   10   40 1   
    26   10   41 1   
    27   11   12 1   
    28   11   42 1   
    29   11   43 1   
    30   12   13 1   
    31   12   44 1   
    32   12   45 1   
    33   13   14 1   
    34   13   46 1   
    35   13   47 1   
    36   14   48 1   
    37   14   49 1   
    38   14   50 1   
    39   15   16 1   
    40   15   24 1   
    41   15   51 1   
    42   16   17 1   
    43   16   52 1   
    44   16   53 1   
    45   17   18 ar  
    46   17   22 ar  
    47   18   19 ar  
    48   18   54 1   
    49   19   20 ar  
    50   19   55 1   
    51   20   21 ar  
    52   20   23 1   
    53   21   22 ar  
    54   21   56 1   
    55   22   57 1   
    56   23   58 1   
    57   24   25 1   
    58   24   26 1   
@<TRIPOS>SUBSTRUCTURE
     1 NLT         1 TEMP              0 ****  ****    0 ROOT
