@<TRIPOS>MOLECULE
NLT
   59    59     1     0     0
SMALL
bcc


@<TRIPOS>ATOM
      1 N          -0.8880    0.5550    1.2550 n4        1 NLT     -0.666800
      2 C1         -1.9190    1.4810    0.6920 c         1 NLT      0.560100
      3 OL         -1.8100    2.6630    1.0030 o         1 NLT     -0.471100
      4 C2         -2.9840    0.8500   -0.1560 c3        1 NLT     -0.165400
      5 C3         -3.5670    1.8540   -1.1290 c3        1 NLT     -0.076400
      6 C4         -4.7050    1.2290   -1.9090 c3        1 NLT     -0.080400
      7 C5         -5.2880    2.2160   -2.8980 c3        1 NLT     -0.078400
      8 C6         -6.4290    1.5980   -3.6760 c3        1 NLT     -0.079400
      9 C7         -7.0160    2.5830   -4.6640 c3        1 NLT     -0.078400
     10 C8         -8.1570    1.9650   -5.4420 c3        1 NLT     -0.079400
     11 C9         -8.7450    2.9510   -6.4300 c3        1 NLT     -0.079400
     12 C10        -9.8870    2.3330   -7.2080 c3        1 NLT     -0.079400
     13 C11       -10.4780    3.3180   -8.1940 c3        1 NLT     -0.080400
     14 C12       -11.6160    2.7080   -8.9710 c3        1 NLT     -0.093100
     15 CA          0.1410    0.1690    0.2260 c3        1 NLT     -0.049500
     16 CB          1.5100   -0.0700    0.8510 c3        1 NLT     -0.045100
     17 CG          2.0310    1.1230    1.5690 ca        1 NLT     -0.152300
     18 CD2         2.5960    2.1850    0.8530 ca        1 NLT     -0.097000
     19 CE2         3.0900    3.3050    1.5160 ca        1 NLT     -0.179500
     20 CZ          3.0200    3.3590    2.9160 ca        1 NLT      0.132100
     21 CE1         2.4650    2.2970    3.6500 ca        1 NLT     -0.179500
     22 CD1         1.9770    1.1890    2.9680 ca        1 NLT     -0.097000
     23 OH          3.4810    4.4310    3.6430 oh        1 NLT     -0.493100
     24 C          -0.3110   -1.1780   -0.5100 c         1 NLT      0.927600
     25 O           0.3510   -1.4740   -1.5170 o         1 NLT     -0.764300
     26 O2         -1.2960   -1.7670    0.0140 o         1 NLT     -0.764300
     27 HN         -1.3540   -0.3390    1.5200 hn        1 NLT      0.461300
     28 H21        -3.7830    0.4700    0.5400 hc        1 NLT      0.120700
     29 H22        -2.5760   -0.0490   -0.7090 hc        1 NLT      0.120700
     30 H31        -2.7680    2.2000   -1.8370 hc        1 NLT      0.057200
     31 H32        -3.9330    2.7570   -0.5720 hc        1 NLT      0.057200
     32 H41        -5.5050    0.8870   -1.2010 hc        1 NLT      0.050200
     33 H42        -4.3330    0.3220   -2.4550 hc        1 NLT      0.050200
     34 H51        -4.4880    2.5540   -3.6080 hc        1 NLT      0.042200
     35 H52        -5.6530    3.1260   -2.3520 hc        1 NLT      0.042200
     36 H61        -7.2280    1.2570   -2.9660 hc        1 NLT      0.043200
     37 H62        -6.0630    0.6890   -4.2230 hc        1 NLT      0.043200
     38 H71        -6.2170    2.9230   -5.3750 hc        1 NLT      0.039700
     39 H72        -7.3810    3.4920   -4.1180 hc        1 NLT      0.039700
     40 H81        -8.9550    1.6230   -4.7320 hc        1 NLT      0.040700
     41 H82        -7.7910    1.0570   -5.9900 hc        1 NLT      0.040700
     42 H91        -9.1110    3.8590   -5.8820 hc        1 NLT      0.039200
     43 H92        -7.9470    3.2920   -7.1410 hc        1 NLT      0.039200
     44 H101      -10.6850    1.9900   -6.4970 hc        1 NLT      0.040200
     45 H102       -9.5220    1.4260   -7.7570 hc        1 NLT      0.040200
     46 H111       -9.6790    3.6620   -8.9030 hc        1 NLT      0.038200
     47 H112      -10.8420    4.2260   -7.6430 hc        1 NLT      0.038200
     48 H121      -11.2660    1.8170   -9.5470 hc        1 NLT      0.032700
     49 H122      -12.4330    2.3810   -8.2840 hc        1 NLT      0.032700
     50 H123      -12.0370    3.4500   -9.6910 hc        1 NLT      0.032700
     51 HA          0.2040    0.9930   -0.5340 hx        1 NLT      0.090700
     52 HB1         2.1900   -0.3500   -0.0030 hc        1 NLT      0.090700
     53 HB2         1.4680   -0.9570    1.5390 hc        1 NLT      0.090700
     54 HD2         2.6550    2.1310   -0.2450 ha        1 NLT      0.137500
     55 HE2         3.5340    4.1360    0.9500 ha        1 NLT      0.147500
     56 HE1         2.4310    2.3550    4.7470 ha        1 NLT      0.147500
     57 HD1         1.5660    0.3420    3.5400 ha        1 NLT      0.137500
     58 HOH         3.8560    5.0750    3.0250 ho        1 NLT      0.424000
     59 H2         -0.4270    0.9800    2.0650 hn        1 NLT      0.461300
@<TRIPOS>BOND
     1    1    2 1   
     2    1   15 1   
     3    1   27 1   
     4    1   59 1   
     5    2    3 2   
     6    2    4 1   
     7    4    5 1   
     8    4   28 1   
     9    4   29 1   
    10    5    6 1   
    11    5   30 1   
    12    5   31 1   
    13    6    7 1   
    14    6   32 1   
    15    6   33 1   
    16    7    8 1   
    17    7   34 1   
    18    7   35 1   
    19    8    9 1   
    20    8   36 1   
    21    8   37 1   
    22    9   10 1   
    23    9   38 1   
    24    9   39 1   
    25   10   11 1   
    26   10   40 1   
    27   10   41 1   
    28   11   12 1   
    29   11   42 1   
    30   11   43 1   
    31   12   13 1   
    32   12   44 1   
    33   12   45 1   
    34   13   14 1   
    35   13   46 1   
    36   13   47 1   
    37   14   48 1   
    38   14   49 1   
    39   14   50 1   
    40   15   16 1   
    41   15   24 1   
    42   15   51 1   
    43   16   17 1   
    44   16   52 1   
    45   16   53 1   
    46   17   18 ar  
    47   17   22 ar  
    48   18   19 ar  
    49   18   54 1   
    50   19   20 ar  
    51   19   55 1   
    52   20   21 ar  
    53   20   23 1   
    54   21   22 ar  
    55   21   56 1   
    56   22   57 1   
    57   23   58 1   
    58   24   25 1   
    59   24   26 1   
@<TRIPOS>SUBSTRUCTURE
     1 NLT         1 TEMP              0 ****  ****    0 ROOT
