@<TRIPOS>MOLECULE
NLT
   59    59     1     0     0
SMALL
bcc


@<TRIPOS>ATOM
      1 N          -0.8440    0.4740    1.1970 n4        1 NLT     -0.666800
      2 C1         -1.9200    1.3860    0.6980 c         1 NLT      0.560100
      3 OL         -1.8630    2.5500    1.0840 o         1 NLT     -0.471100
      4 C2         -2.9610    0.7630   -0.1850 c3        1 NLT     -0.165400
      5 C3         -3.5770    1.7960   -1.1060 c3        1 NLT     -0.076400
      6 C4         -4.6910    1.1730   -1.9210 c3        1 NLT     -0.080400
      7 C5         -5.3060    2.1880   -2.8600 c3        1 NLT     -0.078400
      8 C6         -6.4230    1.5720   -3.6740 c3        1 NLT     -0.079400
      9 C7         -7.0400    2.5850   -4.6140 c3        1 NLT     -0.078400
     10 C8         -8.1570    1.9690   -5.4280 c3        1 NLT     -0.079400
     11 C9         -8.7740    2.9820   -6.3690 c3        1 NLT     -0.079400
     12 C10        -9.8920    2.3660   -7.1830 c3        1 NLT     -0.079400
     13 C11       -10.5100    3.3780   -8.1240 c3        1 NLT     -0.080400
     14 C12       -11.6230    2.7690   -8.9370 c3        1 NLT     -0.093100
     15 CA          0.1900    0.1950    0.1390 c3        1 NLT     -0.049500
     16 CB          1.5750   -0.0150    0.7370 c3        1 NLT     -0.045100
     17 CG          2.0500    1.1580    1.5170 ca        1 NLT     -0.152300
     18 CD2         2.5570    2.2840    0.8590 ca        1 NLT     -0.097000
     19 CE2         3.0060    3.3860    1.5800 ca        1 NLT     -0.179500
     20 CZ          2.9500    3.3580    2.9810 ca        1 NLT      0.132100
     21 CE1         2.4530    2.2310    3.6580 ca        1 NLT     -0.179500
     22 CD1         2.0090    1.1420    2.9180 ca        1 NLT     -0.097000
     23 OH          3.3700    4.4070    3.7640 oh        1 NLT     -0.493100
     24 C          -0.2090   -1.1270   -0.6690 c         1 NLT      0.928600
     25 O           0.4560   -1.3360   -1.6960 o         1 NLT     -0.764300
     26 O2         -1.1600   -1.7890   -0.1710 o         1 NLT     -0.764300
     27 HN         -0.3930    0.8710    2.0270 hn        1 NLT      0.461300
     28 H21        -3.7470    0.3200    0.4890 hc        1 NLT      0.120200
     29 H22        -2.5220   -0.0910   -0.7830 hc        1 NLT      0.120200
     30 H31        -3.9750    2.6550   -0.5040 hc        1 NLT      0.057200
     31 H32        -2.7900    2.2050   -1.7920 hc        1 NLT      0.057200
     32 H41        -5.4810    0.7680   -1.2340 hc        1 NLT      0.050200
     33 H42        -4.2880    0.3070   -2.5110 hc        1 NLT      0.050200
     34 H51        -5.7040    3.0560   -2.2700 hc        1 NLT      0.042200
     35 H52        -4.5170    2.5910   -3.5490 hc        1 NLT      0.042200
     36 H61        -7.2120    1.1680   -2.9860 hc        1 NLT      0.043200
     37 H62        -6.0240    0.7050   -4.2640 hc        1 NLT      0.043200
     38 H71        -7.4380    3.4530   -4.0250 hc        1 NLT      0.039700
     39 H72        -6.2510    2.9880   -5.3030 hc        1 NLT      0.039700
     40 H81        -8.9460    1.5660   -4.7400 hc        1 NLT      0.040700
     41 H82        -7.7590    1.1020   -6.0180 hc        1 NLT      0.040700
     42 H91        -7.9850    3.3850   -7.0580 hc        1 NLT      0.039200
     43 H92        -9.1720    3.8490   -5.7790 hc        1 NLT      0.039200
     44 H101      -10.6810    1.9630   -6.4950 hc        1 NLT      0.040200
     45 H102       -9.4940    1.4990   -7.7730 hc        1 NLT      0.040200
     46 H111      -10.9060    4.2460   -7.5330 hc        1 NLT      0.038200
     47 H112       -9.7190    3.7810   -8.8110 hc        1 NLT      0.038200
     48 H121      -12.4330    2.3840   -8.2710 hc        1 NLT      0.032700
     49 H122      -12.0640    3.5320   -9.6240 hc        1 NLT      0.032700
     50 H123      -11.2420    1.9190   -9.5520 hc        1 NLT      0.032700
     51 HA          0.2070    1.0630   -0.5740 hx        1 NLT      0.090700
     52 HB1         2.2580   -0.2150   -0.1370 hc        1 NLT      0.091200
     53 HB2         1.5810   -0.9400    1.3740 hc        1 NLT      0.091200
     54 HD2         2.6060    2.2940   -0.2420 ha        1 NLT      0.137500
     55 HE2         3.4050    4.2670    1.0580 ha        1 NLT      0.147500
     56 HE1         2.4300    2.2250    4.7570 ha        1 NLT      0.147500
     57 HD1         1.6440    0.2460    3.4450 ha        1 NLT      0.137500
     58 HOH         3.7070    5.1020    3.1800 ho        1 NLT      0.424000
     59 H2         -1.2680   -0.4530    1.4130 hn        1 NLT      0.461300
@<TRIPOS>BOND
     1    1    2 1   
     2    1   15 1   
     3    1   27 1   
     4    1   59 1   
     5    2    3 2   
     6    2    4 1   
     7    4    5 1   
     8    4   28 1   
     9    4   29 1   
    10    5    6 1   
    11    5   30 1   
    12    5   31 1   
    13    6    7 1   
    14    6   32 1   
    15    6   33 1   
    16    7    8 1   
    17    7   34 1   
    18    7   35 1   
    19    8    9 1   
    20    8   36 1   
    21    8   37 1   
    22    9   10 1   
    23    9   38 1   
    24    9   39 1   
    25   10   11 1   
    26   10   40 1   
    27   10   41 1   
    28   11   12 1   
    29   11   42 1   
    30   11   43 1   
    31   12   13 1   
    32   12   44 1   
    33   12   45 1   
    34   13   14 1   
    35   13   46 1   
    36   13   47 1   
    37   14   48 1   
    38   14   49 1   
    39   14   50 1   
    40   15   16 1   
    41   15   24 1   
    42   15   51 1   
    43   16   17 1   
    44   16   52 1   
    45   16   53 1   
    46   17   18 ar  
    47   17   22 ar  
    48   18   19 ar  
    49   18   54 1   
    50   19   20 ar  
    51   19   55 1   
    52   20   21 ar  
    53   20   23 1   
    54   21   22 ar  
    55   21   56 1   
    56   22   57 1   
    57   23   58 1   
    58   24   25 1   
    59   24   26 1   
@<TRIPOS>SUBSTRUCTURE
     1 NLT         1 TEMP              0 ****  ****    0 ROOT
