@<TRIPOS>MOLECULE
NLT
   59    59     1     0     0
SMALL
bcc


@<TRIPOS>ATOM
      1 N          -0.8310    0.3950    1.1900 ny        1 NLT     -0.666800
      2 C1         -1.9240    1.3000    0.7140 c         1 NLT      0.560100
      3 OL         -1.9040    2.4460    1.1520 o         1 NLT     -0.471100
      4 C2         -2.9340    0.6890   -0.2110 c3        1 NLT     -0.165400
      5 C3         -3.5720    1.7460   -1.0890 c3        1 NLT     -0.076400
      6 C4         -4.6560    1.1290   -1.9480 c3        1 NLT     -0.080400
      7 C5         -5.2930    2.1710   -2.8440 c3        1 NLT     -0.078400
      8 C6         -6.3810    1.5600   -3.7010 c3        1 NLT     -0.079400
      9 C7         -7.0200    2.5990   -4.5970 c3        1 NLT     -0.078400
     10 C8         -8.1080    1.9890   -5.4550 c3        1 NLT     -0.079400
     11 C9         -8.7490    3.0280   -6.3500 c3        1 NLT     -0.079400
     12 C10        -9.8370    2.4190   -7.2070 c3        1 NLT     -0.079400
     13 C11       -10.4790    3.4570   -8.1030 c3        1 NLT     -0.080400
     14 C12       -11.5630    2.8540   -8.9590 c3        1 NLT     -0.093100
     15 CA          0.2270    0.1920    0.1390 c3        1 NLT     -0.049500
     16 CB          1.6070   -0.0090    0.7510 c3        1 NLT     -0.045100
     17 CG          2.0370    1.1370    1.5940 ca        1 NLT     -0.152300
     18 CD2         2.5260    2.3060    0.9980 ca        1 NLT     -0.097000
     19 CE2         2.9330    3.3840    1.7780 ca        1 NLT     -0.179500
     20 CZ          2.8540    3.2880    3.1750 ca        1 NLT      0.132100
     21 CE1         2.3760    2.1190    3.7900 ca        1 NLT     -0.179500
     22 CD1         1.9730    1.0540    2.9910 ca        1 NLT     -0.097000
     23 OH          3.2320    4.3090    4.0140 oh        1 NLT     -0.493100
     24 C          -0.1230   -1.1000   -0.7370 c         1 NLT      0.928600
     25 O           0.5640   -1.2420   -1.7610 o         1 NLT     -0.764300
     26 O2         -1.0630   -1.8100   -0.2870 o         1 NLT     -0.764300
     27 HN         -1.2330   -0.5530    1.3560 hn        1 NLT      0.461300
     28 H21        -3.7140    0.1890    0.4290 hc        1 NLT      0.120700
     29 H22        -2.4610   -0.1210   -0.8450 hc        1 NLT      0.120700
     30 H31        -4.0050    2.5610   -0.4510 hc        1 NLT      0.057200
     31 H32        -2.7910    2.2130   -1.7440 hc        1 NLT      0.057200
     32 H41        -4.2190    0.3080   -2.5760 hc        1 NLT      0.050200
     33 H42        -5.4400    0.6650   -1.2930 hc        1 NLT      0.050200
     34 H51        -5.7260    2.9940   -2.2160 hc        1 NLT      0.042200
     35 H52        -4.5100    2.6310   -3.5010 hc        1 NLT      0.042200
     36 H61        -5.9470    0.7370   -4.3290 hc        1 NLT      0.043200
     37 H62        -7.1640    1.0970   -3.0440 hc        1 NLT      0.043200
     38 H71        -7.4520    3.4230   -3.9700 hc        1 NLT      0.039700
     39 H72        -6.2370    3.0610   -5.2550 hc        1 NLT      0.039700
     40 H81        -7.6760    1.1670   -6.0830 hc        1 NLT      0.040700
     41 H82        -8.8900    1.5260   -4.7970 hc        1 NLT      0.040700
     42 H91        -7.9660    3.4910   -7.0080 hc        1 NLT      0.039200
     43 H92        -9.1810    3.8510   -5.7220 hc        1 NLT      0.039200
     44 H101      -10.6190    1.9560   -6.5500 hc        1 NLT      0.040200
     45 H102       -9.4050    1.5960   -7.8360 hc        1 NLT      0.040200
     46 H111      -10.9090    4.2790   -7.4730 hc        1 NLT      0.038200
     47 H112       -9.6950    3.9190   -8.7590 hc        1 NLT      0.038200
     48 H121      -12.0230    3.6350   -9.6110 hc        1 NLT      0.032700
     49 H122      -11.1490    2.0490   -9.6120 hc        1 NLT      0.032700
     50 H123      -12.3660    2.4090   -8.3220 hc        1 NLT      0.032700
     51 HA          0.2320    1.0940   -0.5320 hx        1 NLT      0.090700
     52 HB1         1.6270   -0.9630    1.3440 hc        1 NLT      0.091200
     53 HB2         2.3100   -0.1500   -0.1190 hc        1 NLT      0.091200
     54 HD2         2.5920    2.3690   -0.1000 ha        1 NLT      0.137500
     55 HE2         3.3170    4.2990    1.3050 ha        1 NLT      0.147500
     56 HE1         2.3340    2.0600    4.8860 ha        1 NLT      0.147500
     57 HD1         1.6240    0.1250    3.4690 ha        1 NLT      0.137500
     58 HOH         3.5620    5.0400    3.4690 ho        1 NLT      0.424000
     59 H2         -0.4060    0.7650    2.0460 hn        1 NLT      0.461300
@<TRIPOS>BOND
     1    1    2 1   
     2    1   15 1   
     3    1   27 1   
     4    1   59 1   
     5    2    3 2   
     6    2    4 1   
     7    4    5 1   
     8    4   28 1   
     9    4   29 1   
    10    5    6 1   
    11    5   30 1   
    12    5   31 1   
    13    6    7 1   
    14    6   32 1   
    15    6   33 1   
    16    7    8 1   
    17    7   34 1   
    18    7   35 1   
    19    8    9 1   
    20    8   36 1   
    21    8   37 1   
    22    9   10 1   
    23    9   38 1   
    24    9   39 1   
    25   10   11 1   
    26   10   40 1   
    27   10   41 1   
    28   11   12 1   
    29   11   42 1   
    30   11   43 1   
    31   12   13 1   
    32   12   44 1   
    33   12   45 1   
    34   13   14 1   
    35   13   46 1   
    36   13   47 1   
    37   14   48 1   
    38   14   49 1   
    39   14   50 1   
    40   15   16 1   
    41   15   24 1   
    42   15   51 1   
    43   16   17 1   
    44   16   52 1   
    45   16   53 1   
    46   17   18 ar  
    47   17   22 ar  
    48   18   19 ar  
    49   18   54 1   
    50   19   20 ar  
    51   19   55 1   
    52   20   21 ar  
    53   20   23 1   
    54   21   22 ar  
    55   21   56 1   
    56   22   57 1   
    57   23   58 1   
    58   24   25 1   
    59   24   26 1   
@<TRIPOS>SUBSTRUCTURE
     1 NLT         1 TEMP              0 ****  ****    0 ROOT
