@<TRIPOS>MOLECULE
NLT
   58    56     1     0     0
SMALL
bcc


@<TRIPOS>ATOM
      1 N           3.4550    1.9260    0.6990 n         1 NLT     -0.331000
      2 C1          2.2970    1.1230    1.0010 c2        1 NLT      0.286000
      3 OL          2.3140    0.3630    1.9620 o         1 NLT     -0.406000
      4 C2          1.0230    1.3200    0.2220 c3        1 NLT     -0.188000
      5 C3         -0.1740    0.8740    1.0780 c3        1 NLT     -0.154000
      6 C4         -1.0830   -0.0630    0.2460 c3        1 NLT     -0.158000
      7 C5         -2.5170   -0.1380    0.9110 c3        1 NLT     -0.158000
      8 C6         -3.3330   -1.3500    0.2780 c3        1 NLT     -0.157000
      9 C7         -4.8240   -1.1330    0.5060 c3        1 NLT     -0.158000
     10 C8         -5.6230   -2.2700   -0.1690 c3        1 NLT     -0.157000
     11 C9         -7.0610   -1.8210   -0.3800 c3        1 NLT     -0.158000
     12 C10        -7.7300   -2.7160   -1.4410 c3        1 NLT     -0.158000
     13 C11        -8.8510   -1.9600   -2.1010 c3        1 NLT     -0.159000
     14 C12        -9.4280   -2.7920   -3.2150 c3        1 NLT     -0.210000
     15 CA          4.7630    1.3090    0.6330 c3        1 NLT     -0.071000
     16 CB          5.7410    2.0750    1.5350 c3        1 NLT     -0.112000
     17 CG          7.1530    2.0630    0.8910 c2        1 NLT     -0.078000
     18 CD2         7.9050    0.8990    0.8930 c2        1 NLT     -0.086000
     19 CE2         9.1680    0.8850    0.3210 c1        1 NLT     -0.214000
     20 CZ          9.6830    2.0420   -0.2580 c1        1 NLT      0.047000
     21 CE1         8.9330    3.2070   -0.2620 c1        1 NLT     -0.173000
     22 CD1         7.6680    3.2210    0.3120 c1        1 NLT     -0.108000
     23 OH         10.9680    2.0300   -0.8280 oh        1 NLT     -0.273000
     24 C           4.6690   -0.0980    1.0880 c2        1 NLT      0.328000
     25 O           4.7150   -0.3620    2.3100 o         1 NLT     -0.565000
     26 O2          4.6640   -1.0310    0.2450 o         1 NLT     -0.565000
     27 HN          3.3540    2.8080    0.4780 hn        1 NLT      0.236000
     28 H21         1.0550    0.7920   -0.5890 hc        1 NLT      0.097500
     29 H22         0.9230    2.2900   -0.0150 hc        1 NLT      0.097500
     30 H31         0.1500    0.3960    1.8690 hc        1 NLT      0.089500
     31 H32        -0.6760    1.6450    1.3530 hc        1 NLT      0.089500
     32 H41        -0.6840   -0.9690    0.2190 hc        1 NLT      0.076000
     33 H42        -1.1640    0.2890   -0.6730 hc        1 NLT      0.076000
     34 H51        -2.9970    0.7000    0.7470 hc        1 NLT      0.080500
     35 H52        -2.4230   -0.2770    1.8730 hc        1 NLT      0.080500
     36 H61        -3.0550   -2.1920    0.7050 hc        1 NLT      0.077000
     37 H62        -3.1560   -1.3960   -0.6690 hc        1 NLT      0.077000
     38 H71        -5.0920   -0.2710    0.1190 hc        1 NLT      0.079000
     39 H72        -5.0080   -1.1290    1.4610 hc        1 NLT      0.079000
     40 H81        -5.6100   -3.0660    0.4070 hc        1 NLT      0.077500
     41 H82        -5.2200   -2.4840   -1.0290 hc        1 NLT      0.077500
     42 H91        -7.5500   -1.8920    0.4630 hc        1 NLT      0.078500
     43 H92        -7.0700   -0.8940   -0.6840 hc        1 NLT      0.078500
     44 H101       -8.0910   -3.5300   -1.0060 hc        1 NLT      0.077500
     45 H102       -7.0600   -2.9760   -2.1220 hc        1 NLT      0.077500
     46 H111       -8.5110   -1.1310   -2.4620 hc        1 NLT      0.077500
     47 H112       -9.5470   -1.7680   -1.4420 hc        1 NLT      0.077500
     48 H121      -10.1950   -2.3360   -3.5950 hc        1 NLT      0.069667
     49 H122       -9.7100   -3.6720   -2.8580 hc        1 NLT      0.069667
     50 H123       -8.7400   -2.9260   -3.9200 hc        1 NLT      0.069667
     51 HA          5.0880    1.3310   -0.2910 h1        1 NLT      0.114000
     52 HB1         5.7810    1.6410    2.4220 hc        1 NLT      0.085500
     53 HB2         5.4420    2.9850    1.6360 hc        1 NLT      0.085500
     54 HD2         7.5490    0.0920    1.3080 ha        1 NLT      0.208000
     55 HE2         9.6910    0.0740    0.3230 ha        1 NLT      0.122000
     56 HE1         9.2980    4.0280   -0.6720 ha        1 NLT      0.129000
     57 HD1         7.1660    4.0590    0.3670 ha        1 NLT      0.122000
     58 HOH        11.5690    2.1800   -0.2020 ho        1 NLT      0.205000
@<TRIPOS>BOND
     1    1    2 1   
     2    1   15 1   
     3    1   27 1   
     4    2    3 1   
     5    2    4 1   
     6    4    5 1   
     7    4   28 1   
     8    4   29 1   
     9    5    6 1   
    10    5   30 1   
    11    5   31 1   
    12    6    7 1   
    13    6   32 1   
    14    6   33 1   
    15    7    8 1   
    16    7   34 1   
    17    7   35 1   
    18    8    9 1   
    19    8   36 1   
    20    8   37 1   
    21    9   10 1   
    22    9   38 1   
    23    9   39 1   
    24   10   11 1   
    25   10   40 1   
    26   10   41 1   
    27   11   12 1   
    28   11   42 1   
    29   11   43 1   
    30   12   13 1   
    31   12   44 1   
    32   12   45 1   
    33   13   14 1   
    34   13   46 1   
    35   13   47 1   
    36   14   48 1   
    37   14   49 1   
    38   14   50 1   
    39   15   16 1   
    40   15   24 1   
    41   15   51 1   
    42   16   17 1   
    43   16   52 1   
    44   16   53 1   
    45   17   18 1   
    46   17   22 1   
    47   18   19 1   
    48   18   54 1   
    49   19   55 1   
    50   20   21 1   
    51   20   23 1   
    52   21   56 1   
    53   22   57 1   
    54   23   58 1   
    55   24   25 1   
    56   24   26 1   
@<TRIPOS>SUBSTRUCTURE
     1 NLT         1 TEMP              0 ****  ****    0 ROOT
