@<TRIPOS>MOLECULE
NLX
   49    53     1     0     0
SMALL
bcc


@<TRIPOS>ATOM
      1 O1          4.4580    1.5070   -1.0010 oh        1 NLX     -0.466100
      2 O2          2.4340   -0.7490   -1.1950 os        1 NLX     -0.286900
      3 O4         -1.6480   -1.9310    0.6320 oh        1 NLX     -0.615800
      4 N1         -2.3960    0.7920    0.1120 n4        1 NLX     -0.595800
      5 C1          1.6200    2.6820    1.0070 ca        1 NLX     -0.103000
      6 C3          3.2120    1.5130   -0.4440 ca        1 NLX      0.156100
      7 C4          2.2670    0.4950   -0.5880 ca        1 NLX      0.027100
      8 C5          1.3010   -1.5820   -0.7640 c3        1 NLX      0.057100
      9 C6          1.8060   -2.5020    0.3380 c         1 NLX      0.541100
     10 C7          1.0510   -2.6160    1.6340 c3        1 NLX     -0.188400
     11 C8          0.2470   -1.3990    2.0340 c3        1 NLX     -0.102400
     12 C9         -1.4720    0.3640    1.2540 c3        1 NLX      0.160500
     13 C10        -0.5200    1.4810    1.7260 c3        1 NLX     -0.044100
     14 C11         0.6790    1.6480    0.8680 ca        1 NLX     -0.112300
     15 C12         0.9950    0.6220   -0.0070 ca        1 NLX     -0.147300
     16 C13         0.1790   -0.5970   -0.3390 c3        1 NLX     -0.052700
     17 C14        -0.6650   -0.9390    0.8970 c3        1 NLX      0.170800
     18 C15        -0.7630   -0.3220   -1.5050 c3        1 NLX     -0.083400
     19 C16        -1.6600    0.8690   -1.2010 c3        1 NLX      0.119800
     20 C17        -3.5470   -0.1950   -0.0100 c3        1 NLX      0.156000
     21 C18        -4.7510    0.3390   -0.7080 c2        1 NLX     -0.250200
     22 C19        -5.0410    0.0520   -1.9770 c2        1 NLX     -0.131000
     23 C20        -2.9660    2.1430    0.3980 c3        1 NLX      0.086100
     24 HO11        4.6030    0.6380   -1.4120 ho        1 NLX      0.449000
     25 HO41       -1.1990   -2.7800    0.5280 ho        1 NLX      0.436000
     26 H11         1.4010    3.5350    1.6670 ha        1 NLX      0.152000
     27 H21         3.5750    3.4480    0.4550 ha        1 NLX      0.176000
     28 H51         1.0320   -2.1810   -1.6740 h1        1 NLX      0.116700
     29 H71         0.3910   -3.5250    1.5630 hc        1 NLX      0.094200
     30 H72         1.7960   -2.8360    2.4510 hc        1 NLX      0.094200
     31 H81        -0.3780   -1.6490    2.9320 hc        1 NLX      0.080700
     32 H82         0.9500   -0.5710    2.3140 hc        1 NLX      0.080700
     33 H91        -2.1560    0.1070    2.1180 hx        1 NLX      0.104700
     34 H101       -1.0520    2.4540    1.8830 hc        1 NLX      0.084700
     35 H102       -0.1680    1.1660    2.7540 hc        1 NLX      0.084700
     36 H151       -0.1700   -0.0710   -2.4260 hc        1 NLX      0.089200
     37 H152       -1.3670   -1.2430   -1.7200 hc        1 NLX      0.089200
     38 H161       -2.4390    0.9760   -2.0100 hx        1 NLX      0.102200
     39 H162       -1.0210    1.8010   -1.1750 hx        1 NLX      0.102200
     40 H171       -3.1590   -1.1020   -0.5600 hx        1 NLX      0.111200
     41 H172       -3.8330   -0.5150    1.0320 hx        1 NLX      0.111200
     42 H181       -5.4430    0.9250   -0.0800 ha        1 NLX      0.149000
     43 H191       -4.3870   -0.5490   -2.6250 ha        1 NLX      0.138000
     44 H192       -5.9740    0.3940   -2.4510 ha        1 NLX      0.138000
     45 H201       -2.1600    2.9250    0.3720 hx        1 NLX      0.098033
     46 H202       -3.7180    2.4100   -0.3930 hx        1 NLX      0.098033
     47 H203       -3.4630    2.1270    1.4030 hx        1 NLX      0.098033
     48 O3          2.8180   -3.1740    0.1410 o         1 NLX     -0.457100
     49 C2          2.8440    2.6300    0.3430 ca        1 NLX     -0.115000
@<TRIPOS>BOND
     1    1    6 1   
     2    1   24 1   
     3    2    7 1   
     4    2    8 1   
     5    3   17 1   
     6    3   25 1   
     7    4   12 1   
     8    4   19 1   
     9    4   20 1   
    10    4   23 1   
    11    5   14 ar  
    12    5   26 1   
    13    5   49 ar  
    14    6    7 ar  
    15    6   49 ar  
    16    7   15 ar  
    17    8    9 1   
    18    8   16 1   
    19    8   28 1   
    20    9   10 1   
    21    9   48 2   
    22   10   11 1   
    23   10   29 1   
    24   10   30 1   
    25   11   17 1   
    26   11   31 1   
    27   11   32 1   
    28   12   13 1   
    29   12   17 1   
    30   12   33 1   
    31   13   14 1   
    32   13   34 1   
    33   13   35 1   
    34   14   15 ar  
    35   15   16 1   
    36   16   17 1   
    37   16   18 1   
    38   18   19 1   
    39   18   36 1   
    40   18   37 1   
    41   19   38 1   
    42   19   39 1   
    43   20   21 1   
    44   20   40 1   
    45   20   41 1   
    46   21   22 2   
    47   21   42 1   
    48   22   43 1   
    49   22   44 1   
    50   23   45 1   
    51   23   46 1   
    52   23   47 1   
    53   27   49 1   
@<TRIPOS>SUBSTRUCTURE
     1 NLX         1 TEMP              0 ****  ****    0 ROOT
