@<TRIPOS>MOLECULE
NLX
   49    51     1     0     0
SMALL
bcc


@<TRIPOS>ATOM
      1 O1         -4.6600   -1.2740   -0.5750 oh        1 NLX     -0.209000
      2 O2         -3.1250   -0.1260    1.7730 os        1 NLX     -0.134000
      3 O3         -2.1300    2.3230    1.8780 o         1 NLX     -0.214000
      4 O4         -0.0400   -0.8810    2.6460 oh        1 NLX     -0.306000
      5 N1          1.3660    0.2210   -0.4420 n4        1 NLX      0.034000
      6 C1         -1.1470   -2.5080   -1.1820 c1        1 NLX     -0.098000
      7 C2         -2.4340   -1.9420   -1.5300 c1        1 NLX     -0.168000
      8 C3         -3.2450   -1.3000   -0.4980 c2        1 NLX      0.103000
      9 C4         -2.8200   -1.3400    0.8530 c2        1 NLX      0.066000
     10 C5         -2.2380    0.2500    0.7240 c3        1 NLX     -0.020000
     11 C6         -1.6220    1.5980    1.0330 c2        1 NLX      0.209000
     12 C7         -0.4520    2.1470    0.1250 c3        1 NLX     -0.207000
     13 C8         -0.0810    1.4140    1.5210 c3        1 NLX     -0.142000
     14 C9          1.1380   -0.6700    0.6640 c3        1 NLX     -0.071000
     15 C10         0.9460   -2.1350    0.1240 c3        1 NLX     -0.133000
     16 C11        -0.7360   -2.5180    0.1470 c2        1 NLX     -0.100000
     17 C12        -1.6780   -2.0920    1.2000 c2        1 NLX     -0.184000
     18 C13        -1.1880   -0.7310    0.6110 c3        1 NLX     -0.062000
     19 C14        -0.0330   -0.2800    1.3560 c3        1 NLX      0.096000
     20 C15        -0.8050   -0.9140   -0.8790 c3        1 NLX     -0.161000
     21 C16         0.1780    0.2350   -1.3130 c3        1 NLX     -0.121000
     22 C17         1.6120    1.5360    0.0480 c3        1 NLX     -0.086000
     23 C18         3.1290    1.7410    0.2320 c2        1 NLX     -0.250000
     24 C19         3.7130    2.9110   -0.1640 c1        1 NLX     -0.123000
     25 C20         2.4930   -0.2250   -1.1860 c3        1 NLX     -0.186000
     26 HO11       -4.9600   -2.0800   -0.8100 ho        1 NLX      0.236000
     27 HO41        0.4620   -0.3960    3.2020 ho        1 NLX      0.235000
     28 H11        -0.5950   -2.9430   -1.8740 ha        1 NLX      0.152000
     29 H21        -2.8060   -2.0820   -2.4310 ha        1 NLX      0.158000
     30 H51        -2.7340    0.3000   -0.1230 h1        1 NLX      0.150000
     31 H71        -0.3150    1.7770   -0.7550 hc        1 NLX      0.137500
     32 H72        -0.2880    3.1190    0.0860 hc        1 NLX      0.137500
     33 H81        -0.7570    1.6510    2.1970 hc        1 NLX      0.097500
     34 H82         0.8000    1.7310    1.8250 hc        1 NLX      0.097500
     35 H91         1.9100   -0.6420    1.2770 hx        1 NLX      0.153000
     36 H101        1.4370   -2.7670    0.6990 hc        1 NLX      0.127000
     37 H102        1.2850   -2.1940   -0.7960 hc        1 NLX      0.127000
     38 H151       -0.3670   -1.7780   -0.9990 hc        1 NLX      0.128000
     39 H152       -1.6150   -0.8770   -1.4330 hc        1 NLX      0.128000
     40 H161       -0.2710    1.0900   -1.2340 hx        1 NLX      0.143000
     41 H162        0.4550    0.0940   -2.2500 hx        1 NLX      0.143000
     42 H171        1.1660    1.6530    0.8990 hx        1 NLX      0.136000
     43 H172        1.2680    2.1960   -0.5960 hx        1 NLX      0.136000
     44 H181        3.6750    1.0310    0.6350 ha        1 NLX      0.152000
     45 H191        3.1680    3.6200   -0.5660 DU        1 NLX      0.127000
     46 H192        4.6800    3.0410   -0.0470 ha        1 NLX      0.153000
     47 H201        3.1650   -0.6010   -0.5720 hx        1 NLX      0.137000
     48 H202        2.8850    0.5340   -1.6760 hx        1 NLX      0.137000
     49 H203        2.2100   -0.9170   -1.8250 hx        1 NLX      0.137000
@<TRIPOS>BOND
     1    1    8 1   
     2    1   26 1   
     3    2    9 1   
     4    2   10 1   
     5    3   11 1   
     6    4   19 1   
     7    4   27 1   
     8    5   14 1   
     9    5   21 1   
    10    5   22 1   
    11    5   25 1   
    12    6   16 1   
    13    6   28 1   
    14    7    8 1   
    15    7   29 1   
    16    8    9 1   
    17    9   17 1   
    18   10   11 1   
    19   10   18 1   
    20   10   30 1   
    21   11   12 1   
    22   12   13 1   
    23   12   31 1   
    24   12   32 1   
    25   13   19 1   
    26   13   33 1   
    27   13   34 1   
    28   14   15 1   
    29   14   19 1   
    30   14   35 1   
    31   15   16 1   
    32   15   36 1   
    33   15   37 1   
    34   16   17 1   
    35   17   18 1   
    36   18   19 1   
    37   18   20 1   
    38   20   21 1   
    39   20   38 1   
    40   20   39 1   
    41   21   40 1   
    42   21   41 1   
    43   22   23 1   
    44   22   42 1   
    45   22   43 1   
    46   23   24 1   
    47   23   44 1   
    48   24   46 1   
    49   25   47 1   
    50   25   48 1   
    51   25   49 1   
@<TRIPOS>SUBSTRUCTURE
     1 NLX         1 TEMP              0 ****  ****    0 ROOT
