@<TRIPOS>MOLECULE
NLX
   49    53     1     0     0
SMALL
bcc


@<TRIPOS>ATOM
      1 O1         -0.0400   -0.1670   -0.1200 oh        1 NLX     -0.456100
      2 O2          2.5260   -0.3650    1.2620 os        1 NLX     -0.255900
      3 O3          3.5330   -2.6990    2.5230 o         1 NLX     -0.455100
      4 O4          7.0420   -0.6970    0.3520 oh        1 NLX     -0.615800
      5 N1          6.5810    1.3890   -1.5720 n4        1 NLX     -0.595800
      6 C1          2.4520    0.0580   -2.8760 ca        1 NLX     -0.097000
      7 C2          1.2230    0.0450   -2.2130 ca        1 NLX     -0.171000
      8 C3          1.1350   -0.0760   -0.8110 ca        1 NLX      0.150100
      9 C4          2.3390   -0.1190   -0.0940 ca        1 NLX      0.096100
     10 C5          3.9620   -0.6210    1.4530 c3        1 NLX      0.048100
     11 C6          4.1450   -2.1220    1.6250 c         1 NLX      0.541100
     12 C7          5.0950   -2.8840    0.7420 c3        1 NLX     -0.189400
     13 C8          5.4380   -2.2440   -0.5840 c3        1 NLX     -0.101400
     14 C9          6.1600   -0.0680   -1.7730 c3        1 NLX      0.160500
     15 C10         4.9850   -0.2380   -2.7570 c3        1 NLX     -0.044100
     16 C11         3.6530    0.0170   -2.1550 ca        1 NLX     -0.111300
     17 C12         3.5590    0.0300   -0.7700 ca        1 NLX     -0.160300
     18 C13         4.6830    0.0010    0.2280 c3        1 NLX     -0.052700
     19 C14         5.8420   -0.7800   -0.4060 c3        1 NLX      0.170800
     20 C15         5.1660    1.4100    0.5520 c3        1 NLX     -0.083400
     21 C16         5.5950    2.1380   -0.7130 c3        1 NLX      0.119800
     22 C17         7.9570    1.4380   -0.9270 c3        1 NLX      0.156000
     23 C18         8.6900    2.7210   -1.1210 c2        1 NLX     -0.250200
     24 C19         8.7730    3.6600   -0.1790 c2        1 NLX     -0.131000
     25 C20         6.6580    2.0820   -2.8930 c3        1 NLX      0.086100
     26 HO11       -0.7700   -0.1660   -0.7600 ho        1 NLX      0.437000
     27 H11         2.4710    0.0760   -3.9760 ha        1 NLX      0.150000
     28 H21         0.2920    0.0900   -2.8010 ha        1 NLX      0.158000
     29 H51         4.2120   -0.0960    2.4140 h1        1 NLX      0.116700
     30 H71         6.0290   -3.0760    1.3400 hc        1 NLX      0.094200
     31 H72         4.6410   -3.8960    0.5420 hc        1 NLX      0.094200
     32 H81         4.5480   -2.3100   -1.2640 hc        1 NLX      0.079700
     33 H82         6.2850   -2.8070   -1.0580 hc        1 NLX      0.079700
     34 H91         7.0610   -0.5860   -2.2200 hx        1 NLX      0.103700
     35 H101        5.0150   -1.3220   -3.0800 hc        1 NLX      0.084200
     36 H102        5.1300    0.3530   -3.6970 hc        1 NLX      0.084200
     37 H151        4.3320    2.0030    1.0170 hc        1 NLX      0.089700
     38 H152        6.0060    1.3510    1.2930 hc        1 NLX      0.089700
     39 H161        6.0740    3.1230   -0.4420 hx        1 NLX      0.101700
     40 H162        4.6780    2.3310   -1.3440 hx        1 NLX      0.101700
     41 H171        8.5660    0.5920   -1.3580 hx        1 NLX      0.111200
     42 H172        7.8200    1.2410    0.1780 hx        1 NLX      0.111200
     43 H181        9.2380    2.8150   -2.0740 ha        1 NLX      0.149000
     44 H191        8.2590    3.5880    0.7910 ha        1 NLX      0.137500
     45 H192        9.3820    4.5670   -0.3150 ha        1 NLX      0.137500
     46 H201        7.3340    1.5020   -3.5740 hx        1 NLX      0.097700
     47 H202        5.6370    2.1820   -3.3480 hx        1 NLX      0.097700
     48 H203        7.0640    3.1210   -2.7510 hx        1 NLX      0.097700
     49 HO41        6.9280   -1.2270    1.1520 ho        1 NLX      0.436000
@<TRIPOS>BOND
     1    1    8 1   
     2    1   26 1   
     3    2    9 1   
     4    2   10 1   
     5    3   11 2   
     6    4   19 1   
     7    4   49 1   
     8    5   14 1   
     9    5   21 1   
    10    5   22 1   
    11    5   25 1   
    12    6    7 ar  
    13    6   16 ar  
    14    6   27 1   
    15    7    8 ar  
    16    7   28 1   
    17    8    9 ar  
    18    9   17 ar  
    19   10   11 1   
    20   10   18 1   
    21   10   29 1   
    22   11   12 1   
    23   12   13 1   
    24   12   30 1   
    25   12   31 1   
    26   13   19 1   
    27   13   32 1   
    28   13   33 1   
    29   14   15 1   
    30   14   19 1   
    31   14   34 1   
    32   15   16 1   
    33   15   35 1   
    34   15   36 1   
    35   16   17 ar  
    36   17   18 1   
    37   18   19 1   
    38   18   20 1   
    39   20   21 1   
    40   20   37 1   
    41   20   38 1   
    42   21   39 1   
    43   21   40 1   
    44   22   23 1   
    45   22   41 1   
    46   22   42 1   
    47   23   24 2   
    48   23   43 1   
    49   24   44 1   
    50   24   45 1   
    51   25   46 1   
    52   25   47 1   
    53   25   48 1   
@<TRIPOS>SUBSTRUCTURE
     1 NLX         1 TEMP              0 ****  ****    0 ROOT
