@<TRIPOS>MOLECULE
NLX
   49    52     1     0     0
SMALL
bcc


@<TRIPOS>ATOM
      1 O1         -0.3360    0.6470   -0.0900 oh        1 NLX     -0.210000
      2 O2          1.1560   -0.7390    2.2030 os        1 NLX     -0.160000
      3 O4          5.6120   -1.0410    3.6430 oh        1 NLX     -0.367000
      4 N1          6.5340    0.4260    1.6350 n3        1 NLX     -0.113000
      5 C1          3.2560    0.9250   -1.0410 c1        1 NLX     -0.057000
      6 C3          1.0020    0.6280    0.1010 c2        1 NLX      0.118000
      7 C4          1.6640    0.0870    1.1650 c2        1 NLX     -0.154000
      8 C5          2.2960   -1.6180    2.4630 c3        1 NLX     -0.027000
      9 C6          2.4210   -2.5090    3.6520 c2        1 NLX      0.235000
     10 C7          3.7040   -3.3120    3.5020 c3        1 NLX     -0.228000
     11 C8          4.6510   -2.8390    2.3990 c3        1 NLX     -0.184000
     12 C9          5.8120   -0.7850    1.2840 c3        1 NLX      0.017000
     13 C10         5.1070   -0.5670   -0.0740 c3        1 NLX     -0.106000
     14 C11         3.8400    0.1960    0.0240 c2        1 NLX     -0.217000
     15 C12         3.1080    0.0360    1.1640 c2        1 NLX      0.038000
     16 C13         3.5150   -0.6170    2.4490 c3        1 NLX     -0.094000
     17 C14         4.8760   -1.3160    2.4440 c3        1 NLX      0.102000
     18 C15         3.3870    0.3650    3.6060 c3        1 NLX     -0.203000
     19 C16         6.7980    1.6570    0.8190 cy        1 NLX     -0.010000
     20 C17         8.8350    3.4780    3.7120 c3        1 NLX     -0.235000
     21 C18         8.2000    3.2440    2.4060 c2        1 NLX      0.056000
     22 C19         7.5320    2.1400    2.0720 cv        1 NLX     -0.272000
     23 C20         7.1730    0.8640    2.7160 cv        1 NLX      0.183000
     24 HO11       -0.7670    0.1440    0.6240 ho        1 NLX      0.254000
     25 HO41        5.1010   -1.3800    4.3900 ho        1 NLX      0.241000
     26 H11         1.7270    2.3550   -0.9750 hc        1 NLX      0.190000
     27 H21         1.3790    0.9150   -1.9980 hc        1 NLX      0.190000
     28 H51         2.3350   -2.3110    1.5650 h1        1 NLX      0.121000
     29 H71         4.2630   -3.1310    1.3900 hc        1 NLX      0.114000
     30 H72         4.2340   -3.3190    4.4910 hc        1 NLX      0.134500
     31 H81         5.6390   -3.3530    2.5430 hc        1 NLX      0.114000
     32 H82         3.4090   -4.3760    3.2850 hc        1 NLX      0.134500
     33 H91         4.8600   -1.5910   -0.4750 hc        1 NLX      0.125500
     34 H101        5.8070   -0.0920   -0.8130 hc        1 NLX      0.125500
     35 H102        6.6010   -1.5900    1.1430 h1        1 NLX      0.138000
     36 H151        5.8610    2.2020    0.5400 h1        1 NLX      0.163000
     37 H152        4.2710    1.0450    3.6370 hc        1 NLX      0.099333
     38 H161        2.4570    0.9760    3.4920 hc        1 NLX      0.099333
     39 H162        3.3150   -0.1870    4.5750 hc        1 NLX      0.099333
     40 H171        8.7020    2.6220    4.4160 hc        1 NLX      0.123000
     41 H172        7.4340    1.4600   -0.0780 h1        1 NLX      0.163000
     42 H181        9.9330    3.6600    3.5680 hc        1 NLX      0.123000
     43 H191        8.4000    4.4010    4.1800 hc        1 NLX      0.123000
     44 H192        8.3010    4.0660    1.6670 ha        1 NLX      0.169000
     45 H201        9.4810    5.8020    2.5100 ha        1 NLX      0.000000
     46 H202        9.6910    6.4080    2.2920 ha        1 NLX      0.000000
     47 H203        7.3300    0.3940    3.6950 h4        1 NLX      0.240000
     48 O3          1.6510   -2.6190    4.5970 o         1 NLX     -0.213000
     49 C2          1.8250    1.2260   -1.0040 c3        1 NLX     -0.185000
@<TRIPOS>BOND
     1    1    6 1   
     2    1   24 1   
     3    2    7 1   
     4    2    8 1   
     5    3   17 1   
     6    3   25 1   
     7    4   12 1   
     8    4   19 1   
     9    4   23 1   
    10    5   14 1   
    11    5   49 1   
    12    6    7 1   
    13    6   49 1   
    14    7   15 1   
    15    8    9 1   
    16    8   16 1   
    17    8   28 1   
    18    9   10 1   
    19    9   48 1   
    20   10   11 1   
    21   10   30 1   
    22   10   32 1   
    23   11   17 1   
    24   11   29 1   
    25   11   31 1   
    26   12   13 1   
    27   12   17 1   
    28   12   35 1   
    29   13   14 1   
    30   13   33 1   
    31   13   34 1   
    32   14   15 1   
    33   15   16 1   
    34   16   17 1   
    35   16   18 1   
    36   18   37 1   
    37   18   38 1   
    38   18   39 1   
    39   19   22 1   
    40   19   36 1   
    41   19   41 1   
    42   20   21 1   
    43   20   40 1   
    44   20   42 1   
    45   20   43 1   
    46   21   22 1   
    47   21   44 1   
    48   22   23 1   
    49   23   47 1   
    50   26   49 1   
    51   27   49 1   
    52   45   46 1   
@<TRIPOS>SUBSTRUCTURE
     1 NLX         1 TEMP              0 ****  ****    0 ROOT
