@<TRIPOS>MOLECULE
NLY
   23    22     1     0     0
SMALL
bcc


@<TRIPOS>ATOM
      1 N          -0.8980    0.0620   -0.8950 n3        1 NLY     -0.803200
      2 CB          0.2880   -0.5240   -0.2870 c3        1 NLY      0.156800
      3 CG          1.5470    0.3180   -0.4890 c3        1 NLY     -0.081400
      4 CD          2.7390   -0.3700    0.1400 c3        1 NLY     -0.086400
      5 CE          3.9840    0.5050    0.0130 c3        1 NLY      0.151800
      6 NZ          5.1800   -0.0730    0.5870 n3        1 NLY     -0.916800
      7 CA         -2.1170   -0.6020   -0.4640 c3        1 NLY      0.019800
      8 C2         -2.5960   -0.2960    0.9780 c         1 NLY      0.884600
      9 O          -2.0980    0.6980    1.5830 o         1 NLY     -0.849800
     10 H1         -0.9590    1.0250   -0.5960 hn        1 NLY      0.353800
     11 H3          0.1480   -0.6920    0.8230 h1        1 NLY      0.030700
     12 H4          0.4460   -1.5330   -0.7630 h1        1 NLY      0.030700
     13 H5          1.7360    0.4770   -1.5820 hc        1 NLY      0.038700
     14 H6          1.4040    1.3280   -0.0210 hc        1 NLY      0.038700
     15 H7          2.5240   -0.5750    1.2220 hc        1 NLY      0.043700
     16 H8          2.9140   -1.3580   -0.3590 hc        1 NLY      0.043700
     17 H9          4.1980    0.6780   -1.0810 h1        1 NLY      0.025700
     18 H10         3.7470    1.5150    0.4640 h1        1 NLY      0.025700
     19 H11         5.8020    0.6500    0.8890 hn        1 NLY      0.339300
     20 H12         4.9560   -0.6510    1.3740 hn        1 NLY      0.339300
     21 H14        -2.9300   -0.2720   -1.1670 h1        1 NLY      0.032700
     22 H15        -1.9960   -1.7130   -0.5710 h1        1 NLY      0.032700
     23 OXT        -3.4760   -1.0590    1.4660 o         1 NLY     -0.849800
@<TRIPOS>BOND
     1    1    2 1   
     2    1    7 1   
     3    1   10 1   
     4    2    3 1   
     5    2   11 1   
     6    2   12 1   
     7    3    4 1   
     8    3   13 1   
     9    3   14 1   
    10    4    5 1   
    11    4   15 1   
    12    4   16 1   
    13    5    6 1   
    14    5   17 1   
    15    5   18 1   
    16    6   19 1   
    17    6   20 1   
    18    7    8 1   
    19    7   21 1   
    20    7   22 1   
    21    8    9 1   
    22    8   23 1   
@<TRIPOS>SUBSTRUCTURE
     1 NLY         1 TEMP              0 ****  ****    0 ROOT
