@<TRIPOS>MOLECULE
NLY
   23    22     1     0     0
SMALL
bcc


@<TRIPOS>ATOM
      1 N          -1.7690   -0.0800   -0.7880 n3        1 NLY     -0.803200
      2 CB         -0.3450   -0.0800   -0.7880 c3        1 NLY      0.156800
      3 CG          0.1600   -0.0800    0.6380 c3        1 NLY     -0.081400
      4 CD          1.6720   -0.0500    0.6380 c3        1 NLY     -0.086400
      5 CE          2.1770   -0.0820    2.0640 c3        1 NLY      0.151800
      6 NZ          3.6020   -0.0230    2.0650 n3        1 NLY     -0.916800
      7 CA         -2.2430    0.1970   -2.1020 c3        1 NLY      0.019800
      8 C2         -3.7440    0.3880   -2.0660 c         1 NLY      0.884600
      9 O          -4.5060   -0.5380   -2.4490 o         1 NLY     -0.849800
     10 H1         -2.0730   -0.8980   -0.5220 hn        1 NLY      0.353800
     11 H3         -0.0190    0.7170   -1.2490 h1        1 NLY      0.030700
     12 H4         -0.0190   -0.8770   -1.2490 h1        1 NLY      0.030700
     13 H5         -0.1820    0.7070    1.1040 hc        1 NLY      0.038700
     14 H6         -0.1500   -0.8870    1.0920 hc        1 NLY      0.038700
     15 H7          1.9810    0.7670    0.2020 hc        1 NLY      0.043700
     16 H8          2.0130   -0.8260    0.1540 hc        1 NLY      0.043700
     17 H9          1.8860   -0.9090    2.4940 h1        1 NLY      0.025700
     18 H10         1.8190    0.6830    2.5530 h1        1 NLY      0.025700
     19 H11         3.8750    0.7130    2.5290 hn        1 NLY      0.339300
     20 H12         3.9370   -0.7730    2.4610 hn        1 NLY      0.339300
     21 H14        -2.0240   -0.5490   -2.6920 h1        1 NLY      0.032700
     22 H15        -1.8200    1.0110   -2.4360 h1        1 NLY      0.032700
     23 OXT        -4.2300    1.4730   -1.6530 o         1 NLY     -0.849800
@<TRIPOS>BOND
     1    1    2 1   
     2    1    7 1   
     3    1   10 1   
     4    2    3 1   
     5    2   11 1   
     6    2   12 1   
     7    3    4 1   
     8    3   13 1   
     9    3   14 1   
    10    4    5 1   
    11    4   15 1   
    12    4   16 1   
    13    5    6 1   
    14    5   17 1   
    15    5   18 1   
    16    6   19 1   
    17    6   20 1   
    18    7    8 1   
    19    7   21 1   
    20    7   22 1   
    21    8    9 1   
    22    8   23 1   
@<TRIPOS>SUBSTRUCTURE
     1 NLY         1 TEMP              0 ****  ****    0 ROOT
