@<TRIPOS>MOLECULE
NM1
   82    77     1     0     0
SMALL
bcc


@<TRIPOS>ATOM
      1 N01        -1.1500   -0.3940   -0.1180 n3        1 NM1     -0.807000
      2 S02         0.4920   -0.4170   -0.1330 s4        1 NM1      2.012800
      3 N03         0.9680   -0.4270    1.4600 n2        1 NM1     -0.804000
      4 C04         0.0750    0.3650    2.2740 c3        1 NM1      0.057000
      5 C05        -0.9380   -0.5030    2.9650 c3        1 NM1     -0.023000
      6 C06        -2.1220   -0.7910    2.0520 c3        1 NM1     -0.032000
      7 C07        -1.6670   -1.3980    0.7630 c3        1 NM1      0.051000
      8 C08        -1.9580    0.3920   -1.0160 c3        1 NM1      0.013000
      9 C09        -1.0850    0.8700   -2.2180 c2        1 NM1     -0.112000
     10 C10        -1.1740    2.1980   -2.6640 c1        1 NM1     -0.075000
     11 C11        -0.4610    2.6040   -3.8060 c1        1 NM1     -0.128000
     12 C12         0.3240    1.6990   -4.4880 c1        1 NM1     -0.099000
     13 C13         0.4140    0.3670   -4.0420 c1        1 NM1     -0.134000
     14 C14        -0.2930   -0.0410   -2.9070 c2        1 NM1     -0.093000
     15 O15         0.9890   -1.5770   -0.8280 o         1 NM1     -0.528400
     16 O16         1.5860    2.2430    2.7150 os        1 NM1     -0.219000
     17 C17         2.2680    3.1250    3.6650 c2        1 NM1      0.077000
     18 C18         3.6480    3.1850    3.6840 c2        1 NM1     -0.154000
     19 C19         4.2880    4.0410    4.5490 c1        1 NM1     -0.100000
     20 C20         3.5460    4.8460    5.4030 c1        1 NM1     -0.131167
     21 C21         2.1800    4.7880    5.3840 c1        1 NM1     -0.131167
     22 C22         1.5350    3.9230    4.5110 c1        1 NM1     -0.202000
     23 C23         2.1740   -1.1040    1.9630 c3        1 NM1      0.006000
     24 C24         3.0200   -1.6310    0.7560 c2        1 NM1     -0.106000
     25 C25         3.7560   -0.7250   -0.0350 c2        1 NM1     -0.118000
     26 C26         4.5970   -1.2000   -1.0370 c1        1 NM1     -0.126000
     27 C27         4.7160   -2.5830   -1.2600 c1        1 NM1     -0.131167
     28 C28         3.9880   -3.4810   -0.4760 c1        1 NM1     -0.131167
     29 C29         3.1380   -3.0030    0.5360 c1        1 NM1     -0.122000
     30 O30        -0.3300   -1.7250    3.3370 oh        1 NM1     -0.319000
     31 O31        -2.8080    0.4220    1.7790 oh        1 NM1     -0.319000
     32 C32        -2.8630   -2.1070    0.0840 c3        1 NM1     -0.030000
     33 O33        -2.3960   -3.2690   -0.6120 os        1 NM1     -0.234000
     34 C34        -3.4100   -4.2070   -0.9080 c2        1 NM1      0.071000
     35 C35        -3.9100   -5.0300    0.0970 c2        1 NM1     -0.190000
     36 C36        -4.9170   -5.9560   -0.1930 c1        1 NM1     -0.089000
     37 C37        -5.4160   -6.0550   -1.4790 c1        1 NM1     -0.131167
     38 C38        -4.9140   -5.2290   -2.4910 c1        1 NM1     -0.131167
     39 C39        -3.9110   -4.3060   -2.2010 c1        1 NM1     -0.161000
     40 O40         0.9840    0.7780   -0.7740 o         1 NM1     -0.528400
     41 C41         0.8960    1.1230    3.3380 c3        1 NM1     -0.028000
     42 C51        -0.6260    4.0520   -4.3500 c2        1 NM1      0.349000
     43 O52        -1.3740    4.8310   -3.7840 o         1 NM1     -0.385000
     44 N53         0.2270    4.5190   -5.4020 n         1 NM1     -0.380000
     45 C54        -0.1590    5.6370   -6.1840 c3        1 NM1     -0.076000
     46 H04        -0.3780    0.9970    1.7190 h1        1 NM1      0.131000
     47 H05        -1.2550   -0.0460    3.7690 h1        1 NM1      0.078000
     48 H06        -2.7280   -1.4070    2.5010 h1        1 NM1      0.100000
     49 H07        -0.9640   -2.0580    0.9480 h1        1 NM1      0.127000
     50 H081       -2.7100   -0.1620   -1.3540 h1        1 NM1      0.118500
     51 H082       -2.3160    1.1760   -0.5360 h1        1 NM1      0.118500
     52 H10        -1.7330    2.8430   -2.1790 ha        1 NM1      0.150000
     53 H12         0.8220    1.9850   -5.2860 ha        1 NM1      0.134000
     54 H13         0.9650   -0.2680   -4.5210 ha        1 NM1      0.142000
     55 H14        -0.2310   -0.9590   -2.6010 ha        1 NM1      0.166000
     56 H18         4.1810    2.6050    3.0690 ha        1 NM1      0.151000
     57 H19         5.2770    4.0840    4.5630 ha        1 NM1      0.135000
     58 H20         4.0130    5.4720    6.0360 ha        1 NM1      0.131333
     59 H21         1.6490    5.3650    5.9970 ha        1 NM1      0.131333
     60 H22         0.5360    3.8800    4.4960 ha        1 NM1      0.137000
     61 H231        1.9140   -1.8520    2.5290 h1        1 NM1      0.118500
     62 H232        2.7010   -0.4810    2.4760 h1        1 NM1      0.118500
     63 H25         3.6740    0.2380    0.1190 ha        1 NM1      0.152000
     64 H26         5.1200   -0.5540   -1.6000 ha        1 NM1      0.134000
     65 H27         5.3120   -2.9190   -1.9700 ha        1 NM1      0.131333
     66 H28         4.0710   -4.4490   -0.6330 ha        1 NM1      0.131333
     67 H29         2.6250   -3.6350    1.0880 ha        1 NM1      0.132000
     68 HO3        -0.6570   -1.9940    4.1340 ho        1 NM1      0.209000
     69 HO1        -3.3680    0.6060    2.4490 ho        1 NM1      0.205000
     70 H321       -3.2910   -1.4900   -0.5570 h1        1 NM1      0.104000
     71 H322       -3.5160   -2.3730    0.7650 h1        1 NM1      0.104000
     72 H35        -3.5590   -4.9610    1.0040 ha        1 NM1      0.161000
     73 H36        -5.2730   -6.5420    0.5240 ha        1 NM1      0.143000
     74 H37        -6.1050   -6.6890   -1.6770 ha        1 NM1      0.131333
     75 H38        -5.2720   -5.3000   -3.4110 ha        1 NM1      0.131333
     76 H39        -3.5650   -3.7360   -2.8970 ha        1 NM1      0.141000
     77 H411        1.5470    0.5220    3.7340 h1        1 NM1      0.097500
     78 H412        0.2940    1.4590    4.0370 h1        1 NM1      0.097500
     79 H53         1.0300    4.1080   -5.5570 hn        1 NM1      0.226000
     80 H541       -0.3960    6.3820   -5.5950 h1        1 NM1      0.084000
     81 H542       -0.9260    5.4000   -6.7310 h1        1 NM1      0.084000
     82 H543        0.5860    5.9020   -6.7630 h1        1 NM1      0.084000
@<TRIPOS>BOND
     1    1    2 1   
     2    1    7 1   
     3    1    8 1   
     4    2   15 1   
     5    2   40 1   
     6    3    4 1   
     7    3   23 1   
     8    4    5 1   
     9    4   41 1   
    10    4   46 1   
    11    5    6 1   
    12    5   30 1   
    13    5   47 1   
    14    6    7 1   
    15    6   31 1   
    16    6   48 1   
    17    7   32 1   
    18    7   49 1   
    19    8    9 1   
    20    8   50 1   
    21    8   51 1   
    22    9   10 1   
    23    9   14 1   
    24   10   52 1   
    25   11   12 1   
    26   11   42 1   
    27   12   53 1   
    28   13   14 1   
    29   13   54 1   
    30   14   55 1   
    31   16   17 1   
    32   16   41 1   
    33   17   18 1   
    34   17   22 1   
    35   18   19 1   
    36   18   56 1   
    37   19   57 1   
    38   20   21 1   
    39   20   58 1   
    40   21   59 1   
    41   22   60 1   
    42   23   24 1   
    43   23   61 1   
    44   23   62 1   
    45   24   25 1   
    46   24   29 1   
    47   25   26 1   
    48   25   63 1   
    49   26   64 1   
    50   27   28 1   
    51   27   65 1   
    52   28   66 1   
    53   29   67 1   
    54   30   68 1   
    55   31   69 1   
    56   32   33 1   
    57   32   70 1   
    58   32   71 1   
    59   33   34 1   
    60   34   35 1   
    61   34   39 1   
    62   35   36 1   
    63   35   72 1   
    64   36   73 1   
    65   37   38 1   
    66   37   74 1   
    67   38   75 1   
    68   39   76 1   
    69   41   77 1   
    70   41   78 1   
    71   42   43 1   
    72   42   44 1   
    73   44   45 1   
    74   44   79 1   
    75   45   80 1   
    76   45   81 1   
    77   45   82 1   
@<TRIPOS>SUBSTRUCTURE
     1 NM1         1 TEMP              0 ****  ****    0 ROOT
