@<TRIPOS>MOLECULE
NM1
   82    86     1     0     0
SMALL
bcc


@<TRIPOS>ATOM
      1 N01        -0.3810   -1.2330   -0.7830 n3        1 NM1     -0.791500
      2 S02        -0.6950   -2.0840    0.6000 s6        1 NM1      1.562800
      3 N03        -0.6300   -0.9200    1.7660 n3        1 NM1     -0.788500
      4 C04         0.5960   -0.1740    1.8950 c3        1 NM1      0.241500
      5 C05         0.8410    0.8670    0.7530 c3        1 NM1      0.097100
      6 C06        -0.3450    1.2210   -0.1690 c3        1 NM1      0.083100
      7 C07        -1.0210    0.0460   -0.9410 c3        1 NM1      0.205500
      8 C08         0.4970   -1.7640   -1.7900 c3        1 NM1      0.269100
      9 C09         1.9330   -1.3180   -1.6960 ca        1 NM1     -0.128300
     10 C10         2.3810   -0.2220   -2.4340 ca        1 NM1     -0.088000
     11 C11         3.7180    0.1860   -2.3470 ca        1 NM1     -0.150600
     12 C12         4.6120   -0.5140   -1.5330 ca        1 NM1     -0.099000
     13 C13         4.1630   -1.6150   -0.8030 ca        1 NM1     -0.136000
     14 C14         2.8290   -2.0140   -0.8760 ca        1 NM1     -0.097000
     15 O15        -1.9970   -2.6360    0.5740 o         1 NM1     -0.648300
     16 C17         1.2390   -0.1720    5.5120 ca        1 NM1      0.122100
     17 C18         1.3500   -1.2390    6.4250 ca        1 NM1     -0.179000
     18 C19         1.7270   -0.9690    7.7350 ca        1 NM1     -0.098000
     19 C20         1.9950    0.3410    8.1410 ca        1 NM1     -0.163000
     20 C21         1.8830    1.3880    7.2300 ca        1 NM1     -0.098000
     21 C22         1.5040    1.1430    5.9090 ca        1 NM1     -0.179000
     22 C23        -1.7610   -0.6740    2.6230 c3        1 NM1      0.263100
     23 C24        -2.7720    0.3220    2.1210 ca        1 NM1     -0.131300
     24 C25        -3.8160   -0.1100    1.2940 ca        1 NM1     -0.123000
     25 C26        -4.7960    0.7890    0.8770 ca        1 NM1     -0.133000
     26 C27        -4.7380    2.1240    1.2800 ca        1 NM1     -0.123000
     27 C28        -3.6980    2.5580    2.1010 ca        1 NM1     -0.133000
     28 C29        -2.7160    1.6600    2.5210 ca        1 NM1     -0.123000
     29 O30         1.3050    2.0650    1.3600 oh        1 NM1     -0.610800
     30 O31         0.0970    2.2470   -1.0440 oh        1 NM1     -0.601800
     31 C32        -1.2960    0.5080   -2.3860 c3        1 NM1      0.128400
     32 O33        -2.1600   -0.4710   -2.9690 os        1 NM1     -0.327900
     33 C34        -2.6920   -0.1400   -4.2030 ca        1 NM1      0.118100
     34 C35        -3.6460   -1.0540   -4.6900 ca        1 NM1     -0.177500
     35 C36        -4.2270   -0.8250   -5.9310 ca        1 NM1     -0.098500
     36 C37        -3.8720    0.2960   -6.6850 ca        1 NM1     -0.162000
     37 C38        -2.9280    1.1940   -6.1940 ca        1 NM1     -0.098500
     38 C39        -2.3280    0.9850   -4.9510 ca        1 NM1     -0.177500
     39 O40         0.3440   -3.0350    0.7710 o         1 NM1     -0.648300
     40 C41         0.8500    0.4970    3.2590 c3        1 NM1      0.139400
     41 C51         4.1100    1.4130   -3.1000 c         1 NM1      0.671700
     42 O52         3.3200    2.3770   -3.2000 o         1 NM1     -0.619100
     43 N53         5.3600    1.4400   -3.6770 n         1 NM1     -0.567900
     44 C54         5.8330    2.5440   -4.4500 c3        1 NM1      0.077300
     45 H04         1.4320   -0.9430    1.7840 h1        1 NM1      0.076700
     46 H05         1.6750    0.4580    0.1060 h1        1 NM1      0.050700
     47 H06        -1.1470    1.7270    0.4500 h1        1 NM1      0.105700
     48 H07        -2.0580   -0.0720   -0.4730 h1        1 NM1      0.083700
     49 H081        0.0950   -1.5100   -2.8140 h1        1 NM1      0.074700
     50 H082        0.4790   -2.8930   -1.6960 h1        1 NM1      0.074700
     51 H10         1.6950    0.3380   -3.0900 ha        1 NM1      0.148000
     52 H12         5.6610   -0.1950   -1.4450 ha        1 NM1      0.137000
     53 H13         4.8640   -2.1670   -0.1590 ha        1 NM1      0.144000
     54 H14         2.4680   -2.8730   -0.2800 ha        1 NM1      0.176000
     55 H18         1.1370   -2.2630    6.0890 ha        1 NM1      0.146000
     56 H19         1.8150   -1.7960    8.4560 ha        1 NM1      0.133000
     57 H20         2.2930    0.5430    9.1800 ha        1 NM1      0.133000
     58 H21         2.0940    2.4200    7.5480 ha        1 NM1      0.133000
     59 H22         1.4200    1.9800    5.2030 ha        1 NM1      0.146000
     60 H231       -2.2960   -1.6650    2.7650 h1        1 NM1      0.078200
     61 H232       -1.4030   -0.3510    3.6430 h1        1 NM1      0.078200
     62 H25        -3.8600   -1.1680    0.9790 ha        1 NM1      0.150000
     63 H26        -5.6160    0.4440    0.2310 ha        1 NM1      0.136000
     64 H27        -5.5130    2.8330    0.9520 ha        1 NM1      0.134000
     65 H28        -3.6510    3.6100    2.4210 ha        1 NM1      0.136000
     66 H29        -1.9030    2.0080    3.1750 ha        1 NM1      0.150000
     67 HO3         1.3210    2.7530    0.6770 ho        1 NM1      0.429000
     68 HO1         0.8310    1.9000   -1.5730 ho        1 NM1      0.416000
     69 H321       -1.8080    1.5070   -2.3460 h1        1 NM1      0.057200
     70 H322       -0.3590    0.5910   -2.9930 h1        1 NM1      0.057200
     71 H35        -3.9140   -1.9300   -4.0830 ha        1 NM1      0.146000
     72 H36        -4.9730   -1.5340   -6.3200 ha        1 NM1      0.134000
     73 H37        -4.3390    0.4690   -7.6650 ha        1 NM1      0.133000
     74 H38        -2.6470    2.0780   -6.7860 ha        1 NM1      0.134000
     75 H39        -1.5840    1.7030   -4.5790 ha        1 NM1      0.146000
     76 H411        1.8620    0.9840    3.2350 h1        1 NM1      0.063700
     77 H412        0.0680    1.2610    3.5000 h1        1 NM1      0.063700
     78 H53         5.9300    0.6300   -3.6300 hn        1 NM1      0.313500
     79 H541        6.8300    2.8830   -4.0560 h1        1 NM1      0.046700
     80 H542        5.9570    2.2440   -5.5260 h1        1 NM1      0.046700
     81 H543        5.1060    3.3980   -4.3920 h1        1 NM1      0.046700
     82 O16         0.8400   -0.5450    4.2410 os        1 NM1     -0.334900
@<TRIPOS>BOND
     1    1    2 1   
     2    1    7 1   
     3    1    8 1   
     4    2    3 1   
     5    2   15 2   
     6    2   39 2   
     7    3    4 1   
     8    3   22 1   
     9    4    5 1   
    10    4   40 1   
    11    4   45 1   
    12    5    6 1   
    13    5   29 1   
    14    5   46 1   
    15    6    7 1   
    16    6   30 1   
    17    6   47 1   
    18    7   31 1   
    19    7   48 1   
    20    8    9 1   
    21    8   49 1   
    22    8   50 1   
    23    9   10 ar  
    24    9   14 ar  
    25   10   11 ar  
    26   10   51 1   
    27   11   12 ar  
    28   11   41 1   
    29   12   13 ar  
    30   12   52 1   
    31   13   14 ar  
    32   13   53 1   
    33   14   54 1   
    34   16   17 ar  
    35   16   21 ar  
    36   16   82 1   
    37   17   18 ar  
    38   17   55 1   
    39   18   19 ar  
    40   18   56 1   
    41   19   20 ar  
    42   19   57 1   
    43   20   21 ar  
    44   20   58 1   
    45   21   59 1   
    46   22   23 1   
    47   22   60 1   
    48   22   61 1   
    49   23   24 ar  
    50   23   28 ar  
    51   24   25 ar  
    52   24   62 1   
    53   25   26 ar  
    54   25   63 1   
    55   26   27 ar  
    56   26   64 1   
    57   27   28 ar  
    58   27   65 1   
    59   28   66 1   
    60   29   67 1   
    61   30   68 1   
    62   31   32 1   
    63   31   69 1   
    64   31   70 1   
    65   32   33 1   
    66   33   34 ar  
    67   33   38 ar  
    68   34   35 ar  
    69   34   71 1   
    70   35   36 ar  
    71   35   72 1   
    72   36   37 ar  
    73   36   73 1   
    74   37   38 ar  
    75   37   74 1   
    76   38   75 1   
    77   40   76 1   
    78   40   77 1   
    79   40   82 1   
    80   41   42 2   
    81   41   43 1   
    82   43   44 1   
    83   43   78 1   
    84   44   79 1   
    85   44   80 1   
    86   44   81 1   
@<TRIPOS>SUBSTRUCTURE
     1 NM1         1 TEMP              0 ****  ****    0 ROOT
