@<TRIPOS>MOLECULE
NM1
   83    87     1     0     0
SMALL
bcc


@<TRIPOS>ATOM
      1 N01        -0.1260    0.4040    0.4050 n3        1 NM1     -0.778500
      2 S02         1.5380    0.5220    0.3710 s6        1 NM1      1.569800
      3 N03         1.9770    0.1030    1.8890 n3        1 NM1     -0.780500
      4 C04         1.4210    0.8430    2.9880 c3        1 NM1      0.258500
      5 C05         0.1350    0.2480    3.6310 c3        1 NM1      0.094100
      6 C06        -1.0740   -0.0210    2.7130 c3        1 NM1      0.090100
      7 C07        -0.7840   -0.5340    1.2720 c3        1 NM1      0.253500
      8 C08        -0.8540    1.1630   -0.5710 c3        1 NM1      0.270100
      9 C09        -1.2290    2.5760   -0.1890 ca        1 NM1     -0.105300
     10 C10        -2.4620    2.8350    0.4130 ca        1 NM1     -0.002000
     11 C11        -2.8580    4.1620    0.6630 ca        1 NM1     -0.234600
     12 C12        -1.9920    5.2260    0.3480 ca        1 NM1     -0.099000
     13 C13        -0.7540    4.9570   -0.2150 ca        1 NM1     -0.128000
     14 C14        -0.3690    3.6380   -0.4890 ca        1 NM1     -0.017000
     15 O15         2.0790   -0.3760   -0.5710 o         1 NM1     -0.648800
     16 C17         4.5070    2.1420    4.5180 ca        1 NM1      0.111100
     17 C18         5.6270    2.7630    3.9350 ca        1 NM1     -0.177000
     18 C19         6.7040    3.1070    4.7450 ca        1 NM1     -0.096000
     19 C20         6.6750    2.8390    6.1160 ca        1 NM1     -0.154000
     20 C21         5.5610    2.2240    6.6810 ca        1 NM1     -0.096000
     21 C22         4.4670    1.8700    5.8890 ca        1 NM1     -0.177000
     22 C23         2.9190   -0.9740    2.0950 c3        1 NM1      0.268100
     23 C24         2.3450   -2.3610    2.1710 ca        1 NM1     -0.135300
     24 C25         2.0600   -3.0690    0.9970 ca        1 NM1     -0.110500
     25 C26         1.6090   -4.3860    1.0660 ca        1 NM1     -0.139000
     26 C27         1.4440   -5.0060    2.3050 ca        1 NM1     -0.117000
     27 C28         1.7260   -4.3040    3.4770 ca        1 NM1     -0.139000
     28 C29         2.1740   -2.9840    3.4110 ca        1 NM1     -0.110500
     29 O30         0.5230   -0.9320    4.3100 oh        1 NM1     -0.579800
     30 O31        -1.8840    1.1410    2.6060 oh        1 NM1     -0.606800
     31 C32        -2.1250   -1.1210    0.7690 c3        1 NM1      0.125400
     32 O33        -1.9050   -1.6450   -0.5390 os        1 NM1     -0.330900
     33 C34        -2.8710   -2.5290   -0.9990 ca        1 NM1      0.105100
     34 C35        -2.4810   -3.2990   -2.1090 ca        1 NM1     -0.173500
     35 C36        -3.3980   -4.1820   -2.6700 ca        1 NM1     -0.097000
     36 C37        -4.6830   -4.3060   -2.1340 ca        1 NM1     -0.150000
     37 C38        -5.0560   -3.5390   -1.0320 ca        1 NM1     -0.097000
     38 C39        -4.1550   -2.6410   -0.4560 ca        1 NM1     -0.173500
     39 O40         1.8330    1.8820    0.0970 o         1 NM1     -0.648800
     40 C41         2.3850    1.1230    4.1650 c3        1 NM1      0.128400
     41 C51        -4.1650    4.3540    1.2740 c         1 NM1      0.580700
     42 O52        -4.8430    3.5770    1.9290 o         1 NM1     -0.433100
     43 N53        -4.8020    5.7290    1.0340 n4        1 NM1     -0.679800
     44 C54        -6.2650    5.7360    1.2340 c3        1 NM1      0.082100
     45 H04         1.1170    1.8590    2.5740 h1        1 NM1      0.074700
     46 H05        -0.2090    1.0120    4.3960 h1        1 NM1      0.033700
     47 H06        -1.6790   -0.8360    3.2190 h1        1 NM1      0.042700
     48 H07        -0.0850   -1.4270    1.3970 h1        1 NM1      0.096700
     49 H081       -1.7970    0.6210   -0.8750 h1        1 NM1      0.078200
     50 H082       -0.2060    1.2290   -1.5000 h1        1 NM1      0.078200
     51 H10        -3.1170    1.9960    0.7110 ha        1 NM1      0.172000
     52 H12        -2.2560    6.2710    0.5660 ha        1 NM1      0.119000
     53 H13        -0.0600    5.7820   -0.4430 ha        1 NM1      0.167000
     54 H14         0.6330    3.4350   -0.9190 ha        1 NM1      0.205000
     55 H18         5.6350    2.9650    2.8550 ha        1 NM1      0.142500
     56 H19         7.5860    3.5920    4.2990 ha        1 NM1      0.138500
     57 H20         7.5330    3.1140    6.7460 ha        1 NM1      0.140000
     58 H21         5.5380    2.0110    7.7610 ha        1 NM1      0.138500
     59 H22         3.5970    1.3850    6.3510 ha        1 NM1      0.142500
     60 H231        3.6490   -0.9480    1.2280 h1        1 NM1      0.077200
     61 H232        3.5140   -0.7700    3.0310 h1        1 NM1      0.077200
     62 H25         2.2100   -2.5880    0.0140 ha        1 NM1      0.151000
     63 H26         1.3930   -4.9390    0.1400 ha        1 NM1      0.136500
     64 H27         1.0990   -6.0490    2.3580 ha        1 NM1      0.136000
     65 H28         1.6040   -4.7930    4.4550 ha        1 NM1      0.136500
     66 H29         2.3830   -2.4250    4.3360 ha        1 NM1      0.151000
     67 HO3        -0.2500   -1.2690    4.7820 ho        1 NM1      0.406000
     68 HO1        -2.1700    1.3700    3.4990 ho        1 NM1      0.404000
     69 H321       -2.9210   -0.3320    0.7320 h1        1 NM1      0.048200
     70 H322       -2.4400   -1.9420    1.4670 h1        1 NM1      0.048200
     71 H35        -1.4650   -3.1920   -2.5150 ha        1 NM1      0.142000
     72 H36        -3.1040   -4.7900   -3.5390 ha        1 NM1      0.140000
     73 H37        -5.3980   -5.0110   -2.5820 ha        1 NM1      0.142000
     74 H38        -6.0660   -3.6390   -0.6090 ha        1 NM1      0.140000
     75 H39        -4.4620   -2.0410    0.4100 ha        1 NM1      0.142000
     76 H411        1.8530    1.7570    4.9240 h1        1 NM1      0.055700
     77 H412        2.7280    0.1720    4.6490 h1        1 NM1      0.055700
     78 H53        -4.5800    6.0180    0.0740 hn        1 NM1      0.457300
     79 H541       -6.7440    5.0280    0.5050 hx        1 NM1      0.110700
     80 H542       -6.5030    5.3940    2.2790 hx        1 NM1      0.110700
     81 H543       -6.6580    6.7750    1.0730 hx        1 NM1      0.110700
     82 O16         3.4850    1.8540    3.6270 os        1 NM1     -0.328900
     83 H532       -4.3630    6.3960    1.6780 hn        1 NM1      0.457300
@<TRIPOS>BOND
     1    1    2 1   
     2    1    7 1   
     3    1    8 1   
     4    2    3 1   
     5    2   15 2   
     6    2   39 2   
     7    3    4 1   
     8    3   22 1   
     9    4    5 1   
    10    4   40 1   
    11    4   45 1   
    12    5    6 1   
    13    5   29 1   
    14    5   46 1   
    15    6    7 1   
    16    6   30 1   
    17    6   47 1   
    18    7   31 1   
    19    7   48 1   
    20    8    9 1   
    21    8   49 1   
    22    8   50 1   
    23    9   10 ar  
    24    9   14 ar  
    25   10   11 ar  
    26   10   51 1   
    27   11   12 ar  
    28   11   41 1   
    29   12   13 ar  
    30   12   52 1   
    31   13   14 ar  
    32   13   53 1   
    33   14   54 1   
    34   16   17 ar  
    35   16   21 ar  
    36   16   82 1   
    37   17   18 ar  
    38   17   55 1   
    39   18   19 ar  
    40   18   56 1   
    41   19   20 ar  
    42   19   57 1   
    43   20   21 ar  
    44   20   58 1   
    45   21   59 1   
    46   22   23 1   
    47   22   60 1   
    48   22   61 1   
    49   23   24 ar  
    50   23   28 ar  
    51   24   25 ar  
    52   24   62 1   
    53   25   26 ar  
    54   25   63 1   
    55   26   27 ar  
    56   26   64 1   
    57   27   28 ar  
    58   27   65 1   
    59   28   66 1   
    60   29   67 1   
    61   30   68 1   
    62   31   32 1   
    63   31   69 1   
    64   31   70 1   
    65   32   33 1   
    66   33   34 ar  
    67   33   38 ar  
    68   34   35 ar  
    69   34   71 1   
    70   35   36 ar  
    71   35   72 1   
    72   36   37 ar  
    73   36   73 1   
    74   37   38 ar  
    75   37   74 1   
    76   38   75 1   
    77   40   76 1   
    78   40   77 1   
    79   40   82 1   
    80   41   42 2   
    81   41   43 1   
    82   43   44 1   
    83   43   78 1   
    84   43   83 1   
    85   44   79 1   
    86   44   80 1   
    87   44   81 1   
@<TRIPOS>SUBSTRUCTURE
     1 NM1         1 TEMP              0 ****  ****    0 ROOT
