@<TRIPOS>MOLECULE
NM2
   25    24     1     0     0
SMALL
bcc


@<TRIPOS>ATOM
      1 N1          2.2520    0.0330    0.0000 n4        1 NM2     -0.605800
      2 C8          2.3000    0.8940    1.2160 c3        1 NM2      0.089767
      3 O4         -3.8810   -0.6410    0.0000 o         1 NM2     -0.817800
      4 C5         -2.7870   -0.0280    0.0000 c         1 NM2      0.923600
      5 O7         -2.6260    1.2250   -0.0000 o         1 NM2     -0.817800
      6 C6         -1.4980   -0.9030    0.0010 c3        1 NM2     -0.226400
      7 C2          0.9820   -0.7990    0.0010 c3        1 NM2      0.116800
      8 C9          2.3000    0.8930   -1.2170 c3        1 NM2      0.089767
      9 C10         3.4250   -0.8850    0.0010 c3        1 NM2      0.089767
     10 C3         -0.2990    0.0140    0.0000 c3        1 NM2     -0.088400
     11 H21C        1.0210   -1.4520   -0.9160 hx        1 NM2      0.082700
     12 H22C        1.0210   -1.4520    0.9180 hx        1 NM2      0.082700
     13 H81C        2.1910    0.2510    2.1290 hx        1 NM2      0.095256
     14 H82C        3.2770    1.4410    1.2470 hx        1 NM2      0.095256
     15 H83C        1.4530    1.6340    1.1830 hx        1 NM2      0.095256
     16 H91C        1.4530    1.6330   -1.1850 hx        1 NM2      0.095256
     17 H92C        3.2770    1.4400   -1.2480 hx        1 NM2      0.095256
     18 H93C        2.1910    0.2490   -2.1280 hx        1 NM2      0.095256
     19 H101        3.3890   -1.5320   -0.9150 hx        1 NM2      0.095256
     20 H102        4.3730   -0.2860    0.0000 hx        1 NM2      0.095256
     21 H103        3.3890   -1.5310    0.9170 hx        1 NM2      0.095256
     22 H31C       -0.3680    0.6750   -0.9040 hc        1 NM2      0.074700
     23 H32C       -0.3680    0.6760    0.9040 hc        1 NM2      0.074700
     24 H61C       -1.5110   -1.5540    0.9070 hc        1 NM2      0.036700
     25 H62C       -1.5110   -1.5550   -0.9050 hc        1 NM2      0.036700
@<TRIPOS>BOND
     1    1    2 1   
     2    1    7 1   
     3    1    8 1   
     4    1    9 1   
     5    2   13 1   
     6    2   14 1   
     7    2   15 1   
     8    3    4 1   
     9    4    5 1   
    10    4    6 1   
    11    6   10 1   
    12    6   24 1   
    13    6   25 1   
    14    7   10 1   
    15    7   11 1   
    16    7   12 1   
    17    8   16 1   
    18    8   17 1   
    19    8   18 1   
    20    9   19 1   
    21    9   20 1   
    22    9   21 1   
    23   10   22 1   
    24   10   23 1   
@<TRIPOS>SUBSTRUCTURE
     1 NM2         1 TEMP              0 ****  ****    0 ROOT
