@<TRIPOS>MOLECULE
NM2
   25    24     1     0     0
SMALL
bcc


@<TRIPOS>ATOM
      1 N1          0.1830    0.2390    0.2050 n4        1 NM2     -0.584800
      2 C8          1.6120   -0.0230   -0.1130 c3        1 NM2      0.080767
      3 O4         -0.9350    3.2810    2.4730 o         1 NM2     -0.840300
      4 C5         -1.3150    2.0930    2.6520 c         1 NM2      0.894600
      5 O7         -2.2810    1.5650    2.0140 o         1 NM2     -0.840300
      6 C6         -0.4950    1.1840    3.5780 c3        1 NM2     -0.210400
      7 C2         -0.1440   -0.2970    1.5810 c3        1 NM2      0.098800
      8 C9         -0.0910    1.7030    0.0770 c3        1 NM2      0.080767
      9 C10        -0.6810   -0.4820   -0.7770 c3        1 NM2      0.080767
     10 C3          0.5190    0.4050    2.7630 c3        1 NM2     -0.069400
     11 H21C        0.1510   -1.3830    1.5660 hx        1 NM2      0.110200
     12 H22C       -1.2760   -0.2080    1.6980 hx        1 NM2      0.110200
     13 H81C        1.8190   -1.1230   -0.0400 hx        1 NM2      0.098589
     14 H82C        2.2600    0.5290    0.6170 hx        1 NM2      0.098589
     15 H83C        1.8380    0.3320   -1.1530 hx        1 NM2      0.098589
     16 H91C       -1.1980    1.8950    0.2250 hx        1 NM2      0.098589
     17 H92C        0.2410    2.0450   -0.9350 hx        1 NM2      0.098589
     18 H93C        0.4460    2.2740    0.8850 hx        1 NM2      0.098589
     19 H101       -0.4480   -0.1200   -1.8120 hx        1 NM2      0.098589
     20 H102       -1.7580   -0.2670   -0.5360 hx        1 NM2      0.098589
     21 H103       -0.4900   -1.5840   -0.7080 hx        1 NM2      0.098589
     22 H31C        1.3390    1.0990    2.4390 hc        1 NM2      0.045200
     23 H32C        0.9940   -0.3850    3.4050 hc        1 NM2      0.045200
     24 H61C        0.0380    1.8040    4.3400 hc        1 NM2      0.055200
     25 H62C       -1.1850    0.4810    4.1070 hc        1 NM2      0.055200
@<TRIPOS>BOND
     1    1    2 1   
     2    1    7 1   
     3    1    8 1   
     4    1    9 1   
     5    2   13 1   
     6    2   14 1   
     7    2   15 1   
     8    3    4 1   
     9    4    5 1   
    10    4    6 1   
    11    6   10 1   
    12    6   24 1   
    13    6   25 1   
    14    7   10 1   
    15    7   11 1   
    16    7   12 1   
    17    8   16 1   
    18    8   17 1   
    19    8   18 1   
    20    9   19 1   
    21    9   20 1   
    22    9   21 1   
    23   10   22 1   
    24   10   23 1   
@<TRIPOS>SUBSTRUCTURE
     1 NM2         1 TEMP              0 ****  ****    0 ROOT
