@<TRIPOS>MOLECULE
NM2
   25    24     1     0     0
SMALL
bcc


@<TRIPOS>ATOM
      1 N1          0.1870    0.2890    0.1880 n4        1 NM2     -0.584800
      2 C8          1.6210    0.0800   -0.1490 c3        1 NM2      0.080767
      3 O4         -1.0000    3.1910    2.5990 o         1 NM2     -0.840300
      4 C5         -1.3450    1.9870    2.7250 c         1 NM2      0.894600
      5 O7         -2.3010    1.4610    2.0680 o         1 NM2     -0.840300
      6 C6         -0.4950    1.0590    3.6050 c3        1 NM2     -0.210400
      7 C2         -0.1170   -0.3190    1.5390 c3        1 NM2      0.098800
      8 C9         -0.1270    1.7490    0.1300 c3        1 NM2      0.080767
      9 C10        -0.6640   -0.4100   -0.8220 c3        1 NM2      0.080767
     10 C3          0.5350    0.3460    2.7490 c3        1 NM2     -0.069400
     11 H21C        0.2080   -1.3940    1.4730 hx        1 NM2      0.110200
     12 H22C       -1.2490   -0.2670    1.6660 hx        1 NM2      0.110200
     13 H81C        1.8570   -1.0160   -0.1280 hx        1 NM2      0.098589
     14 H82C        1.8300    0.4890   -1.1720 hx        1 NM2      0.098589
     15 H83C        2.2580    0.6160    0.6020 hx        1 NM2      0.098589
     16 H91C       -1.2380    1.9040    0.2920 hx        1 NM2      0.098589
     17 H92C        0.1900    2.1460   -0.8680 hx        1 NM2      0.098589
     18 H93C        0.4000    2.2970    0.9610 hx        1 NM2      0.098589
     19 H101       -1.7450   -0.2350   -0.5660 hx        1 NM2      0.098589
     20 H102       -0.4430   -1.5080   -0.8040 hx        1 NM2      0.098589
     21 H103       -0.4470    0.0050   -1.8400 hx        1 NM2      0.098589
     22 H31C        1.3330    1.0760    2.4540 hc        1 NM2      0.045200
     23 H32C        1.0340   -0.4590    3.3520 hc        1 NM2      0.045200
     24 H61C       -1.1630    0.3140    4.1040 hc        1 NM2      0.055200
     25 H62C        0.0250    1.6590    4.3920 hc        1 NM2      0.055200
@<TRIPOS>BOND
     1    1    2 1   
     2    1    7 1   
     3    1    8 1   
     4    1    9 1   
     5    2   13 1   
     6    2   14 1   
     7    2   15 1   
     8    3    4 1   
     9    4    5 1   
    10    4    6 1   
    11    6   10 1   
    12    6   24 1   
    13    6   25 1   
    14    7   10 1   
    15    7   11 1   
    16    7   12 1   
    17    8   16 1   
    18    8   17 1   
    19    8   18 1   
    20    9   19 1   
    21    9   20 1   
    22    9   21 1   
    23   10   22 1   
    24   10   23 1   
@<TRIPOS>SUBSTRUCTURE
     1 NM2         1 TEMP              0 ****  ****    0 ROOT
