@<TRIPOS>MOLECULE
NM2
   25    24     1     0     0
SMALL
bcc


@<TRIPOS>ATOM
      1 N1          0.0270    0.2020    0.1970 n4        1 NM2     -0.584800
      2 C8          1.3760    0.7360    0.5560 c3        1 NM2      0.080767
      3 O4          1.1280   -0.2140    3.3140 o         1 NM2     -0.840300
      4 C5          0.9300    1.0420    3.3820 c         1 NM2      0.894600
      5 O7          1.8500    1.8940    3.2720 o         1 NM2     -0.840300
      6 C6         -0.5250    1.5270    3.4640 c3        1 NM2     -0.210400
      7 C2         -0.9330    0.2080    1.3660 c3        1 NM2      0.098800
      8 C9         -0.5360    1.0020   -0.9240 c3        1 NM2      0.080767
      9 C10         0.1910   -1.2160   -0.2430 c3        1 NM2      0.080767
     10 C3         -1.1360    1.5440    2.0760 c3        1 NM2     -0.069400
     11 H21C       -0.5220   -0.5420    2.1210 hx        1 NM2      0.110200
     12 H22C       -1.9150   -0.1620    0.9600 hx        1 NM2      0.110200
     13 H81C        1.8480    0.0710    1.3440 hx        1 NM2      0.098589
     14 H82C        2.0070    0.7710   -0.3670 hx        1 NM2      0.098589
     15 H83C        1.2820    1.7610    1.0130 hx        1 NM2      0.098589
     16 H91C       -1.5400    0.5930   -1.2120 hx        1 NM2      0.098589
     17 H92C        0.1550    0.9540   -1.8050 hx        1 NM2      0.098589
     18 H93C       -0.6470    2.0690   -0.5960 hx        1 NM2      0.098589
     19 H101       -0.8070   -1.6400   -0.5260 hx        1 NM2      0.098589
     20 H102        0.6290   -1.8090    0.6060 hx        1 NM2      0.098589
     21 H103        0.8830   -1.2530   -1.1240 hx        1 NM2      0.098589
     22 H31C       -2.2410    1.7240    2.1520 hc        1 NM2      0.045200
     23 H32C       -0.7040    2.4020    1.4970 hc        1 NM2      0.045200
     24 H61C       -0.5540    2.5570    3.8970 hc        1 NM2      0.055200
     25 H62C       -1.1030    0.8400    4.1300 hc        1 NM2      0.055200
@<TRIPOS>BOND
     1    1    2 1   
     2    1    7 1   
     3    1    8 1   
     4    1    9 1   
     5    2   13 1   
     6    2   14 1   
     7    2   15 1   
     8    3    4 1   
     9    4    5 1   
    10    4    6 1   
    11    6   10 1   
    12    6   24 1   
    13    6   25 1   
    14    7   10 1   
    15    7   11 1   
    16    7   12 1   
    17    8   16 1   
    18    8   17 1   
    19    8   18 1   
    20    9   19 1   
    21    9   20 1   
    22    9   21 1   
    23   10   22 1   
    24   10   23 1   
@<TRIPOS>SUBSTRUCTURE
     1 NM2         1 TEMP              0 ****  ****    0 ROOT
