@<TRIPOS>MOLECULE
NM2
   25    24     1     0     0
SMALL
bcc


@<TRIPOS>ATOM
      1 N1          0.0350   -0.6130   -1.1490 n4        1 NM2     -0.584800
      2 C8          1.4840   -0.6130   -1.1490 c3        1 NM2      0.080767
      3 O4         -0.6870    2.9400    3.1440 o         1 NM2     -0.840300
      4 C5          0.0370    1.9060    3.1260 c         1 NM2      0.894600
      5 O7          1.1280    1.8880    3.7610 o         1 NM2     -0.840300
      6 C6         -0.4520    0.6450    2.4130 c3        1 NM2     -0.210400
      7 C2         -0.4540   -0.6130    0.2340 c3        1 NM2      0.098800
      8 C9         -0.4480    0.5690   -1.8320 c3        1 NM2      0.080767
      9 C10        -0.4470   -1.7970   -1.8310 c3        1 NM2      0.080767
     10 C3          0.0540    0.6510    0.9610 c3        1 NM2     -0.069400
     11 H21C       -0.1240   -1.4080    0.6950 hx        1 NM2      0.110200
     12 H22C       -1.4300   -0.6180    0.2330 hx        1 NM2      0.110200
     13 H81C        1.8100   -1.2150   -0.4520 hx        1 NM2      0.098589
     14 H82C        1.8100   -0.9150   -2.0180 hx        1 NM2      0.098589
     15 H83C        1.8100    0.2910   -0.9760 hx        1 NM2      0.098589
     16 H91C       -0.3920    0.4330   -2.7970 hx        1 NM2      0.098589
     17 H92C       -1.3770    0.7340   -1.5800 hx        1 NM2      0.098589
     18 H93C        0.0980    1.3380   -1.5800 hx        1 NM2      0.098589
     19 H101       -0.1210   -1.7980   -2.7520 hx        1 NM2      0.098589
     20 H102       -1.4240   -1.7970   -1.8320 hx        1 NM2      0.098589
     21 H103       -0.1230   -2.5940   -1.3700 hx        1 NM2      0.098589
     22 H31C       -0.2800    1.4460    0.5030 hc        1 NM2      0.045200
     23 H32C        1.0300    0.6590    0.9570 hc        1 NM2      0.045200
     24 H61C       -1.4280    0.6270    2.4170 hc        1 NM2      0.055200
     25 H62C       -0.1090   -0.1440    2.8740 hc        1 NM2      0.055200
@<TRIPOS>BOND
     1    1    2 1   
     2    1    7 1   
     3    1    8 1   
     4    1    9 1   
     5    2   13 1   
     6    2   14 1   
     7    2   15 1   
     8    3    4 1   
     9    4    5 1   
    10    4    6 1   
    11    6   10 1   
    12    6   24 1   
    13    6   25 1   
    14    7   10 1   
    15    7   11 1   
    16    7   12 1   
    17    8   16 1   
    18    8   17 1   
    19    8   18 1   
    20    9   19 1   
    21    9   20 1   
    22    9   21 1   
    23   10   22 1   
    24   10   23 1   
@<TRIPOS>SUBSTRUCTURE
     1 NM2         1 TEMP              0 ****  ****    0 ROOT
