@<TRIPOS>MOLECULE
NM3
   28    27     1     0     0
SMALL
bcc


@<TRIPOS>ATOM
      1 N1          0.2870    0.0940    0.2340 n4        1 NM3     -0.584800
      2 C8          1.7020   -0.1800   -0.1320 c3        1 NM3      0.076100
      3 O4         -2.2190    1.3080    1.8960 o         1 NM3     -0.841300
      4 C5         -1.3400    2.0090    2.4970 c         1 NM3      0.894600
      5 O7         -1.1280    3.2210    2.2330 o         1 NM3     -0.841300
      6 C6         -0.4210    1.2940    3.4980 c3        1 NM3     -0.210400
      7 C2          0.0540   -0.3540    1.6630 c3        1 NM3      0.099800
      8 C9         -0.0050    1.5420    0.0180 c3        1 NM3      0.076100
      9 C10        -0.6480   -0.7230   -0.6260 c3        1 NM3      0.112800
     10 C11        -0.5130   -0.5080   -2.1170 c3        1 NM3     -0.122100
     11 C3          0.6530    0.5130    2.7660 c3        1 NM3     -0.068400
     12 H81C        1.8950   -1.2840   -0.0960 hx        1 NM3      0.100200
     13 H82C        2.3740    0.3440    0.5970 hx        1 NM3      0.100200
     14 H83C        1.9100    0.2010   -1.1660 hx        1 NM3      0.100200
     15 H21C       -1.0760   -0.3860    1.8140 hx        1 NM3      0.109700
     16 H22C        0.4720   -1.3970    1.7280 hx        1 NM3      0.109700
     17 H91C        0.4960    2.1680    0.8060 hx        1 NM3      0.100200
     18 H92C        0.3560    1.8390   -0.9990 hx        1 NM3      0.100200
     19 H93C       -1.1200    1.7230    0.1140 hx        1 NM3      0.100200
     20 H101       -1.6980   -0.4490   -0.2970 hx        1 NM3      0.102200
     21 H102       -0.4640   -1.8070   -0.3840 hx        1 NM3      0.102200
     22 H111        0.4950   -0.8050   -2.4920 hc        1 NM3      0.061700
     23 H112       -1.2780   -1.1480   -2.6240 hc        1 NM3      0.061700
     24 H113       -0.7070    0.5550   -2.4010 hc        1 NM3      0.061700
     25 H61C        0.0610    2.0490    4.1680 hc        1 NM3      0.054700
     26 H62C       -1.0360    0.6020    4.1240 hc        1 NM3      0.054700
     27 H31C        1.4330    1.2180    2.3760 hc        1 NM3      0.044700
     28 H32C        1.1720   -0.1740    3.4870 hc        1 NM3      0.044700
@<TRIPOS>BOND
     1    1    2 1   
     2    1    7 1   
     3    1    8 1   
     4    1    9 1   
     5    2   12 1   
     6    2   13 1   
     7    2   14 1   
     8    3    4 1   
     9    4    5 1   
    10    4    6 1   
    11    6   11 1   
    12    6   25 1   
    13    6   26 1   
    14    7   11 1   
    15    7   15 1   
    16    7   16 1   
    17    8   17 1   
    18    8   18 1   
    19    8   19 1   
    20    9   10 1   
    21    9   20 1   
    22    9   21 1   
    23   10   22 1   
    24   10   23 1   
    25   10   24 1   
    26   11   27 1   
    27   11   28 1   
@<TRIPOS>SUBSTRUCTURE
     1 NM3         1 TEMP              0 ****  ****    0 ROOT
