@<TRIPOS>MOLECULE
NM3
   28    27     1     0     0
SMALL
bcc


@<TRIPOS>ATOM
      1 N1          0.3100    0.1220    0.2310 n4        1 NM3     -0.584800
      2 C8          1.7420   -0.0940   -0.1040 c3        1 NM3      0.076100
      3 O4         -2.2760    1.1980    1.8670 o         1 NM3     -0.841300
      4 C5         -1.4360    1.9010    2.5180 c         1 NM3      0.894600
      5 O7         -1.2530    3.1280    2.3040 o         1 NM3     -0.841300
      6 C6         -0.5220    1.1770    3.5160 c3        1 NM3     -0.210400
      7 C2          0.0520   -0.3860    1.6350 c3        1 NM3      0.099800
      8 C9         -0.0220    1.5680    0.0610 c3        1 NM3      0.076100
      9 C10        -0.5750   -0.6890   -0.6840 c3        1 NM3      0.112800
     10 C11        -0.4050   -0.4150   -2.1620 c3        1 NM3     -0.122100
     11 C3          0.5940    0.4560    2.7860 c3        1 NM3     -0.068400
     12 H81C        1.9690   -1.1920   -0.1030 hx        1 NM3      0.100200
     13 H82C        2.3780    0.4220    0.6620 hx        1 NM3      0.100200
     14 H83C        1.9660    0.3310   -1.1170 hx        1 NM3      0.100200
     15 H21C       -1.0800   -0.4570    1.7530 hx        1 NM3      0.109700
     16 H22C        0.5000   -1.4180    1.6740 hx        1 NM3      0.109700
     17 H91C        0.4380    2.1790    0.8850 hx        1 NM3      0.100200
     18 H92C        0.3560    1.9140   -0.9340 hx        1 NM3      0.100200
     19 H93C       -1.1440    1.7110    0.1320 hx        1 NM3      0.100200
     20 H101       -1.6410   -0.4600   -0.3760 hx        1 NM3      0.102200
     21 H102       -0.3630   -1.7760   -0.4770 hx        1 NM3      0.102200
     22 H111        0.6220   -0.6670   -2.5190 hc        1 NM3      0.061700
     23 H112       -1.1360   -1.0580   -2.7140 hc        1 NM3      0.061700
     24 H113       -0.6250    0.6520   -2.4120 hc        1 NM3      0.061700
     25 H61C       -0.0830    1.9190    4.2280 hc        1 NM3      0.054700
     26 H62C       -1.1330    0.4430    4.0980 hc        1 NM3      0.054700
     27 H31C        1.3610    1.1990    2.4450 hc        1 NM3      0.044700
     28 H32C        1.1150   -0.2420    3.4950 hc        1 NM3      0.044700
@<TRIPOS>BOND
     1    1    2 1   
     2    1    7 1   
     3    1    8 1   
     4    1    9 1   
     5    2   12 1   
     6    2   13 1   
     7    2   14 1   
     8    3    4 1   
     9    4    5 1   
    10    4    6 1   
    11    6   11 1   
    12    6   25 1   
    13    6   26 1   
    14    7   11 1   
    15    7   15 1   
    16    7   16 1   
    17    8   17 1   
    18    8   18 1   
    19    8   19 1   
    20    9   10 1   
    21    9   20 1   
    22    9   21 1   
    23   10   22 1   
    24   10   23 1   
    25   10   24 1   
    26   11   27 1   
    27   11   28 1   
@<TRIPOS>SUBSTRUCTURE
     1 NM3         1 TEMP              0 ****  ****    0 ROOT
