@<TRIPOS>MOLECULE
NM3
   28    27     1     0     0
SMALL
bcc


@<TRIPOS>ATOM
      1 N1         -0.0520    0.0380    0.2670 n4        1 NM3     -0.586800
      2 C8          1.3550   -0.0980    0.7450 c3        1 NM3      0.058100
      3 O4          0.2300    3.4230    1.8810 o         1 NM3     -0.825300
      4 C5          0.6820    2.4840    2.5990 c         1 NM3      0.892600
      5 O7          1.9120    2.2440    2.7570 o         1 NM3     -0.825300
      6 C6         -0.3240    1.5140    3.2420 c3        1 NM3     -0.223400
      7 C2         -1.0210   -0.1390    1.4170 c3        1 NM3      0.132800
      8 C9         -0.2350    1.3580   -0.4000 c3        1 NM3      0.058100
      9 C10        -0.3440   -1.0650   -0.7240 c3        1 NM3      0.110800
     10 C11         0.6800   -1.2470   -1.8250 c3        1 NM3     -0.120100
     11 C3         -1.3810    1.0800    2.2570 c3        1 NM3     -0.084400
     12 H81C        1.5470    0.6040    1.6160 hx        1 NM3      0.111700
     13 H82C        2.0550    0.1750   -0.0870 hx        1 NM3      0.111700
     14 H83C        1.5320   -1.1560    1.0660 hx        1 NM3      0.111700
     15 H21C       -1.9800   -0.5290    0.9670 hx        1 NM3      0.070200
     16 H22C       -0.5830   -0.9330    2.0850 hx        1 NM3      0.070200
     17 H91C       -1.3150    1.4890   -0.6640 hx        1 NM3      0.111700
     18 H92C        0.0900    2.1960    0.2990 hx        1 NM3      0.111700
     19 H93C        0.3940    1.3950   -1.3260 hx        1 NM3      0.111700
     20 H101       -0.4210   -2.0260   -0.1390 hx        1 NM3      0.080700
     21 H102       -1.3490   -0.8420   -1.1830 hx        1 NM3      0.080700
     22 H111        0.8380   -0.3110   -2.4130 hc        1 NM3      0.065367
     23 H112        1.6640   -1.5850   -1.4190 hc        1 NM3      0.065367
     24 H113        0.2980   -2.0360   -2.5200 hc        1 NM3      0.065367
     25 H61C        0.2170    0.6340    3.6720 hc        1 NM3      0.051700
     26 H62C       -0.8170    2.0610    4.0860 hc        1 NM3      0.051700
     27 H31C       -2.3080    0.7740    2.8170 hc        1 NM3      0.070700
     28 H32C       -1.6550    1.9600    1.6130 hc        1 NM3      0.070700
@<TRIPOS>BOND
     1    1    2 1   
     2    1    7 1   
     3    1    8 1   
     4    1    9 1   
     5    2   12 1   
     6    2   13 1   
     7    2   14 1   
     8    3    4 1   
     9    4    5 1   
    10    4    6 1   
    11    6   11 1   
    12    6   25 1   
    13    6   26 1   
    14    7   11 1   
    15    7   15 1   
    16    7   16 1   
    17    8   17 1   
    18    8   18 1   
    19    8   19 1   
    20    9   10 1   
    21    9   20 1   
    22    9   21 1   
    23   10   22 1   
    24   10   23 1   
    25   10   24 1   
    26   11   27 1   
    27   11   28 1   
@<TRIPOS>SUBSTRUCTURE
     1 NM3         1 TEMP              0 ****  ****    0 ROOT
