@<TRIPOS>MOLECULE
NM7
   29    25     1     0     0
SMALL
bcc


@<TRIPOS>ATOM
      1 NAA        -5.0190    1.0500    0.6250 n         1 NM7     -0.653000
      2 NAB        -0.2120    2.2480   -3.6680 n         1 NM7     -0.666000
      3 OAC        -3.0050    0.9790    1.6980 o         1 NM7     -0.641100
      4 OAD        -0.9470    3.5710   -1.9590 o         1 NM7     -0.666100
      5 FAE         4.4150   -3.4350    2.7170 f         1 NM7     -0.108100
      6 CAF         3.1630   -1.4380    2.6060 c1        1 NM7     -0.075000
      7 CAG         2.8780   -3.1520    0.9480 c1        1 NM7     -0.104500
      8 CAH         2.2190   -0.6550    1.9590 c1        1 NM7     -0.075000
      9 CAI         1.9340   -2.3690    0.3010 c1        1 NM7     -0.040500
     10 CAJ         0.9800    0.6900   -0.8430 cg        1 NM7     -0.124300
     11 NAK        -2.8880    0.8190   -0.5760 n         1 NM7     -0.451100
     12 SAL        -0.8560   -0.3420    0.3650 ss        1 NM7      0.230300
     13 CAM        -3.6040    0.9420    0.6420 c         1 NM7      0.762100
     14 CAN        -0.5330    2.4830   -2.3060 c         1 NM7      0.709300
     15 CAO         3.4920   -2.6860    2.1010 c1        1 NM7      0.089100
     16 CAP         1.6050   -1.1210    0.8060 c1        1 NM7     -0.007000
     17 CAQ         0.6800   -0.3280    0.1460 c1        1 NM7     -0.181900
     18 CAR        -0.3880    1.3700   -1.2930 ce        1 NM7     -0.228900
     19 CAS        -1.4720    0.7410   -0.5610 c2        1 NM7      0.096200
     20 HNAA       -5.4610    1.1310   -0.1710 hn        1 NM7      0.322500
     21 HNAB       -5.4860    1.0540    1.4100 hn        1 NM7      0.322500
     22 HNAC       -0.8720    2.0320   -4.2620 hn        1 NM7      0.313500
     23 HNAD        0.6520    2.3310   -3.9550 hn        1 NM7      0.313500
     24 HAF         3.5950   -1.1100    3.4170 ha        1 NM7      0.089000
     25 HAG         3.1100   -4.0310    0.5930 ha        1 NM7      0.091500
     26 HAH         1.9880    0.2240    2.3140 ha        1 NM7      0.089000
     27 HAI         1.5020   -2.6970   -0.5100 ha        1 NM7      0.080500
     28 HAJ         1.8690    0.9200   -1.1760 DU        1 NM7      0.147000
     29 HNAK       -3.3390    0.7780   -1.3680 hn        1 NM7      0.368500
@<TRIPOS>BOND
     1    1   13 1   
     2    1   20 1   
     3    1   21 1   
     4    2   14 1   
     5    2   22 1   
     6    2   23 1   
     7    3   13 2   
     8    4   14 2   
     9    5   15 1   
    10    6    8 3   
    11    6   24 1   
    12    7   15 3   
    13    7   25 1   
    14    8   26 1   
    15    9   16 3   
    16    9   27 1   
    17   10   17 3   
    18   10   18 1   
    19   11   13 1   
    20   11   19 1   
    21   11   29 1   
    22   12   17 1   
    23   12   19 1   
    24   14   18 1   
    25   18   19 2   
@<TRIPOS>SUBSTRUCTURE
     1 NM7         1 TEMP              0 ****  ****    0 ROOT
