@<TRIPOS>MOLECULE
NM7
   29    30     1     0     0
SMALL
bcc


@<TRIPOS>ATOM
      1 NAA         0.5240    0.4650    0.5300 n         1 NM7     -0.428000
      2 NAB         4.2630    0.3250   -4.7750 n         1 NM7     -0.411000
      3 OAC         2.4600   -0.3000    1.4780 o         1 NM7     -0.360000
      4 OAD         2.3950    0.6820   -3.5450 o         1 NM7     -0.470000
      5 CAF         7.9990    0.1410    1.6500 c3        1 NM7     -0.192000
      6 CAG         9.4560    0.4500   -0.3710 c2        1 NM7     -0.237000
      7 CAH         7.0390   -0.5150    0.7840 c1        1 NM7     -0.105000
      8 CAI         8.4620   -0.1870   -1.1820 c2        1 NM7      0.048000
      9 CAJ         5.6190   -0.6720   -2.5120 c1        1 NM7     -0.176000
     10 NAK         2.4770    0.0890   -0.8290 n         1 NM7     -0.270000
     11 SAL         4.8720   -0.8430    0.0650 ss        1 NM7      0.433000
     12 CAM         1.8450    0.0590    0.4490 c2        1 NM7      0.389000
     13 CAO         9.2450    0.6240    0.9720 c2        1 NM7      0.103000
     14 CAP         7.3050   -0.6330   -0.6070 c2        1 NM7     -0.177000
     15 CAQ         6.1340   -1.2320   -1.2800 c3        1 NM7     -0.155000
     16 CAR         4.3190   -0.2400   -2.4140 c2        1 NM7     -0.331000
     17 CAS         3.7480   -0.3170   -1.0700 c2        1 NM7     -0.046000
     18 HNAA       -0.0220    0.6620   -0.2690 hn        1 NM7      0.242500
     19 HNAB        0.0820    0.3740    1.4110 hn        1 NM7      0.242500
     20 HNAC        5.2000    0.0060   -4.8240 hn        1 NM7      0.234000
     21 HNAD        3.8060    0.6590   -5.5840 hn        1 NM7      0.234000
     22 HAF         8.2770   -0.5880    2.4710 hc        1 NM7      0.181500
     23 HAG         8.6490   -0.2910   -2.2650 ha        1 NM7      0.165000
     24 HAH         7.4880    1.0060    2.1700 hc        1 NM7      0.181500
     25 HAI        10.3800    0.8070   -0.8500 ha        1 NM7      0.159000
     26 HAJ         6.2220   -2.3460   -1.3690 h1        1 NM7      0.162000
     27 HNAK        1.9550    0.4530   -1.6130 hn        1 NM7      0.285000
     28 CAN         3.5910    0.2810   -3.5830 c2        1 NM7      0.390000
     29 FAE        10.1520    1.2480    1.7500 f         1 NM7     -0.092000
@<TRIPOS>BOND
     1    1   12 1   
     2    1   18 1   
     3    1   19 1   
     4    2   20 1   
     5    2   21 1   
     6    2   28 1   
     7    3   12 1   
     8    4   28 1   
     9    5    7 1   
    10    5   13 1   
    11    5   22 1   
    12    5   24 1   
    13    6    8 1   
    14    6   13 1   
    15    6   25 1   
    16    7   14 1   
    17    8   14 1   
    18    8   23 1   
    19    9   15 1   
    20    9   16 1   
    21   10   12 1   
    22   10   17 1   
    23   10   27 1   
    24   11   15 1   
    25   11   17 1   
    26   13   29 1   
    27   14   15 1   
    28   15   26 1   
    29   16   17 1   
    30   16   28 1   
@<TRIPOS>SUBSTRUCTURE
     1 NM7         1 TEMP              0 ****  ****    0 ROOT
