@<TRIPOS>MOLECULE
NM7
   31    32     1     0     0
SMALL
bcc


@<TRIPOS>ATOM
      1 NAA         0.3540   -0.0640    0.6080 n4        1 NM7     -0.130000
      2 NAB         4.0480    0.0650   -4.9960 n4        1 NM7     -0.132000
      3 OAC         2.5000   -0.0650    1.4810 o         1 NM7     -0.205000
      4 OAD         2.1350    0.0280   -3.7180 o         1 NM7     -0.280000
      5 CAF         8.0660   -0.0310    1.8540 c3        1 NM7     -0.193000
      6 CAG         9.7640    0.0160   -0.0100 c2        1 NM7     -0.256000
      7 CAH         7.0640   -0.0190    0.8180 c1        1 NM7     -0.165000
      8 CAI         8.7270    0.0260   -0.9740 c2        1 NM7      0.119000
      9 CAJ         5.6500    0.0310   -2.5190 c2        1 NM7     -0.100000
     10 NAK         2.3510   -0.0220   -0.8690 n         1 NM7     -0.245000
     11 SAL         4.9780   -0.0190   -0.0190 ss        1 NM7      0.902000
     12 CAM         1.8730   -0.0500    0.4200 c2        1 NM7      0.334000
     13 CAO         9.4740   -0.0110    1.3430 c2        1 NM7      0.199000
     14 CAP         7.4120    0.0080   -0.5460 c2        1 NM7     -0.190000
     15 CAQ         6.1540    0.0120   -1.2560 c2        1 NM7     -0.285000
     16 CAR         4.2080    0.0200   -2.4900 c2        1 NM7     -0.283000
     17 CAS         3.7190   -0.0080   -1.1450 c2        1 NM7     -0.258000
     18 HNAA       -0.0660   -0.8960    0.1800 hn        1 NM7      0.280000
     19 HNAB        0.1760   -0.0850    1.6260 hn        1 NM7      0.280000
     20 HNAC        4.6410   -0.7630   -5.1050 hn        1 NM7      0.268667
     21 HNAD        4.6290    0.9040   -5.0750 hn        1 NM7      0.268667
     22 HAF         7.9130   -0.9430    2.5150 hc        1 NM7      0.216000
     23 HAG         8.9960    0.0470   -2.0440 ha        1 NM7      0.165000
     24 HAH         7.9000    0.8540    2.5480 hc        1 NM7      0.216000
     25 HAI        10.8150    0.0290   -0.3490 ha        1 NM7      0.194000
     26 HAJ         6.2500    0.0520   -3.4320 ha        1 NM7      0.154000
     27 HNAK        1.7150   -0.0130   -1.6470 hn        1 NM7      0.281000
     28 HAA3       -0.0770    0.7780    0.2120 hn        1 NM7      0.280000
     29 HAB3        3.3350    0.0730   -5.7390 hn        1 NM7      0.268667
     30 CAN         3.3670    0.0350   -3.6400 c2        1 NM7      0.337000
     31 FAE        10.4460   -0.0210    2.2600 f         1 NM7     -0.038000
@<TRIPOS>BOND
     1    1   12 1   
     2    1   18 1   
     3    1   19 1   
     4    1   28 1   
     5    2   20 1   
     6    2   21 1   
     7    2   29 1   
     8    2   30 1   
     9    3   12 1   
    10    4   30 1   
    11    5    7 1   
    12    5   13 1   
    13    5   22 1   
    14    5   24 1   
    15    6    8 1   
    16    6   13 1   
    17    6   25 1   
    18    7   14 1   
    19    8   14 1   
    20    8   23 1   
    21    9   15 1   
    22    9   16 1   
    23    9   26 1   
    24   10   12 1   
    25   10   17 1   
    26   10   27 1   
    27   11   15 1   
    28   11   17 1   
    29   13   31 1   
    30   14   15 1   
    31   16   17 1   
    32   16   30 1   
@<TRIPOS>SUBSTRUCTURE
     1 NM7         1 TEMP              0 ****  ****    0 ROOT
