@<TRIPOS>MOLECULE
NM7
   31    31     1     0     0
SMALL
bcc


@<TRIPOS>ATOM
      1 NAA        -0.2900    0.0430    0.1120 n9        1 NM7     -0.459000
      2 NAB         3.9540   -0.1700   -4.8230 nz        1 NM7     -0.132000
      3 OAC         1.9090    0.1300    1.7990 o         1 NM7      0.069000
      4 OAD         2.1340   -0.1100   -3.4150 o         1 NM7     -0.250000
      5 CAF         8.3220    0.1170    1.8110 c3        1 NM7     -0.192000
      6 CAG         9.9600    0.0340   -0.1110 c2        1 NM7     -0.256000
      7 CAH         7.2930    0.0740    0.8050 c1        1 NM7     -0.171000
      8 CAI         8.8960   -0.0060   -1.0390 c2        1 NM7      0.131000
      9 CAJ         5.7180   -0.0670   -2.4460 c2        1 NM7     -0.102000
     10 NAK         2.5190    0.0140   -0.5980 nu        1 NM7     -0.155000
     11 SAL         5.2070    0.0440    0.0960 ss        1 NM7      0.836000
     12 CAM         2.1340    0.0740    0.6520 c1        1 NM7      0.492000
     13 CAO         9.7130    0.0930    1.2530 c2        1 NM7      0.215000
     14 CAP         7.5930    0.0150   -0.5660 c2        1 NM7     -0.194000
     15 CAQ         6.3030   -0.0130   -1.2180 c2        1 NM7     -0.245000
     16 CAR         4.2820   -0.0610   -2.3280 c2        1 NM7     -0.249000
     17 CAS         3.8800   -0.0020   -0.9640 c2        1 NM7     -0.294000
     18 HNAA       -0.6290    0.8300   -0.4070 hn        1 NM7      0.174000
     19 HNAB       -0.6610    0.0910    1.0420 hn        1 NM7      0.174000
     20 HNAC        4.5340   -1.0100   -4.9220 hn        1 NM7      0.272667
     21 HNAD        4.5340    0.6580   -4.9940 hn        1 NM7      0.272667
     22 HAF         8.1880    1.0450    2.4560 hc        1 NM7      0.220000
     23 HAG         9.1280   -0.0530   -2.1180 ha        1 NM7      0.171000
     24 HAH         8.1870   -0.7500    2.5340 hc        1 NM7      0.220000
     25 HAI        11.0010    0.0170   -0.4810 ha        1 NM7      0.200000
     26 HAJ         6.2600   -0.1080   -3.3950 ha        1 NM7      0.161000
     27 HNAK        1.8000   -0.0210   -1.3200 hn        1 NM7      0.341000
     28 HAA3       -0.6260   -0.7960   -0.3210 hn        1 NM7      0.174000
     29 HAB3        3.1930   -0.2000   -5.5170 hn        1 NM7      0.272667
     30 CAN         3.3660   -0.1100   -3.4300 c2        1 NM7      0.334000
     31 FAE        10.7140    0.1310    2.1350 f         1 NM7     -0.029000
@<TRIPOS>BOND
     1    1   18 1   
     2    1   19 1   
     3    1   28 1   
     4    2   20 1   
     5    2   21 1   
     6    2   29 1   
     7    2   30 1   
     8    3   12 1   
     9    4   30 1   
    10    5    7 1   
    11    5   13 1   
    12    5   22 1   
    13    5   24 1   
    14    6    8 1   
    15    6   13 1   
    16    6   25 1   
    17    7   14 1   
    18    8   14 1   
    19    8   23 1   
    20    9   15 1   
    21    9   16 1   
    22    9   26 1   
    23   10   12 1   
    24   10   17 1   
    25   10   27 1   
    26   11   15 1   
    27   11   17 1   
    28   13   31 1   
    29   14   15 1   
    30   16   17 1   
    31   16   30 1   
@<TRIPOS>SUBSTRUCTURE
     1 NM7         1 TEMP              0 ****  ****    0 ROOT
