@<TRIPOS>MOLECULE
NM7
   29    30     1     0     0
SMALL
bcc


@<TRIPOS>ATOM
      1 NAA         4.7820   -2.2410    0.1310 n         1 NM7     -0.653000
      2 NAB         1.9550    3.7090   -0.4040 n         1 NM7     -0.666000
      3 OAC         2.5290   -2.6960    0.1780 o         1 NM7     -0.641100
      4 OAD         3.6630    2.2880   -0.0100 o         1 NM7     -0.666100
      5 CAF        -3.9470   -1.3710   -0.4390 ca        1 NM7     -0.159500
      6 CAG        -4.2730    0.8600    0.4900 ca        1 NM7     -0.159500
      7 CAH        -2.5740   -1.1610   -0.4350 ca        1 NM7     -0.103000
      8 CAI        -2.8970    1.0520    0.4890 ca        1 NM7     -0.103000
      9 CAJ         0.0480    1.4670   -0.0730 cc        1 NM7     -0.091000
     10 NAK         3.1460   -0.4680    0.1680 n         1 NM7     -0.441100
     11 SAL         0.4830   -1.0260    0.1460 ss        1 NM7      0.156200
     12 CAM         3.4540   -1.8430    0.1670 c         1 NM7      0.762100
     13 CAO        -4.8050   -0.3560    0.0240 ca        1 NM7      0.121900
     14 CAP        -2.0300    0.0500    0.0260 ca        1 NM7     -0.007000
     15 CAQ        -0.6010    0.2510    0.0240 cd        1 NM7     -0.137100
     16 CAR         1.4670    1.3320   -0.0490 cc        1 NM7     -0.263600
     17 CAS         1.8440   -0.0210    0.0810 cd        1 NM7      0.115500
     18 HNAA        5.5160   -1.6020    0.3040 hn        1 NM7      0.322500
     19 HNAB        4.9510   -3.2070    0.2750 hn        1 NM7      0.322500
     20 HNAC        2.6030    4.4530   -0.4840 hn        1 NM7      0.313500
     21 HNAD        1.0000    3.8860   -0.5660 hn        1 NM7      0.313500
     22 HAF        -4.3700   -2.3190   -0.8010 ha        1 NM7      0.150000
     23 HAG        -4.9500    1.6470    0.8540 ha        1 NM7      0.150000
     24 HAH        -1.9030   -1.9550   -0.8020 ha        1 NM7      0.140000
     25 HAI        -2.4810    2.0010    0.8630 ha        1 NM7      0.140000
     26 HAJ        -0.4720    2.4250   -0.1620 ha        1 NM7      0.147000
     27 HNAK        3.8680    0.2270    0.1050 hn        1 NM7      0.368500
     28 CAN         2.4230    2.4430   -0.1490 c         1 NM7      0.710700
     29 FAE        -6.1460   -0.5510    0.0220 f         1 NM7     -0.140900
@<TRIPOS>BOND
     1    1   12 1   
     2    1   18 1   
     3    1   19 1   
     4    2   20 1   
     5    2   21 1   
     6    2   28 1   
     7    3   12 2   
     8    4   28 2   
     9    5    7 ar  
    10    5   13 ar  
    11    5   22 1   
    12    6    8 ar  
    13    6   13 ar  
    14    6   23 1   
    15    7   14 ar  
    16    7   24 1   
    17    8   14 ar  
    18    8   25 1   
    19    9   15 2   
    20    9   16 1   
    21    9   26 1   
    22   10   12 1   
    23   10   17 1   
    24   10   27 1   
    25   11   15 1   
    26   11   17 1   
    27   13   29 1   
    28   14   15 1   
    29   16   17 2   
    30   16   28 1   
@<TRIPOS>SUBSTRUCTURE
     1 NM7         1 TEMP              0 ****  ****    0 ROOT
