@<TRIPOS>MOLECULE
NM8
   74    67     1     0     0
SMALL
bcc


@<TRIPOS>ATOM
      1 CAA        -0.6620    1.0340    3.0710 c1        1 NM8     -0.129000
      2 CAB         0.3030    2.0720    3.0750 c2        1 NM8     -0.008000
      3 CAC         1.1680    2.2030    4.1420 c1        1 NM8     -0.043000
      4 CAD         1.0890    1.2980    5.2340 c1        1 NM8     -0.095000
      5 CAE         0.1400    0.2790    5.2270 c1        1 NM8     -0.015000
      6 CAF        -0.7370    0.1450    4.1450 c1        1 NM8     -0.094000
      7 CAG         0.3640   -0.9360    5.9390 c1        1 NM8      0.023500
      8 CAH        -0.1250   -1.2360    7.1870 c1        1 NM8     -0.206500
      9 CAI         0.1570   -2.5570    7.4470 c1        1 NM8     -0.206500
     10 CAJ         0.8190   -3.0730    6.3620 c1        1 NM8      0.023500
     11 OAK         0.9470   -2.0720    5.4290 os        1 NM8     -0.101000
     12 CAL         1.2110   -4.5330    6.1660 c1        1 NM8     -0.202000
     13 CAM         1.8240   -5.2150    7.1790 c1        1 NM8     -0.296000
     14 CAN         2.5550   -4.4900    9.0080 c1        1 NM8      0.123000
     15 NAO         2.9660   -4.2710    8.8370 n         1 NM8     -0.270000
     16 CAP         3.3440   -5.2960    7.7160 c2        1 NM8      0.289000
     17 SAQ         1.9960   -5.6120    7.1550 ss        1 NM8      0.396000
     18 OAR         2.8560   -5.2840    9.9040 o         1 NM8     -0.277000
     19 OAS         4.3100   -6.0410    7.7230 o         1 NM8     -0.149000
     20 CAT         0.3380    3.0140    2.0160 c2        1 NM8     -0.122000
     21 CAU         1.2420    4.0650    2.0530 c1        1 NM8     -0.073000
     22 CAV         2.1180    4.1980    3.1360 c1        1 NM8     -0.136000
     23 CAW         2.0850    3.2730    4.1770 c2        1 NM8     -0.092000
     24 CAX        -0.5320    2.9670    0.7410 c2        1 NM8      0.355000
     25 OAY        -1.7250    3.1270    0.8190 o         1 NM8     -0.323000
     26 NAZ         0.0710    2.6720   -0.5290 n         1 NM8     -0.327000
     27 HAA        -1.2700    0.9400    2.3210 DU        1 NM8      0.160667
     28 HAD         1.7040    1.3910    5.9960 ha        1 NM8      0.143000
     29 HAF        -1.4040   -0.5710    4.1400 ha        1 NM8      0.153000
     30 HAH        -0.5860   -0.6260    7.7780 DU        1 NM8      0.160667
     31 HAI        -0.0720   -3.0380    8.2530 DU        1 NM8      0.160667
     32 HAL         0.9220   -5.0090    5.3670 ha        1 NM8      0.182000
     33 HNAO        3.5660   -3.8400    9.3760 hn        1 NM8      0.277000
     34 HAU         1.2660    4.7130    1.3250 ha        1 NM8      0.149000
     35 HAV         2.7700    4.9570    3.1610 ha        1 NM8      0.144000
     36 HAW         2.6880    3.3650    4.9200 ha        1 NM8      0.141000
     37 HNAZ        0.9530    2.5360   -0.5830 hn        1 NM8      0.239000
     38 C20        -1.1000    1.2980   -2.2040 c1        1 NM8     -0.153000
     39 C21        -0.7480    2.5660   -1.7110 c1        1 NM8      0.077000
     40 C22        -1.3270    3.7070   -2.2540 c1        1 NM8     -0.116000
     41 C23        -2.2550    3.5950   -3.2850 c1        1 NM8     -0.133000
     42 C24        -2.6090    2.3210   -3.7800 c1        1 NM8     -0.108000
     43 C25        -2.0340    1.1830   -3.2410 c1        1 NM8     -0.087000
     44 C26        -2.9920    4.8190   -3.7710 c3        1 NM8      0.466000
     45 F1         -3.7060    5.3350   -2.7680 f         1 NM8     -0.164333
     46 F2         -2.1110    5.7300   -4.2060 f         1 NM8     -0.164333
     47 F3         -3.8000    4.4820   -4.7580 f         1 NM8     -0.164333
     48 C27        -2.6330   -0.2220   -3.5890 c3        1 NM8     -0.027000
     49 N3         -1.8500   -0.8410   -4.7000 n3        1 NM8     -0.261000
     50 C28        -0.3450   -0.8620   -4.3240 c3        1 NM8     -0.085000
     51 C29        -1.7040    0.1840   -5.8720 c3        1 NM8     -0.085000
     52 C30        -0.8080   -0.3260   -6.9950 c3        1 NM8     -0.085500
     53 N4         -0.0530   -1.2790   -6.5900 n3        1 NM8     -0.259000
     54 C31         0.5440   -1.3650   -5.4630 c3        1 NM8     -0.085500
     55 C32         0.8580   -1.6530   -7.6450 c3        1 NM8     -0.066000
     56 C33         0.6390   -3.1720   -8.0200 c3        1 NM8     -0.211000
     57 H12        -0.6890    0.4870   -1.8170 ha        1 NM8      0.138000
     58 H13        -1.0770    4.6080   -1.9040 ha        1 NM8      0.191000
     59 H14        -3.2700    2.2420   -4.5150 ha        1 NM8      0.153000
     60 H15        -3.5650   -0.1200   -3.8650 h1        1 NM8      0.100500
     61 H16        -2.5890   -0.7990   -2.7980 h1        1 NM8      0.100500
     62 H17        -0.2220   -1.4460   -3.5460 h1        1 NM8      0.086000
     63 H18        -0.0730    0.0270   -4.0890 h1        1 NM8      0.086000
     64 H19        -1.3290    1.0090   -5.5220 h1        1 NM8      0.086000
     65 H20        -2.5990    0.3730   -6.2420 h1        1 NM8      0.086000
     66 H21        -1.3830   -0.6590   -7.7530 h1        1 NM8      0.089250
     67 H22        -0.2290    0.4360   -7.3280 h1        1 NM8      0.089250
     68 H23         0.7820   -2.3040   -5.2940 h1        1 NM8      0.089250
     69 H24         1.3660   -0.8240   -5.4920 h1        1 NM8      0.089250
     70 H25         0.6900   -1.0930   -8.4370 h1        1 NM8      0.069500
     71 H26         1.7880   -1.5210   -7.3410 h1        1 NM8      0.069500
     72 H27        -0.3330   -3.3530   -8.1230 hc        1 NM8      0.078000
     73 H28         1.0050   -3.7410   -7.3070 hc        1 NM8      0.078000
     74 H29         1.0990   -3.3700   -8.8650 hc        1 NM8      0.078000
@<TRIPOS>BOND
     1    1    2 1   
     2    1    6 1   
     3    2    3 1   
     4    2   20 1   
     5    3   23 1   
     6    4    5 1   
     7    4   28 1   
     8    6   29 1   
     9    7    8 1   
    10    7   11 1   
    11    8    9 1   
    12    9   10 1   
    13   10   11 1   
    14   12   13 1   
    15   12   32 1   
    16   13   17 1   
    17   14   15 1   
    18   14   18 1   
    19   15   16 1   
    20   15   33 1   
    21   16   17 1   
    22   16   19 1   
    23   20   21 1   
    24   20   24 1   
    25   21   34 1   
    26   22   23 1   
    27   22   35 1   
    28   23   36 1   
    29   24   25 1   
    30   24   26 1   
    31   26   37 1   
    32   26   39 1   
    33   38   43 1   
    34   38   57 1   
    35   39   40 1   
    36   40   58 1   
    37   41   42 1   
    38   41   44 1   
    39   42   59 1   
    40   43   48 1   
    41   44   45 1   
    42   44   46 1   
    43   44   47 1   
    44   48   49 1   
    45   48   60 1   
    46   48   61 1   
    47   49   50 1   
    48   49   51 1   
    49   50   54 1   
    50   50   62 1   
    51   50   63 1   
    52   51   52 1   
    53   51   64 1   
    54   51   65 1   
    55   52   53 1   
    56   52   66 1   
    57   52   67 1   
    58   53   54 1   
    59   53   55 1   
    60   54   68 1   
    61   54   69 1   
    62   55   56 1   
    63   55   70 1   
    64   55   71 1   
    65   56   72 1   
    66   56   73 1   
    67   56   74 1   
@<TRIPOS>SUBSTRUCTURE
     1 NM8         1 TEMP              0 ****  ****    0 ROOT
