@<TRIPOS>MOLECULE
NM8
   74    79     1     0     0
SMALL
bcc


@<TRIPOS>ATOM
      1 CAA        -0.7580    0.3360   -0.5710 ca        1 NM8     -0.115000
      2 CAB        -1.0060   -1.0330   -0.8700 ca        1 NM8      0.007000
      3 CAC        -2.3420   -1.5110   -0.8250 ca        1 NM8     -0.048000
      4 CAD        -3.3910   -0.6230   -0.4680 ca        1 NM8     -0.078000
      5 CAE        -3.1250    0.7010   -0.1730 ca        1 NM8     -0.137500
      6 CAF        -1.7850    1.1790   -0.2320 ca        1 NM8     -0.101000
      7 CAG        -4.1770    1.6170    0.1920 cc        1 NM8      0.344200
      8 CAH        -4.1910    2.9750    0.4970 cd        1 NM8     -0.258300
      9 CAI        -5.5530    3.3250    0.7810 cd        1 NM8     -0.192300
     10 CAJ        -6.3100    2.1660    0.6360 cc        1 NM8      0.250500
     11 OAK        -5.4740    1.0980    0.2710 os        1 NM8     -0.349800
     12 CAL        -7.7100    1.9450    0.7980 ce        1 NM8     -0.084800
     13 CAM        -8.3950    0.7950    0.6470 cd        1 NM8     -0.137600
     14 CAN        -9.8730    0.7810    0.8670 c         1 NM8      0.706700
     15 NAO       -10.4040   -0.5040    0.6630 n         1 NM8     -0.612500
     16 CAP        -9.4670   -1.4820    0.3060 c         1 NM8      0.704100
     17 SAQ        -7.8470   -0.7650    0.2210 ss        1 NM8     -0.077200
     18 OAR       -10.5740    1.7490    1.1860 o         1 NM8     -0.576500
     19 OAS        -9.7650   -2.6610    0.0910 o         1 NM8     -0.553500
     20 CAT         0.0330   -1.9460   -1.2150 ca        1 NM8     -0.136600
     21 CAU        -0.2570   -3.2590   -1.5160 ca        1 NM8     -0.089000
     22 CAV        -1.5930   -3.7230   -1.4840 ca        1 NM8     -0.139000
     23 CAW        -2.6130   -2.8710   -1.1410 ca        1 NM8     -0.085000
     24 CAX         1.4500   -1.4660   -1.2750 c         1 NM8      0.682700
     25 OAY         1.8050   -0.5340   -2.0150 o         1 NM8     -0.571100
     26 NAZ         2.3270   -2.1480   -0.4390 n         1 NM8     -0.472100
     27 HAA         0.2760    0.7140   -0.6360 ha        1 NM8      0.160000
     28 HAD        -4.4240   -1.0060   -0.4320 ha        1 NM8      0.154000
     29 HAF        -1.5860    2.2380   -0.0040 ha        1 NM8      0.142000
     30 HAH        -3.3410    3.6510    0.5190 ha        1 NM8      0.170000
     31 HAI        -5.9170    4.3130    1.0560 ha        1 NM8      0.170000
     32 HAL        -8.2760    2.8580    1.0850 ha        1 NM8      0.173000
     33 HNAO      -11.3720   -0.6990    0.7650 hn        1 NM8      0.356500
     34 HAU         0.5420   -3.9630   -1.7980 ha        1 NM8      0.142000
     35 HAV        -1.7980   -4.7740   -1.7370 ha        1 NM8      0.144000
     36 HAW        -3.6560   -3.2230   -1.1070 ha        1 NM8      0.144000
     37 HNAZ        1.9510   -2.9010    0.0960 hn        1 NM8      0.323500
     38 C20         4.3750   -0.8130   -0.8330 ca        1 NM8     -0.106000
     39 C21         3.7110   -1.9460   -0.3140 ca        1 NM8      0.064600
     40 C22         4.4690   -2.9210    0.3780 ca        1 NM8     -0.142000
     41 C23         5.8410   -2.7500    0.5320 ca        1 NM8     -0.141300
     42 C24         6.4950   -1.6320    0.0150 ca        1 NM8     -0.109000
     43 C25         5.7530   -0.6660   -0.6690 ca        1 NM8     -0.061300
     44 C26         6.6380   -3.8000    1.2990 c3        1 NM8      0.687200
     45 F1          6.1440   -5.0790    1.2000 f         1 NM8     -0.237300
     46 F2          7.9510   -3.9170    0.9120 f         1 NM8     -0.237300
     47 F3          6.7080   -3.5750    2.6530 f         1 NM8     -0.237300
     48 C27         6.4510    0.5200   -1.2730 c3        1 NM8      0.212100
     49 N3          5.9690    1.7960   -0.7590 n3        1 NM8     -0.728600
     50 C28         6.3960    2.9120   -1.5940 c3        1 NM8      0.166300
     51 C29         6.3100    2.0020    0.6410 c3        1 NM8      0.166300
     52 C30         5.8280    3.3610    1.1790 c3        1 NM8      0.168300
     53 N4          6.2490    4.4820    0.3490 n3        1 NM8     -0.730600
     54 C31         5.9240    4.2760   -1.0550 c3        1 NM8      0.168300
     55 C32         5.7500    5.7480    0.8700 c3        1 NM8      0.170800
     56 C33         6.2800    6.9760    0.1480 c3        1 NM8     -0.095100
     57 H13         3.9910   -3.8210    0.7980 ha        1 NM8      0.148000
     58 H14         7.5830   -1.5220    0.1440 ha        1 NM8      0.153000
     59 H15         7.5670    0.4060   -1.1240 h1        1 NM8      0.045700
     60 H16         6.2550    0.5020   -2.3850 h1        1 NM8      0.045700
     61 H17         7.5180    2.9380   -1.7120 h1        1 NM8      0.039450
     62 H18         5.9420    2.7730   -2.6150 h1        1 NM8      0.039450
     63 H19         5.8050    1.1920    1.2390 h1        1 NM8      0.039450
     64 H20         7.4230    1.9190    0.8160 h1        1 NM8      0.039450
     65 H21         4.7050    3.3260    1.2960 h1        1 NM8      0.037950
     66 H22         6.2780    3.5030    2.2020 h1        1 NM8      0.037950
     67 H23         6.4520    5.0730   -1.6490 h1        1 NM8      0.037950
     68 H24         4.8160    4.3760   -1.2460 h1        1 NM8      0.037950
     69 H25         4.6190    5.7840    0.8520 h1        1 NM8      0.029700
     70 H26         6.0700    5.8040    1.9500 h1        1 NM8      0.029700
     71 H27         5.9900    7.8840    0.7300 hc        1 NM8      0.039367
     72 H28         7.3920    6.9470    0.0630 hc        1 NM8      0.039367
     73 H29         5.8460    7.0600   -0.8770 hc        1 NM8      0.039367
     74 H12         3.8150   -0.0280   -1.3730 ha        1 NM8      0.189000
@<TRIPOS>BOND
     1    1    2 ar  
     2    1    6 ar  
     3    1   27 1   
     4    2    3 ar  
     5    2   20 ar  
     6    3    4 ar  
     7    3   23 ar  
     8    4    5 ar  
     9    4   28 1   
    10    5    6 ar  
    11    5    7 1   
    12    6   29 1   
    13    7    8 2   
    14    7   11 1   
    15    8    9 1   
    16    8   30 1   
    17    9   10 2   
    18    9   31 1   
    19   10   11 1   
    20   10   12 1   
    21   12   13 2   
    22   12   32 1   
    23   13   14 1   
    24   13   17 1   
    25   14   15 1   
    26   14   18 2   
    27   15   16 1   
    28   15   33 1   
    29   16   17 1   
    30   16   19 2   
    31   20   21 ar  
    32   20   24 1   
    33   21   22 ar  
    34   21   34 1   
    35   22   23 ar  
    36   22   35 1   
    37   23   36 1   
    38   24   25 2   
    39   24   26 1   
    40   26   37 1   
    41   26   39 1   
    42   38   39 ar  
    43   38   43 ar  
    44   38   74 1   
    45   39   40 ar  
    46   40   41 ar  
    47   40   57 1   
    48   41   42 ar  
    49   41   44 1   
    50   42   43 ar  
    51   42   58 1   
    52   43   48 1   
    53   44   45 1   
    54   44   46 1   
    55   44   47 1   
    56   48   49 1   
    57   48   59 1   
    58   48   60 1   
    59   49   50 1   
    60   49   51 1   
    61   50   54 1   
    62   50   61 1   
    63   50   62 1   
    64   51   52 1   
    65   51   63 1   
    66   51   64 1   
    67   52   53 1   
    68   52   65 1   
    69   52   66 1   
    70   53   54 1   
    71   53   55 1   
    72   54   67 1   
    73   54   68 1   
    74   55   56 1   
    75   55   69 1   
    76   55   70 1   
    77   56   71 1   
    78   56   72 1   
    79   56   73 1   
@<TRIPOS>SUBSTRUCTURE
     1 NM8         1 TEMP              0 ****  ****    0 ROOT
