@<TRIPOS>MOLECULE
NMA
   38    38     1     0     0
SMALL
bcc


@<TRIPOS>ATOM
      1 C4          1.0570   -0.0090   -0.3520 ca        1 NMA     -0.152300
      2 C4A        -0.2500   -0.3570   -1.0130 c3        1 NMA      0.202100
      3 P          -0.3140   -0.7820    4.5050 p5        1 NMA      1.314900
      4 O1P        -0.4930   -2.0710    3.7430 o         1 NMA     -0.930500
      5 O2P         0.8360   -0.7400    5.4730 o         1 NMA     -0.930500
      6 O3P        -1.5880   -0.1230    4.9560 o         1 NMA     -0.930500
      7 O4P         0.2540    0.3110    3.2630 os        1 NMA     -0.568200
      8 C5A        -0.0560   -0.0050    1.9690 c3        1 NMA      0.239700
      9 C5          1.1300    0.1350    1.0420 ca        1 NMA     -0.120600
     10 N1          3.5360    0.5580    0.9260 nb        1 NMA     -0.687000
     11 C6          2.4000    0.4190    1.6150 ca        1 NMA      0.368200
     12 C2          3.4780    0.4030   -0.4220 ca        1 NMA      0.287600
     13 C2A         4.7190    0.5260   -1.2410 c3        1 NMA     -0.103400
     14 C3          2.2600    0.1050   -1.0870 ca        1 NMA      0.033800
     15 O3          2.3700   -0.0800   -2.4450 oh        1 NMA     -0.556100
     16 N          -0.4230    0.2100   -2.3410 n3        1 NMA     -0.843200
     17 C8         -1.4360   -0.4410   -3.1770 c3        1 NMA      0.065200
     18 C7         -1.8570    0.4960   -4.3790 c         1 NMA      0.919600
     19 O7         -2.1860   -0.0570   -5.4690 o         1 NMA     -0.852800
     20 O8         -1.8980    1.7440   -4.1930 o         1 NMA     -0.852800
     21 C9         -0.8940   -1.7520   -3.7590 c3        1 NMA     -0.084100
     22 C10        -2.7480   -0.7590   -2.4420 c3        1 NMA     -0.084100
     23 H4A1       -0.2840   -1.4840   -1.0970 h1        1 NMA      0.046200
     24 H4A2       -1.0950   -0.0590   -0.3230 h1        1 NMA      0.046200
     25 H5A1       -0.8470    0.7080    1.5710 h1        1 NMA      0.026200
     26 H5A2       -0.4430   -1.0680    1.8970 h1        1 NMA      0.026200
     27 H6          2.4550    0.5270    2.7200 h4        1 NMA      0.073100
     28 H2A1        5.0080   -0.4820   -1.6300 hc        1 NMA      0.018700
     29 H2A2        4.5190    1.1890   -2.1190 hc        1 NMA      0.018700
     30 H2A3        5.5740    0.9430   -0.6570 hc        1 NMA      0.018700
     31 HO3         1.4690   -0.1240   -2.8240 ho        1 NMA      0.463000
     32 HN         -0.6230    1.1930   -2.2910 hn        1 NMA      0.387800
     33 H91         0.0780   -1.5760   -4.2780 hc        1 NMA      0.023033
     34 H92        -0.7440   -2.5190   -2.9610 hc        1 NMA      0.023033
     35 H93        -1.6280   -2.1380   -4.5060 hc        1 NMA      0.023033
     36 H101       -3.1720    0.1700   -1.9930 hc        1 NMA      0.023033
     37 H102       -3.4820   -1.1680   -3.1760 hc        1 NMA      0.023033
     38 H103       -2.5880   -1.5100   -1.6330 hc        1 NMA      0.023033
@<TRIPOS>BOND
     1    1    2 1   
     2    1    9 ar  
     3    1   14 ar  
     4    2   16 1   
     5    2   23 1   
     6    2   24 1   
     7    3    4 1   
     8    3    5 1   
     9    3    6 1   
    10    3    7 1   
    11    7    8 1   
    12    8    9 1   
    13    8   25 1   
    14    8   26 1   
    15    9   11 ar  
    16   10   11 ar  
    17   10   12 ar  
    18   11   27 1   
    19   12   13 1   
    20   12   14 ar  
    21   13   28 1   
    22   13   29 1   
    23   13   30 1   
    24   14   15 1   
    25   15   31 1   
    26   16   17 1   
    27   16   32 1   
    28   17   18 1   
    29   17   21 1   
    30   17   22 1   
    31   18   19 1   
    32   18   20 1   
    33   21   33 1   
    34   21   34 1   
    35   21   35 1   
    36   22   36 1   
    37   22   37 1   
    38   22   38 1   
@<TRIPOS>SUBSTRUCTURE
     1 NMA         1 TEMP              0 ****  ****    0 ROOT
