@<TRIPOS>MOLECULE
NMA
   39    39     1     0     0
SMALL
bcc


@<TRIPOS>ATOM
      1 C4          0.0720   -0.0840   -0.1310 ca        1 NMA     -0.120300
      2 C4A        -0.7540   -0.0470   -1.3850 c3        1 NMA      0.187100
      3 P           4.4910    1.4230   -2.0000 p5        1 NMA      1.430800
      4 O1P         5.6290    2.2450   -1.5500 o         1 NMA     -0.839500
      5 O2P         4.7780   -0.1600   -1.7160 oh        1 NMA     -0.784400
      6 O3P         3.8930    1.4000   -3.3520 o         1 NMA     -0.839500
      7 O4P         3.2550    1.6590   -0.9260 os        1 NMA     -0.579200
      8 C5A         2.0110    1.1190   -1.2520 c3        1 NMA      0.239700
      9 C5          1.3650    0.4560   -0.0700 ca        1 NMA     -0.154600
     10 N1          1.5690   -0.1510    2.2830 nb        1 NMA     -0.676000
     11 C6          2.0580    0.3940    1.1610 ca        1 NMA      0.370200
     12 C2          0.3170   -0.6640    2.2430 ca        1 NMA      0.331600
     13 C2A        -0.2780   -1.2870    3.4610 c3        1 NMA     -0.119400
     14 C3         -0.4630   -0.6400    1.0520 ca        1 NMA      0.027800
     15 O3         -1.7070   -1.2020    1.1530 oh        1 NMA     -0.538100
     16 N          -1.0810   -1.3640   -1.9140 n7        1 NMA     -0.790200
     17 C8         -2.2180   -1.3540   -2.8530 c3        1 NMA      0.048200
     18 C7         -3.6110   -1.0420   -2.1940 c         1 NMA      0.896600
     19 O7         -3.6710   -0.8000   -0.9500 o         1 NMA     -0.850800
     20 O8         -4.6280   -1.0490   -2.9410 o         1 NMA     -0.850800
     21 C9         -2.0240   -0.3340   -3.9800 c3        1 NMA     -0.067100
     22 C10        -2.3480   -2.7440   -3.4960 c3        1 NMA     -0.067100
     23 H4A1       -1.6850    0.5610   -1.1600 h1        1 NMA      0.054200
     24 H4A2       -0.1910    0.4910   -2.2000 h1        1 NMA      0.054200
     25 H5A1        1.3300    1.9580   -1.5870 h1        1 NMA      0.039700
     26 H5A2        2.1200    0.3820   -2.0990 h1        1 NMA      0.039700
     27 H6          3.0790    0.8170    1.2280 h4        1 NMA      0.045100
     28 H2A1        0.3060   -1.0600    4.3840 hc        1 NMA      0.034033
     29 H2A2       -0.3190   -2.3960    3.3230 hc        1 NMA      0.034033
     30 H2A3       -1.3260   -0.9160    3.5880 hc        1 NMA      0.034033
     31 HO3        -2.2780   -0.8850    0.4200 ho        1 NMA      0.485000
     32 HN          4.3020   -0.7210   -2.3180 ho        1 NMA      0.425000
     33 H91        -2.8810   -0.4290   -4.6900 hc        1 NMA      0.025200
     34 H92        -2.0200    0.7060   -3.5750 hc        1 NMA      0.025200
     35 H93        -1.0680   -0.5130   -4.5260 hc        1 NMA      0.025200
     36 H101       -1.4490   -2.9850   -4.1110 hc        1 NMA      0.025200
     37 H102       -2.4730   -3.5320   -2.7170 hc        1 NMA      0.025200
     38 H103       -3.2540   -2.7430   -4.1490 hc        1 NMA      0.025200
     39 HN3        -1.3310   -1.9750   -1.1530 hn        1 NMA      0.350800
@<TRIPOS>BOND
     1    1    2 1   
     2    1    9 ar  
     3    1   14 ar  
     4    2   16 1   
     5    2   23 1   
     6    2   24 1   
     7    3    4 1   
     8    3    5 1   
     9    3    6 1   
    10    3    7 1   
    11    5   32 1   
    12    7    8 1   
    13    8    9 1   
    14    8   25 1   
    15    8   26 1   
    16    9   11 ar  
    17   10   11 ar  
    18   10   12 ar  
    19   11   27 1   
    20   12   13 1   
    21   12   14 ar  
    22   13   28 1   
    23   13   29 1   
    24   13   30 1   
    25   14   15 1   
    26   15   31 1   
    27   16   17 1   
    28   16   39 1   
    29   17   18 1   
    30   17   21 1   
    31   17   22 1   
    32   18   19 1   
    33   18   20 1   
    34   21   33 1   
    35   21   34 1   
    36   21   35 1   
    37   22   36 1   
    38   22   37 1   
    39   22   38 1   
@<TRIPOS>SUBSTRUCTURE
     1 NMA         1 TEMP              0 ****  ****    0 ROOT
