@<TRIPOS>MOLECULE
NMA
   39    39     1     0     0
SMALL
bcc


@<TRIPOS>ATOM
      1 C4          0.0920   -0.1910   -0.0390 ca        1 NMA     -0.126300
      2 C4A        -0.6740   -0.1350   -1.3290 c3        1 NMA      0.188100
      3 P           4.4300    1.6070   -2.0030 p5        1 NMA      1.428800
      4 O1P         5.7980    1.8150   -1.4940 o         1 NMA     -0.841000
      5 O2P         4.4060    0.4250   -3.1350 oh        1 NMA     -0.786400
      6 O3P         3.5500    2.6310   -2.6100 o         1 NMA     -0.841000
      7 O4P         3.5690    0.8410   -0.8220 os        1 NMA     -0.574200
      8 C5A         2.2310    0.6010   -1.1530 c3        1 NMA      0.209700
      9 C5          1.4470    0.1600    0.0430 ca        1 NMA     -0.133600
     10 N1          1.4790   -0.2840    2.4400 nb        1 NMA     -0.675000
     11 C6          2.0820    0.0950    1.3050 ca        1 NMA      0.364200
     12 C2          0.1700   -0.6200    2.3780 ca        1 NMA      0.328600
     13 C2A        -0.5550   -1.0540    3.6080 c3        1 NMA     -0.118400
     14 C3         -0.5560   -0.5840    1.1530 ca        1 NMA      0.031800
     15 O3         -1.8670   -0.9630    1.2390 oh        1 NMA     -0.535100
     16 N          -1.0560   -1.4460   -1.8340 n3        1 NMA     -0.790200
     17 C8         -2.1310   -1.4010   -2.8420 c3        1 NMA      0.046200
     18 C7         -3.5460   -1.0210   -2.2700 c         1 NMA      0.897600
     19 O7         -3.6630   -0.7540   -1.0360 o         1 NMA     -0.849800
     20 O8         -4.5180   -1.0050   -3.0730 o         1 NMA     -0.849800
     21 C9         -1.8280   -0.4070   -3.9680 c3        1 NMA     -0.066600
     22 C10        -2.2810   -2.7940   -3.4750 c3        1 NMA     -0.066600
     23 H4A1       -1.5750    0.5340   -1.1650 h1        1 NMA      0.052700
     24 H4A2       -0.0420    0.3490   -2.1280 h1        1 NMA      0.052700
     25 H5A1        1.7870    1.5490   -1.5780 h1        1 NMA      0.048700
     26 H5A2        2.1990   -0.2030   -1.9430 h1        1 NMA      0.048700
     27 H6          3.1530    0.3650    1.3820 h4        1 NMA      0.045100
     28 H2A1        0.0500   -0.9050    4.5350 hc        1 NMA      0.034033
     29 H2A2       -0.8150   -2.1380    3.5160 hc        1 NMA      0.034033
     30 H2A3       -1.5080   -0.4760    3.6940 hc        1 NMA      0.034033
     31 HO3        -2.3430   -0.7310    0.4140 ho        1 NMA      0.485000
     32 HN          3.7220    0.5690   -3.7790 ho        1 NMA      0.423000
     33 H91        -2.6470   -0.4760   -4.7250 hc        1 NMA      0.025033
     34 H92        -1.8020    0.6380   -3.5770 hc        1 NMA      0.025033
     35 H93        -0.8520   -0.6350   -4.4570 hc        1 NMA      0.025033
     36 H101       -1.3590   -3.0800   -4.0340 hc        1 NMA      0.025033
     37 H102       -2.4840   -3.5650   -2.6950 hc        1 NMA      0.025033
     38 H103       -3.1480   -2.7650   -4.1790 hc        1 NMA      0.025033
     39 HN3        -1.3960   -2.0070   -1.0680 hn        1 NMA      0.349800
@<TRIPOS>BOND
     1    1    2 1   
     2    1    9 ar  
     3    1   14 ar  
     4    2   16 1   
     5    2   23 1   
     6    2   24 1   
     7    3    4 1   
     8    3    5 1   
     9    3    6 1   
    10    3    7 1   
    11    5   32 1   
    12    7    8 1   
    13    8    9 1   
    14    8   25 1   
    15    8   26 1   
    16    9   11 ar  
    17   10   11 ar  
    18   10   12 ar  
    19   11   27 1   
    20   12   13 1   
    21   12   14 ar  
    22   13   28 1   
    23   13   29 1   
    24   13   30 1   
    25   14   15 1   
    26   15   31 1   
    27   16   17 1   
    28   16   39 1   
    29   17   18 1   
    30   17   21 1   
    31   17   22 1   
    32   18   19 1   
    33   18   20 1   
    34   21   33 1   
    35   21   34 1   
    36   21   35 1   
    37   22   36 1   
    38   22   37 1   
    39   22   38 1   
@<TRIPOS>SUBSTRUCTURE
     1 NMA         1 TEMP              0 ****  ****    0 ROOT
