@<TRIPOS>MOLECULE
NMA
   39    39     1     0     0
SMALL
bcc


@<TRIPOS>ATOM
      1 C4          0.1020   -0.1680   -0.0460 ca        1 NMA     -0.126300
      2 C4A        -0.6760   -0.1410   -1.3320 c3        1 NMA      0.188100
      3 P           4.4250    1.5760   -2.0890 p5        1 NMA      1.428800
      4 O1P         5.7980    1.7940   -1.5970 o         1 NMA     -0.841000
      5 O2P         4.3900    0.3670   -3.1920 oh        1 NMA     -0.786400
      6 O3P         3.5420    2.5870   -2.7120 o         1 NMA     -0.841000
      7 O4P         3.5730    0.8390   -0.8830 os        1 NMA     -0.574200
      8 C5A         2.2320    0.5940   -1.1970 c3        1 NMA      0.209700
      9 C5          1.4580    0.1820    0.0150 ca        1 NMA     -0.133600
     10 N1          1.5090   -0.2050    2.4220 nb        1 NMA     -0.675000
     11 C6          2.1030    0.1460    1.2730 ca        1 NMA      0.364200
     12 C2          0.1990   -0.5400    2.3790 ca        1 NMA      0.328600
     13 C2A        -0.5160   -0.9440    3.6250 c3        1 NMA     -0.118400
     14 C3         -0.5370   -0.5310    1.1590 ca        1 NMA      0.031800
     15 O3         -1.8480   -0.9060    1.2660 oh        1 NMA     -0.535100
     16 N          -1.0650   -1.4630   -1.8010 n3        1 NMA     -0.790200
     17 C8         -2.1480   -1.4390   -2.8020 c3        1 NMA      0.046200
     18 C7         -3.5570   -1.0420   -2.2260 c         1 NMA      0.897600
     19 O7         -3.6630   -0.7450   -0.9980 o         1 NMA     -0.849800
     20 O8         -4.5370   -1.0420   -3.0220 o         1 NMA     -0.849800
     21 C9         -1.8530   -0.4740   -3.9540 c3        1 NMA     -0.066600
     22 C10        -2.3080   -2.8460   -3.3990 c3        1 NMA     -0.066600
     23 H4A1       -0.0500    0.3220   -2.1470 h1        1 NMA      0.052700
     24 H4A2       -1.5740    0.5340   -1.1750 h1        1 NMA      0.052700
     25 H5A1        1.7860    1.5320   -1.6410 h1        1 NMA      0.048700
     26 H5A2        2.1920   -0.2290   -1.9680 h1        1 NMA      0.048700
     27 H6          3.1750    0.4160    1.3350 h4        1 NMA      0.045100
     28 H2A1       -0.7750   -2.0300    3.5630 hc        1 NMA      0.034033
     29 H2A2       -1.4700   -0.3660    3.7040 hc        1 NMA      0.034033
     30 H2A3        0.0950   -0.7700    4.5430 hc        1 NMA      0.034033
     31 HO3        -2.3310   -0.6910    0.4400 ho        1 NMA      0.485000
     32 HN         -1.3990   -2.0040   -1.0200 hn        1 NMA      0.349800
     33 H91        -0.8810   -0.7160   -4.4450 hc        1 NMA      0.025033
     34 H92        -2.6780   -0.5590   -4.7020 hc        1 NMA      0.025033
     35 H93        -1.8210    0.5800   -3.5880 hc        1 NMA      0.025033
     36 H101       -3.1800   -2.8320   -4.0960 hc        1 NMA      0.025033
     37 H102       -1.3910   -3.1490   -3.9580 hc        1 NMA      0.025033
     38 H103       -2.5060   -3.5980   -2.5980 hc        1 NMA      0.025033
     39 HN3         3.7010    0.4980   -3.8340 ho        1 NMA      0.423000
@<TRIPOS>BOND
     1    1    2 1   
     2    1    9 ar  
     3    1   14 ar  
     4    2   16 1   
     5    2   23 1   
     6    2   24 1   
     7    3    4 1   
     8    3    5 1   
     9    3    6 1   
    10    3    7 1   
    11    5   39 1   
    12    7    8 1   
    13    8    9 1   
    14    8   25 1   
    15    8   26 1   
    16    9   11 ar  
    17   10   11 ar  
    18   10   12 ar  
    19   11   27 1   
    20   12   13 1   
    21   12   14 ar  
    22   13   28 1   
    23   13   29 1   
    24   13   30 1   
    25   14   15 1   
    26   15   31 1   
    27   16   17 1   
    28   16   32 1   
    29   17   18 1   
    30   17   21 1   
    31   17   22 1   
    32   18   19 1   
    33   18   20 1   
    34   21   33 1   
    35   21   34 1   
    36   21   35 1   
    37   22   36 1   
    38   22   37 1   
    39   22   38 1   
@<TRIPOS>SUBSTRUCTURE
     1 NMA         1 TEMP              0 ****  ****    0 ROOT
