@<TRIPOS>MOLECULE
NMA
   38    35     1     0     0
SMALL
bcc


@<TRIPOS>ATOM
      1 C4          0.2040    0.3090    0.9240 c1        1 NMA     -0.145000
      2 C4A        -0.5690    0.3670   -0.4100 c2        1 NMA     -0.044000
      3 P           4.7070    0.9450   -1.2660 p3        1 NMA      2.508000
      4 O1P         4.2710    2.3090   -1.7330 o         1 NMA     -1.253000
      5 O2P         6.1100    1.0270   -0.7140 os        1 NMA     -1.247000
      6 O3P         4.6780   -0.0140   -2.4220 o         1 NMA     -1.253000
      7 O4P         3.7220    0.4350   -0.1320 os        1 NMA     -0.733000
      8 C5A         2.3280    0.4590   -0.3860 c3        1 NMA      0.077000
      9 C5          1.5720    0.3040    0.9220 c2        1 NMA     -0.036000
     10 N1          1.5840    0.3080    3.3130 n1        1 NMA     -0.163000
     11 C6          2.2680    0.3030    2.1280 c2        1 NMA     -0.098000
     12 C2          0.2200    0.3140    3.3150 c1        1 NMA     -0.134000
     13 C2A        -0.5410    0.2640    4.6390 c3        1 NMA     -0.127000
     14 C3         -0.4780    0.3150    2.1120 c2        1 NMA      0.038000
     15 O3         -1.8840    0.4110    2.1150 oh        1 NMA     -0.303000
     16 N          -1.1060   -0.9460   -0.7140 n3        1 NMA     -0.275000
     17 C8         -1.9970   -0.8550   -1.8490 c3        1 NMA     -0.049000
     18 C7         -3.0550    0.1970   -1.5780 c2        1 NMA      0.312000
     19 O7         -3.3320    1.0510   -2.4590 o         1 NMA     -0.594500
     20 O8         -3.6300    0.2370   -0.4590 o         1 NMA     -0.594500
     21 C9         -1.2040   -0.4690   -3.0900 c3        1 NMA     -0.184500
     22 C10        -2.6710   -2.2070   -2.0750 c3        1 NMA     -0.184500
     23 H4A1       -1.3000    1.0080   -0.3340 h4        1 NMA      0.087500
     24 H4A2        0.0440    0.6490   -1.1350 h4        1 NMA      0.087500
     25 H5A1        2.0850    1.3170   -0.8050 h1        1 NMA      0.071000
     26 H5A2        2.0910   -0.2820   -0.9920 h1        1 NMA      0.071000
     27 H6          3.2430    0.2990    2.1280 h4        1 NMA      0.210000
     28 H2A1       -1.2190   -0.4490    4.6010 hc        1 NMA      0.058000
     29 H2A2       -0.9820    1.1280    4.7970 hc        1 NMA      0.058000
     30 H2A3        0.0880    0.0790    5.3710 hc        1 NMA      0.058000
     31 HO3        -2.1350    1.1110    2.6180 ho        1 NMA      0.268000
     32 HN         -1.5660   -1.2630    0.0110 hn        1 NMA      0.147000
     33 H91        -0.4390   -1.0770   -3.1920 hc        1 NMA      0.061333
     34 H92        -0.8820    0.4460   -2.9990 hc        1 NMA      0.061333
     35 H93        -1.7810   -0.5360   -3.8800 hc        1 NMA      0.061333
     36 H101       -3.4690   -2.0860   -2.6290 hc        1 NMA      0.061333
     37 H102       -2.0460   -2.8130   -2.5310 hc        1 NMA      0.061333
     38 H103       -2.9290   -2.5920   -1.2110 hc        1 NMA      0.061333
@<TRIPOS>BOND
     1    1    9 1   
     2    1   14 1   
     3    2   16 1   
     4    2   23 1   
     5    2   24 1   
     6    3    4 1   
     7    3    6 1   
     8    3    7 1   
     9    7    8 1   
    10    8    9 1   
    11    8   25 1   
    12    8   26 1   
    13    9   11 1   
    14   10   11 1   
    15   11   27 1   
    16   12   13 1   
    17   12   14 1   
    18   13   28 1   
    19   13   29 1   
    20   13   30 1   
    21   14   15 1   
    22   15   31 1   
    23   16   17 1   
    24   16   32 1   
    25   17   18 1   
    26   17   21 1   
    27   17   22 1   
    28   18   19 1   
    29   18   20 1   
    30   21   33 1   
    31   21   34 1   
    32   21   35 1   
    33   22   36 1   
    34   22   37 1   
    35   22   38 1   
@<TRIPOS>SUBSTRUCTURE
     1 NMA         1 TEMP              0 ****  ****    0 ROOT
