@<TRIPOS>MOLECULE
NMB
   75   102     1     0     0
SMALL
bcc


@<TRIPOS>ATOM
      1 N01         0.0000    0.0000    0.0000 nx        1 NMB     -0.452000
      2 S02         1.6700    0.0000    0.0000 s6        1 NMB      2.287000
      3 N03         2.1560    0.0000    1.5970 n3        1 NMB     -0.514000
      4 C04         1.4300    0.7950    2.5590 DU        1 NMB      0.140000
      5 C05         0.2560    0.0150    3.1490 DU        1 NMB     -0.032000
      6 C06        -0.9300   -0.0110    2.2700 DU        1 NMB     -0.113000
      7 C07        -0.7120   -0.7930    0.9770 DU        1 NMB     -0.468000
      8 C08        -0.7370    0.8000   -0.9800 c3        1 NMB     -0.285000
      9 C09        -1.0840    2.1380   -0.3790 c2        1 NMB     -0.167000
     10 C10        -0.1350    3.1410   -0.3330 c3        1 NMB     -0.125000
     11 C11        -0.4530    4.3680    0.2180 c3        1 NMB     -0.250000
     12 C12        -1.7190    4.5920    0.7220 c3        1 NMB     -0.208000
     13 C13        -2.6700    3.5890    0.6750 c3        1 NMB     -0.310000
     14 C14        -2.3530    2.3620    0.1200 c2        1 NMB     -0.264000
     15 O15         2.0570   -1.2640   -0.5230 o         1 NMB     -0.823000
     16 C17         4.2320    2.3380    4.2100 c3        1 NMB     -0.020000
     17 C18         5.3020    3.2000    4.0220 c2        1 NMB     -0.148000
     18 C19         6.1320    3.5100    5.0820 c3        1 NMB     -0.082000
     19 C20         5.8990    2.9610    6.3290 c3        1 NMB     -0.182000
     20 C21         4.8320    2.1020    6.5190 c3        1 NMB     -0.204000
     21 C22         3.9950    1.7930    5.4630 c2        1 NMB     -0.417000
     22 C23         3.3090   -0.8000    2.0180 c3        1 NMB      0.013000
     23 C24         2.8340   -2.1340    2.5340 c2        1 NMB     -0.218000
     24 C25         2.5140   -3.1440    1.6450 c3        1 NMB     -0.053000
     25 C26         2.0780   -4.3670    2.1180 c3        1 NMB     -0.166000
     26 C27         1.9640   -4.5820    3.4780 c3        1 NMB     -0.131000
     27 C28         2.2860   -3.5730    4.3660 c3        1 NMB     -0.238000
     28 C29         2.7260   -2.3500    3.8940 c2        1 NMB     -0.409000
     29 O30         0.6750   -1.3290    3.3900 oh        1 NMB     -0.385000
     30 O31        -1.2800    1.3330    1.9340 oh        1 NMB     -0.426000
     31 C32        -2.0700   -1.1970    0.3980 c3        1 NMB      0.084000
     32 O33        -1.8750   -1.9300   -0.8110 os        1 NMB     -0.131000
     33 C34        -3.1090   -2.2600   -1.2750 c2        1 NMB      0.217000
     34 C35        -3.2380   -2.9840   -2.4510 c3        1 NMB      0.004000
     35 C36        -4.4940   -3.3190   -2.9200 c3        1 NMB     -0.217000
     36 C37        -5.6200   -2.9310   -2.2190 c3        1 NMB     -0.110000
     37 C38        -5.4940   -2.2090   -1.0470 c3        1 NMB     -0.334000
     38 C39        -4.2400   -1.8780   -0.5700 c2        1 NMB     -0.332000
     39 O40         2.0580    1.2600   -0.5260 o         1 NMB     -0.823000
     40 C41         2.3750    1.2000    3.6900 c3        1 NMB      0.751000
     41 H04         2.0990    1.0820    3.3600 ha        1 NMB     -0.448000
     42 H05         0.7350    0.8290    2.6170 DU        1 NMB      0.128000
     43 H06        -0.4270    0.2170    3.2020 DU        1 NMB      0.095000
     44 H07        -1.2220   -0.5950    1.9120 DU        1 NMB      0.173000
     45 H081       -0.5690    0.0100   -0.2590 DU        1 NMB      0.316000
     46 H082       -0.1470    0.9270   -1.8800 hx        1 NMB      0.106000
     47 H10        -0.5970    2.2030   -0.6170 hc        1 NMB      0.343000
     48 H11         0.1750    3.6260   -0.2600 DU        1 NMB      0.164000
     49 H12        -0.7110    4.9180    0.4980 DU        1 NMB      0.225000
     50 H13        -2.3060    4.5840    0.9010 DU        1 NMB      0.195000
     51 H14        -2.9990    3.0870    0.6000 DU        1 NMB      0.232000
     52 H18         4.3350    3.0230    3.5670 DU        1 NMB      0.373000
     53 H19         5.7480    3.5240    4.0690 hc        1 NMB      0.156000
     54 H20         6.4230    3.5700    5.6020 DU        1 NMB      0.183000
     55 H21         5.7040    2.6510    6.8520 DU        1 NMB      0.189000
     56 H22         4.3460    1.7500    6.4870 DU        1 NMB      0.208000
     57 H231        3.2880   -0.2750    2.9650 h1        1 NMB      0.130000
     58 H232        4.0140   -0.9290    1.2060 h1        1 NMB      0.130000
     59 H25         2.9200   -2.2090    2.0120 hc        1 NMB      0.339000
     60 H26         2.3510   -3.6630    1.3410 DU        1 NMB      0.181000
     61 H27         1.9070   -4.9090    2.4470 DU        1 NMB      0.202000
     62 H28         1.9440   -4.5620    4.0880 DU        1 NMB      0.172000
     63 H29         2.4770   -3.0740    4.6600 DU        1 NMB      0.206000
     64 HO3         1.5190   -1.4780    3.7820 ho        1 NMB      0.293000
     65 HO1        -0.7680    0.6830    2.3850 DU        1 NMB      0.297000
     66 H321       -1.7400   -0.3390    0.9720 DU        1 NMB      0.218000
     67 H322       -2.4810   -1.8230    1.1810 h1        1 NMB      0.100000
     68 H35        -3.0580   -2.2460   -1.6790 hc        1 NMB      0.068000
     69 H36        -3.4120   -3.2810   -2.9440 DU        1 NMB      0.142000
     70 H37        -5.0750   -3.4100   -3.0240 DU        1 NMB      0.175000
     71 H38        -6.0500   -2.7060   -1.8330 DU        1 NMB      0.180000
     72 H39        -5.3230   -1.8990   -0.5330 DU        1 NMB      0.230000
     73 H411        1.4600    0.8540    3.2250 DU        1 NMB     -0.120000
     74 H412        2.7890    0.3810    4.2660 h1        1 NMB      0.143000
     75 O16         3.4130    2.0330    3.1700 os        1 NMB     -0.180000
@<TRIPOS>BOND
     1    1    2 1   
     2    1    7 1   
     3    1    8 1   
     4    1   45 1   
     5    2    3 1   
     6    2   15 1   
     7    2   39 1   
     8    3    4 1   
     9    3   22 1   
    10    4    5 1   
    11    4   40 1   
    12    4   41 1   
    13    4   42 1   
    14    4   73 1   
    15    5    6 1   
    16    5   29 1   
    17    5   42 1   
    18    5   43 1   
    19    6    7 1   
    20    6   30 1   
    21    6   43 1   
    22    6   44 1   
    23    6   65 1   
    24    7   31 1   
    25    7   44 1   
    26    7   66 1   
    27    8    9 1   
    28    8   45 1   
    29    8   46 1   
    30    9   10 1   
    31    9   14 1   
    32   10   11 1   
    33   10   47 1   
    34   10   48 1   
    35   11   12 1   
    36   11   48 1   
    37   11   49 1   
    38   12   13 1   
    39   12   49 1   
    40   12   50 1   
    41   13   14 1   
    42   13   50 1   
    43   13   51 1   
    44   14   51 1   
    45   16   17 1   
    46   16   21 1   
    47   16   52 1   
    48   16   75 1   
    49   17   18 1   
    50   17   52 1   
    51   18   19 1   
    52   18   53 1   
    53   18   54 1   
    54   19   20 1   
    55   19   54 1   
    56   19   55 1   
    57   20   21 1   
    58   20   55 1   
    59   20   56 1   
    60   21   56 1   
    61   22   23 1   
    62   22   57 1   
    63   22   58 1   
    64   23   24 1   
    65   23   28 1   
    66   24   25 1   
    67   24   59 1   
    68   24   60 1   
    69   25   26 1   
    70   25   60 1   
    71   25   61 1   
    72   26   27 1   
    73   26   61 1   
    74   26   62 1   
    75   27   28 1   
    76   27   62 1   
    77   27   63 1   
    78   28   63 1   
    79   29   64 1   
    80   30   65 1   
    81   31   32 1   
    82   31   66 1   
    83   31   67 1   
    84   32   33 1   
    85   33   34 1   
    86   33   38 1   
    87   34   35 1   
    88   34   68 1   
    89   34   69 1   
    90   35   36 1   
    91   35   69 1   
    92   35   70 1   
    93   36   37 1   
    94   36   70 1   
    95   36   71 1   
    96   37   38 1   
    97   37   71 1   
    98   37   72 1   
    99   38   72 1   
   100   40   73 1   
   101   40   74 1   
   102   40   75 1   
@<TRIPOS>SUBSTRUCTURE
     1 NMB         1 TEMP              0 ****  ****    0 ROOT
