@<TRIPOS>MOLECULE
NMB
   75    79     1     0     0
SMALL
bcc


@<TRIPOS>ATOM
      1 N01        -0.5830    0.9380   -1.1500 n3        1 NMB     -0.792000
      2 S02        -0.2470    1.9880    0.0810 s6        1 NMB      1.560800
      3 N03         0.2720    1.0050    1.3010 n3        1 NMB     -0.792000
      4 C04        -0.6200   -0.0320    1.7610 c3        1 NMB      0.240000
      5 C05        -0.8380   -1.1670    0.7090 c3        1 NMB      0.090100
      6 C06         0.2730   -1.2980   -0.3510 c3        1 NMB      0.090100
      7 C07         0.3310   -0.1470   -1.4080 c3        1 NMB      0.240000
      8 C08        -1.7420    1.1460   -1.9790 c3        1 NMB      0.262600
      9 C09        -2.9560    0.3150   -1.6600 ca        1 NMB     -0.121800
     10 C10        -3.7030    0.5820   -0.5060 ca        1 NMB     -0.124250
     11 C11        -4.8610   -0.1460   -0.2380 ca        1 NMB     -0.134250
     12 C12        -5.2830   -1.1410   -1.1210 ca        1 NMB     -0.125500
     13 C13        -4.5470   -1.4030   -2.2750 ca        1 NMB     -0.134250
     14 C14        -3.3870   -0.6770   -2.5460 ca        1 NMB     -0.124250
     15 O15         0.8080    2.8610   -0.2790 o         1 NMB     -0.646800
     16 C17        -0.3280    0.0050    5.4200 ca        1 NMB      0.121600
     17 C18        -0.5530    1.0410    6.3470 ca        1 NMB     -0.179250
     18 C19        -0.5000    0.7550    7.7060 ca        1 NMB     -0.098500
     19 C20        -0.2300   -0.5430    8.1480 ca        1 NMB     -0.162500
     20 C21        -0.0090   -1.5600    7.2230 ca        1 NMB     -0.098500
     21 C22        -0.0550   -1.2970    5.8530 ca        1 NMB     -0.179250
     22 C23         1.5680    1.2060    1.8970 c3        1 NMB      0.262600
     23 C24         2.7180    0.4680    1.2630 ca        1 NMB     -0.121800
     24 C25         3.3380    0.9980    0.1240 ca        1 NMB     -0.124250
     25 C26         4.4420    0.3550   -0.4340 ca        1 NMB     -0.134250
     26 C27         4.9360   -0.8160    0.1410 ca        1 NMB     -0.125500
     27 C28         4.3250   -1.3430    1.2780 ca        1 NMB     -0.134250
     28 C29         3.2190   -0.7030    1.8380 ca        1 NMB     -0.124250
     29 O30        -0.9130   -2.4150    1.3890 oh        1 NMB     -0.609800
     30 O31         0.0660   -2.5330   -1.0280 oh        1 NMB     -0.609800
     31 C32         0.2840   -0.7610   -2.8190 c3        1 NMB      0.136400
     32 O33         0.6470    0.2810   -3.7320 os        1 NMB     -0.333900
     33 C34         0.8180   -0.1080   -5.0470 ca        1 NMB      0.121600
     34 C35         1.2780    0.9120   -5.9030 ca        1 NMB     -0.179250
     35 C36         1.4700    0.6280   -7.2500 ca        1 NMB     -0.098500
     36 C37         1.2130   -0.6520   -7.7490 ca        1 NMB     -0.162500
     37 C38         0.7600   -1.6530   -6.8940 ca        1 NMB     -0.098500
     38 C39         0.5580   -1.3930   -5.5380 ca        1 NMB     -0.179250
     39 O40        -1.4500    2.6390    0.4530 o         1 NMB     -0.646800
     40 C41        -0.3070   -0.6580    3.1320 c3        1 NMB      0.136400
     41 H04        -1.6370    0.4700    1.8850 h1        1 NMB      0.076700
     42 H05        -1.8230   -0.9720    0.1920 h1        1 NMB      0.070700
     43 H06         1.2740   -1.3260    0.1730 h1        1 NMB      0.070700
     44 H07         1.3770    0.3020   -1.3070 h1        1 NMB      0.076700
     45 H081       -2.0430    2.2340   -1.8690 h1        1 NMB      0.076950
     46 H082       -1.4590    0.9900   -3.0610 h1        1 NMB      0.076950
     47 H10        -3.3810    1.3850    0.1790 ha        1 NMB      0.149500
     48 H11        -5.4470    0.0710    0.6670 ha        1 NMB      0.134500
     49 H12        -6.1990   -1.7130   -0.9100 ha        1 NMB      0.132500
     50 H13        -4.8820   -2.1800   -2.9780 ha        1 NMB      0.134500
     51 H14        -2.8200   -0.8800   -3.4670 ha        1 NMB      0.149500
     52 H18        -0.7670    2.0560    5.9820 ha        1 NMB      0.144750
     53 H19        -0.6750    1.5580    8.4370 ha        1 NMB      0.133250
     54 H20        -0.1910   -0.7580    9.2250 ha        1 NMB      0.133500
     55 H21         0.2040   -2.5820    7.5690 ha        1 NMB      0.133250
     56 H22         0.1230   -2.1110    5.1360 ha        1 NMB      0.144750
     57 H231        1.7990    2.3140    1.8310 h1        1 NMB      0.076950
     58 H232        1.5280    0.9490    2.9950 h1        1 NMB      0.076950
     59 H25         2.9550    1.9340   -0.3210 ha        1 NMB      0.149500
     60 H26         4.9260    0.7780   -1.3270 ha        1 NMB      0.134500
     61 H27         5.8090   -1.3200   -0.2990 ha        1 NMB      0.132500
     62 H28         4.7180   -2.2610    1.7380 ha        1 NMB      0.134500
     63 H29         2.7540   -1.1170    2.7450 ha        1 NMB      0.149500
     64 HO3        -1.4700   -2.9880    0.8460 ho        1 NMB      0.415500
     65 HO1         0.3760   -3.2250   -0.4300 ho        1 NMB      0.415500
     66 H321        1.0380   -1.5910   -2.8750 h1        1 NMB      0.062700
     67 H322       -0.7350   -1.1550   -3.0660 h1        1 NMB      0.062700
     68 H35         1.4760    1.9120   -5.4940 ha        1 NMB      0.144750
     69 H36         1.8280    1.4190   -7.9260 ha        1 NMB      0.133250
     70 H37         1.3690   -0.8660   -8.8160 ha        1 NMB      0.133500
     71 H38         0.5570   -2.6620   -7.2860 ha        1 NMB      0.133250
     72 H39         0.1990   -2.1930   -4.8770 ha        1 NMB      0.144750
     73 H411       -1.0880   -1.4320    3.3630 h1        1 NMB      0.062700
     74 H412        0.7100   -1.1260    3.1520 h1        1 NMB      0.062700
     75 O16        -0.3820    0.3990    4.0950 os        1 NMB     -0.333900
@<TRIPOS>BOND
     1    1    2 1   
     2    1    7 1   
     3    1    8 1   
     4    2    3 1   
     5    2   15 2   
     6    2   39 2   
     7    3    4 1   
     8    3   22 1   
     9    4    5 1   
    10    4   40 1   
    11    4   41 1   
    12    5    6 1   
    13    5   29 1   
    14    5   42 1   
    15    6    7 1   
    16    6   30 1   
    17    6   43 1   
    18    7   31 1   
    19    7   44 1   
    20    8    9 1   
    21    8   45 1   
    22    8   46 1   
    23    9   10 ar  
    24    9   14 ar  
    25   10   11 ar  
    26   10   47 1   
    27   11   12 ar  
    28   11   48 1   
    29   12   13 ar  
    30   12   49 1   
    31   13   14 ar  
    32   13   50 1   
    33   14   51 1   
    34   16   17 ar  
    35   16   21 ar  
    36   16   75 1   
    37   17   18 ar  
    38   17   52 1   
    39   18   19 ar  
    40   18   53 1   
    41   19   20 ar  
    42   19   54 1   
    43   20   21 ar  
    44   20   55 1   
    45   21   56 1   
    46   22   23 1   
    47   22   57 1   
    48   22   58 1   
    49   23   24 ar  
    50   23   28 ar  
    51   24   25 ar  
    52   24   59 1   
    53   25   26 ar  
    54   25   60 1   
    55   26   27 ar  
    56   26   61 1   
    57   27   28 ar  
    58   27   62 1   
    59   28   63 1   
    60   29   64 1   
    61   30   65 1   
    62   31   32 1   
    63   31   66 1   
    64   31   67 1   
    65   32   33 1   
    66   33   34 ar  
    67   33   38 ar  
    68   34   35 ar  
    69   34   68 1   
    70   35   36 ar  
    71   35   69 1   
    72   36   37 ar  
    73   36   70 1   
    74   37   38 ar  
    75   37   71 1   
    76   38   72 1   
    77   40   73 1   
    78   40   74 1   
    79   40   75 1   
@<TRIPOS>SUBSTRUCTURE
     1 NMB         1 TEMP              0 ****  ****    0 ROOT
