@<TRIPOS>MOLECULE
NMB
   75    70     1     0     0
SMALL
bcc


@<TRIPOS>ATOM
      1 N01        -0.3150    0.5900   -0.9670 n3        1 NMB     -0.826000
      2 S02         1.3220    0.5240   -0.9320 s4        1 NMB      2.006800
      3 N03         1.7540    0.5280    0.6850 n2        1 NMB     -0.807000
      4 C04         1.5500   -0.7620    1.2720 c3        1 NMB      0.007000
      5 C05         0.1080   -1.2180    1.0930 c3        1 NMB     -0.028000
      6 C06        -0.1210   -1.7280   -0.3040 c3        1 NMB      0.005000
      7 C07        -0.8590   -0.6840   -1.1590 c3        1 NMB      0.045000
      8 C08        -1.0840    1.8170   -0.9870 c3        1 NMB      0.007000
      9 C09        -0.9360    2.5050   -2.3770 c2        1 NMB     -0.116000
     10 C10        -0.5410    3.8330   -2.4540 c1        1 NMB     -0.115000
     11 C11        -0.5260    4.4800   -3.6790 c1        1 NMB     -0.128750
     12 C12        -0.9030    3.8000   -4.8230 c1        1 NMB     -0.128750
     13 C13        -1.2960    2.4800   -4.7450 c1        1 NMB     -0.137000
     14 C14        -1.3130    1.8310   -3.5230 c2        1 NMB     -0.112000
     15 O15         1.8130   -0.6770   -1.6080 o         1 NMB     -0.534400
     16 O16         3.5630   -2.1120    1.4890 os        1 NMB     -0.225000
     17 C17         4.1120   -3.4000    1.2870 c2        1 NMB      0.080000
     18 C18         3.4450   -4.5220    1.7620 c2        1 NMB     -0.197000
     19 C19         3.9820   -5.7900    1.5510 c1        1 NMB     -0.094000
     20 C20         5.1790   -5.9290    0.8670 c1        1 NMB     -0.128750
     21 C21         5.8420   -4.8070    0.3940 c1        1 NMB     -0.128750
     22 C22         5.3090   -3.5430    0.6040 c1        1 NMB     -0.159000
     23 C23         2.4210    1.6640    1.3710 c3        1 NMB      0.010000
     24 C24         1.7100    1.9370    2.7100 c2        1 NMB     -0.108000
     25 C25         0.6930    2.9060    2.7720 c2        1 NMB     -0.121000
     26 C26         0.1480    3.2710    4.0070 c1        1 NMB     -0.131000
     27 C27         0.6100    2.6790    5.1700 c1        1 NMB     -0.128750
     28 C28         1.6230    1.7140    5.1100 c1        1 NMB     -0.128750
     29 C29         2.1710    1.3460    3.8700 c1        1 NMB     -0.122000
     30 O30        -0.1710   -2.2540    2.0140 oh        1 NMB     -0.331000
     31 O31        -0.8920   -2.9100   -0.2500 oh        1 NMB     -0.315000
     32 C32        -2.3250   -0.6610   -0.7740 c3        1 NMB     -0.040000
     33 O33        -3.1360   -0.5070   -1.9690 os        1 NMB     -0.222000
     34 C34        -4.4330   -0.0170   -1.7190 c2        1 NMB      0.080000
     35 C35        -5.5100   -0.5140   -2.4350 c2        1 NMB     -0.157000
     36 C36        -6.7730    0.0590   -2.2800 c1        1 NMB     -0.098000
     37 C37        -6.9520    1.1310   -1.4060 c1        1 NMB     -0.128750
     38 C38        -5.8760    1.6310   -0.6880 c1        1 NMB     -0.128750
     39 C39        -4.6160    1.0650   -0.8380 c1        1 NMB     -0.202000
     40 O40         1.8620    1.6910   -1.5730 o         1 NMB     -0.534400
     41 C41         2.5040   -1.7860    0.5940 c3        1 NMB     -0.057000
     42 H04         1.7610   -0.7150    2.2520 h1        1 NMB      0.122000
     43 H05        -0.4820   -0.4760    1.2630 h1        1 NMB      0.099000
     44 H06         0.7600   -1.9300   -0.7240 h1        1 NMB      0.124000
     45 H07        -0.7820   -0.9190   -2.0630 h1        1 NMB      0.139000
     46 H081       -0.7540    2.4200   -0.2890 h1        1 NMB      0.116500
     47 H082       -2.0560    1.6070   -0.8180 h1        1 NMB      0.116500
     48 H10        -0.2790    4.3070   -1.6540 ha        1 NMB      0.151000
     49 H11        -0.2550    5.3910   -3.7340 ha        1 NMB      0.133125
     50 H12        -0.8930    4.2550   -5.6870 ha        1 NMB      0.133125
     51 H13        -1.5580    2.0090   -5.5420 ha        1 NMB      0.131000
     52 H14        -1.5920    0.8950   -3.4710 ha        1 NMB      0.146000
     53 H18         2.5880   -4.4200    2.2510 ha        1 NMB      0.142000
     54 H19         3.5100   -6.5900    1.8870 ha        1 NMB      0.133000
     55 H20         5.5580   -6.8190    0.7170 ha        1 NMB      0.133125
     56 H21         6.6720   -4.9040   -0.0800 ha        1 NMB      0.133125
     57 H22         5.7700   -2.7670    0.2750 ha        1 NMB      0.144000
     58 H231        3.3410    1.4460    1.5330 h1        1 NMB      0.119500
     59 H232        2.3700    2.4750    0.7990 h1        1 NMB      0.119500
     60 H25         0.3730    3.3140    1.9690 ha        1 NMB      0.135000
     61 H26        -0.5740    3.9590    4.0500 ha        1 NMB      0.138000
     62 H27         0.2390    2.9280    6.0110 ha        1 NMB      0.133125
     63 H28         1.9510    1.2920    5.9390 ha        1 NMB      0.133125
     64 H29         2.8980    0.6520    3.8280 ha        1 NMB      0.136000
     65 HO3        -0.3710   -1.8970    2.8170 ho        1 NMB      0.218000
     66 HO1        -0.5170   -3.5380   -0.7780 ho        1 NMB      0.230000
     67 H321       -2.5670   -1.5280   -0.3120 h1        1 NMB      0.100000
     68 H322       -2.4920    0.0960   -0.1640 h1        1 NMB      0.100000
     69 H35        -5.3860   -1.2700   -3.0520 ha        1 NMB      0.147000
     70 H36        -7.5410   -0.2950   -2.7900 ha        1 NMB      0.135000
     71 H37        -7.8270    1.5260   -1.3010 ha        1 NMB      0.133125
     72 H38        -6.0120    2.4220   -0.0440 ha        1 NMB      0.133125
     73 H39        -3.8810    1.4070   -0.3460 ha        1 NMB      0.136000
     74 H411        2.0010   -2.6060    0.3650 h1        1 NMB      0.117000
     75 H412        2.8820   -1.3850   -0.2370 h1        1 NMB      0.117000
@<TRIPOS>BOND
     1    1    2 1   
     2    1    7 1   
     3    1    8 1   
     4    2   15 1   
     5    2   40 1   
     6    3    4 1   
     7    3   23 1   
     8    4    5 1   
     9    4   41 1   
    10    4   42 1   
    11    5    6 1   
    12    5   30 1   
    13    5   43 1   
    14    6    7 1   
    15    6   31 1   
    16    6   44 1   
    17    7   32 1   
    18    7   45 1   
    19    8    9 1   
    20    8   46 1   
    21    8   47 1   
    22    9   10 1   
    23    9   14 1   
    24   10   48 1   
    25   11   12 1   
    26   11   49 1   
    27   12   50 1   
    28   13   14 1   
    29   13   51 1   
    30   14   52 1   
    31   16   17 1   
    32   16   41 1   
    33   17   18 1   
    34   17   22 1   
    35   18   19 1   
    36   18   53 1   
    37   19   54 1   
    38   20   21 1   
    39   20   55 1   
    40   21   56 1   
    41   22   57 1   
    42   23   24 1   
    43   23   58 1   
    44   23   59 1   
    45   24   25 1   
    46   24   29 1   
    47   25   26 1   
    48   25   60 1   
    49   26   61 1   
    50   27   28 1   
    51   27   62 1   
    52   28   63 1   
    53   29   64 1   
    54   30   65 1   
    55   31   66 1   
    56   32   33 1   
    57   32   67 1   
    58   32   68 1   
    59   33   34 1   
    60   34   35 1   
    61   34   39 1   
    62   35   36 1   
    63   35   69 1   
    64   36   70 1   
    65   37   38 1   
    66   37   71 1   
    67   38   72 1   
    68   39   73 1   
    69   41   74 1   
    70   41   75 1   
@<TRIPOS>SUBSTRUCTURE
     1 NMB         1 TEMP              0 ****  ****    0 ROOT
