@<TRIPOS>MOLECULE
NMB
   75    76     1     0     0
SMALL
bcc


@<TRIPOS>ATOM
      1 N01        -1.0700    0.1980    0.4830 n3        1 NMB     -0.711000
      2 S02         0.3120   -0.3070   -0.0510 s6        1 NMB      2.672000
      3 N03         1.5070    0.0730    1.4180 n3        1 NMB     -0.435000
      4 C04         1.3020    0.9570    2.3420 c2        1 NMB      0.130000
      5 C05        -0.9670   -1.6860    3.3990 c3        1 NMB     -0.009000
      6 C06        -1.8760   -0.6350    2.7460 c3        1 NMB      0.083000
      7 C07        -1.8690   -0.7020    1.2410 c2        1 NMB     -0.407000
      8 C08        -1.6470    1.4580    0.0520 c3        1 NMB      0.078000
      9 C09        -1.3720    2.6010    0.8910 c1        1 NMB     -0.202000
     10 C10         0.7280    5.2940   -0.1650 c2        1 NMB     -0.176000
     11 C11         0.8150    5.8700    1.0360 c2        1 NMB     -0.163000
     12 C12        -0.1340    5.7320    2.1180 c2        1 NMB     -0.085000
     13 C13        -1.0100    4.7330    2.3340 c2        1 NMB     -0.084000
     14 C14        -1.1880    3.5920    1.5440 c1        1 NMB     -0.104000
     15 O15         0.5290   -1.6830   -0.2050 o         1 NMB     -0.881500
     16 C17         4.3940    2.0910    3.8480 c2        1 NMB      0.089000
     17 C18         5.5040    2.9990    3.4030 c3        1 NMB     -0.105000
     18 C19         5.8580    3.9070    4.5510 c2        1 NMB     -0.152000
     19 C20         5.5810    3.6260    5.8440 c2        1 NMB     -0.153000
     20 C21         5.0740    2.2810    6.1600 c2        1 NMB     -0.029000
     21 C22         4.4370    1.7220    5.1350 c1        1 NMB     -0.301000
     22 C23         2.7160   -0.7520    1.3990 c3        1 NMB     -0.042000
     23 C24         2.6660   -1.9000    2.3440 c2        1 NMB     -0.107000
     24 C25         2.0290   -3.2110    1.9670 c3        1 NMB     -0.130000
     25 C26         2.9140   -4.3420    2.4190 c2        1 NMB     -0.117000
     26 C27         3.8170   -4.2350    3.4220 c2        1 NMB     -0.170000
     27 C28         3.7690   -3.0040    4.2250 c2        1 NMB     -0.053000
     28 C29         3.3230   -1.9830    3.4970 c1        1 NMB     -0.175000
     29 O30        -1.3450   -3.0090    3.0930 oh        1 NMB     -0.347000
     30 O31        -1.4380    0.6200    3.2650 oh        1 NMB     -0.373000
     31 C32        -2.7630   -1.6020    0.6970 c1        1 NMB     -0.155000
     32 O33        -2.8700   -1.6550   -0.6590 os        1 NMB     -0.191000
     33 C34        -3.8340   -2.6360   -1.0810 c3        1 NMB     -0.003000
     34 C35        -3.2910   -4.0180   -0.9280 c2        1 NMB     -0.090000
     35 C36        -3.5620   -4.9590   -1.8580 c2        1 NMB     -0.215000
     36 C37        -4.2870   -4.6110   -3.0530 c2        1 NMB     -0.005000
     37 C38        -4.6860   -3.3270   -3.2840 c2        1 NMB     -0.259000
     38 C39        -4.3890   -2.2570   -2.3950 c1        1 NMB     -0.056000
     39 O40         0.8810    0.4970   -1.0590 o         1 NMB     -0.881500
     40 C41         2.2110    1.3080    3.4900 c3        1 NMB     -0.053000
     41 H04         2.4440    0.3990    4.1180 h1        1 NMB      0.143500
     42 H05         0.3310    1.5200    2.3370 h4        1 NMB      0.215000
     43 H06        -1.0230   -1.5990    4.5170 h1        1 NMB      0.063500
     44 H07        -2.9340   -0.8240    3.0950 h1        1 NMB      0.103000
     45 H081       -2.7700    1.3060   -0.0090 h1        1 NMB      0.143000
     46 H082       -1.2760    1.6920   -0.9960 h1        1 NMB      0.143000
     47 H10        -0.0990    4.6300   -0.4530 ha        1 NMB      0.122500
     48 H11         1.4850    5.4600   -0.9440 ha        1 NMB      0.122500
     49 H12         1.6620    6.5430    1.2630 ha        1 NMB      0.123000
     50 H13        -0.1100    6.5620    2.8500 ha        1 NMB      0.129000
     51 H14        -1.6770    4.7790    3.2190 ha        1 NMB      0.143000
     52 H18         5.1400    3.6010    2.5280 hc        1 NMB      0.130500
     53 H19         6.4190    2.4350    3.0790 hc        1 NMB      0.130500
     54 H20         6.3910    4.8240    4.2610 ha        1 NMB      0.140000
     55 H21         5.8200    4.3110    6.6670 ha        1 NMB      0.144000
     56 H22         5.3220    1.8090    7.1150 ha        1 NMB      0.158000
     57 H231        3.6140   -0.1070    1.6390 h1        1 NMB      0.136000
     58 H232        2.8330   -1.1400    0.3430 h1        1 NMB      0.136000
     59 H25         1.9080   -3.2340    0.8480 hc        1 NMB      0.151500
     60 H26         1.0010   -3.3570    2.4070 hc        1 NMB      0.151500
     61 H27         2.7510   -5.2950    1.8940 ha        1 NMB      0.141000
     62 H28         4.4870   -5.0480    3.7260 ha        1 NMB      0.143000
     63 H29         3.9710   -3.0240    5.2990 ha        1 NMB      0.161000
     64 HO3        -1.8370   -2.9970    2.2550 ho        1 NMB      0.236000
     65 HO1        -2.0510    1.2820    2.9210 ho        1 NMB      0.212000
     66 H321       -2.8220    0.4260   -2.2870 ha        1 NMB      0.000500
     67 H322       -3.2400   -0.0980   -2.4050 ha        1 NMB      0.000500
     68 H35        -4.7490   -2.5760   -0.3930 h1        1 NMB      0.171000
     69 H36        -2.7030   -4.2130   -0.0190 ha        1 NMB      0.155000
     70 H37        -3.2200   -5.9990   -1.7460 ha        1 NMB      0.135000
     71 H38        -4.4820   -5.4160   -3.7800 ha        1 NMB      0.127000
     72 H39        -5.2140   -3.0660   -4.2160 ha        1 NMB      0.144000
     73 H411        0.0990   -1.5320    3.0780 h1        1 NMB      0.063500
     74 H412        1.7390    2.1030    4.1260 h1        1 NMB      0.143500
     75 O16         3.4290    1.8190    2.9190 os        1 NMB     -0.194000
@<TRIPOS>BOND
     1    1    2 1   
     2    1    7 1   
     3    1    8 1   
     4    2    3 1   
     5    2   15 1   
     6    2   39 1   
     7    3    4 1   
     8    3   22 1   
     9    4   40 1   
    10    4   42 1   
    11    5    6 1   
    12    5   29 1   
    13    5   43 1   
    14    5   73 1   
    15    6    7 1   
    16    6   30 1   
    17    6   44 1   
    18    7   31 1   
    19    8    9 1   
    20    8   45 1   
    21    8   46 1   
    22    9   14 1   
    23   10   11 1   
    24   10   47 1   
    25   10   48 1   
    26   11   12 1   
    27   11   49 1   
    28   12   13 1   
    29   12   50 1   
    30   13   14 1   
    31   13   51 1   
    32   16   17 1   
    33   16   21 1   
    34   16   75 1   
    35   17   18 1   
    36   17   52 1   
    37   17   53 1   
    38   18   19 1   
    39   18   54 1   
    40   19   20 1   
    41   19   55 1   
    42   20   21 1   
    43   20   56 1   
    44   22   23 1   
    45   22   57 1   
    46   22   58 1   
    47   23   24 1   
    48   23   28 1   
    49   24   25 1   
    50   24   59 1   
    51   24   60 1   
    52   25   26 1   
    53   25   61 1   
    54   26   27 1   
    55   26   62 1   
    56   27   28 1   
    57   27   63 1   
    58   29   64 1   
    59   30   65 1   
    60   31   32 1   
    61   32   33 1   
    62   33   34 1   
    63   33   38 1   
    64   33   68 1   
    65   34   35 1   
    66   34   69 1   
    67   35   36 1   
    68   35   70 1   
    69   36   37 1   
    70   36   71 1   
    71   37   38 1   
    72   37   72 1   
    73   40   41 1   
    74   40   74 1   
    75   40   75 1   
    76   66   67 1   
@<TRIPOS>SUBSTRUCTURE
     1 NMB         1 TEMP              0 ****  ****    0 ROOT
