@<TRIPOS>MOLECULE
NMC
   19    19     1     0     0
SMALL
bcc


@<TRIPOS>ATOM
      1 N          -0.0710   -1.0730   -0.0160 n3        1 NMC     -0.807200
      2 CA         -0.4690   -0.3620    1.1870 c3        1 NMC      0.021800
      3 C          -0.0280    1.1200    1.2930 c         1 NMC      0.885600
      4 O           0.9210    1.5280    0.5600 o         1 NMC     -0.851300
      5 CN         -0.8910   -0.7430   -1.1730 c3        1 NMC      0.188800
      6 CX1        -0.1090   -0.5700   -2.4530 cx        1 NMC     -0.137700
      7 CX2        -0.3730    0.6350   -3.3180 cx        1 NMC     -0.140900
      8 CX3         0.9010    0.5430   -2.5310 cx        1 NMC     -0.140900
      9 OXT        -0.6380    1.8440    2.1290 o         1 NMC     -0.851300
     10 H           0.8860   -0.8170   -0.2120 hn        1 NMC      0.361800
     11 HA1        -0.0030   -0.9100    2.0520 h1        1 NMC      0.032200
     12 HA2        -1.5840   -0.4140    1.3050 h1        1 NMC      0.032200
     13 HCN1       -1.6190   -1.5940   -1.3080 h1        1 NMC      0.025200
     14 HCN2       -1.5020    0.1920   -1.0000 h1        1 NMC      0.025200
     15 HCX1        0.1230   -1.5290   -2.9530 hc        1 NMC      0.057700
     16 HC21       -0.3410    0.5170   -4.4150 hc        1 NMC      0.075200
     17 HC22       -1.1410    1.3630   -3.0030 hc        1 NMC      0.075200
     18 HC31        1.0350    1.1850   -1.6310 hc        1 NMC      0.075200
     19 HC32        1.8480    0.3680   -3.0690 hc        1 NMC      0.075200
@<TRIPOS>BOND
     1    1    2 1   
     2    1    5 1   
     3    1   10 1   
     4    2    3 1   
     5    2   11 1   
     6    2   12 1   
     7    3    4 1   
     8    3    9 1   
     9    5    6 1   
    10    5   13 1   
    11    5   14 1   
    12    6    7 1   
    13    6    8 1   
    14    6   15 1   
    15    7    8 1   
    16    7   16 1   
    17    7   17 1   
    18    8   18 1   
    19    8   19 1   
@<TRIPOS>SUBSTRUCTURE
     1 NMC         1 TEMP              0 ****  ****    0 ROOT
