@<TRIPOS>MOLECULE
NMD
   72    68     1     0     0
SMALL
bcc


@<TRIPOS>ATOM
      1 C5'        -5.4360    2.4580   -2.9990 c3        1 NMD     -0.031000
      2 C4'        -3.8690    2.4390   -2.9570 c3        1 NMD     -0.053000
      3 O4'        -3.4450    2.4010   -1.7230 os        1 NMD     -0.277000
      4 C3'        -3.3440    1.1820   -3.5890 c3        1 NMD     -0.017000
      5 O3'        -2.7460    1.4630   -4.7820 oh        1 NMD     -0.320000
      6 C2'        -2.2880    0.6010   -2.5630 c3        1 NMD      0.002000
      7 N2'        -0.9670    0.2520   -3.2910 n         1 NMD     -0.351000
      8 C1'        -2.0980    1.5220   -1.7390 c3        1 NMD      0.150000
      9 N9A        -1.8540    0.9640   -0.4250 n3        1 NMD     -0.194000
     10 C8A        -2.1180   -0.2550    0.0930 c1        1 NMD     -0.047000
     11 N7A        -1.6520   -0.2770    1.3830 n2        1 NMD     -0.107000
     12 C5A        -1.1080    0.9170    1.6470 c1        1 NMD     -0.241000
     13 C6A        -0.5310    1.4370    2.7800 c1        1 NMD      0.240000
     14 N6A        -0.3970    0.6050    4.0300 n3        1 NMD     -0.305000
     15 N1A        -0.0870    2.7150    2.7850 n1        1 NMD     -0.269000
     16 C2A        -0.2100    3.4840    1.6690 c1        1 NMD      0.025000
     17 N3A        -0.7880    2.9620    0.5320 n1        1 NMD     -0.211000
     18 C4A        -1.2310    1.6950    0.5230 c1        1 NMD      0.081000
     19 C11         0.3570    1.0850    5.1180 c3        1 NMD      0.022000
     20 C1          0.3600    0.0170    6.2670 c2        1 NMD     -0.096000
     21 C9          1.4730   -0.5010    6.9960 c2        1 NMD     -0.022000
     22 C8          2.7970   -0.1420    6.6260 c2        1 NMD     -0.125000
     23 C7          3.8710   -0.6430    7.3320 c1        1 NMD     -0.120000
     24 C6          3.6550   -1.5020    8.4090 c1        1 NMD     -0.121500
     25 C2         -0.9260   -0.3340    6.6300 c1        1 NMD     -0.102000
     26 C10         1.2660   -1.3350    8.0400 c1        1 NMD     -0.041000
     27 C5          2.3690   -1.8500    8.7660 c1        1 NMD     -0.121500
     28 C3         -1.1380   -1.1990    7.7140 c1        1 NMD     -0.134000
     29 C4         -0.0700   -1.6970    8.4140 c2        1 NMD     -0.106000
     30 C7B        -0.8650   -0.9700   -4.0450 c2        1 NMD      0.351000
     31 O7B        -1.7900   -1.7030   -4.1080 o         1 NMD     -0.353000
     32 C6B         0.5100   -1.3750   -4.7110 c2        1 NMD     -0.057000
     33 C5B         1.0700   -2.6520   -4.4610 c2        1 NMD     -0.139000
     34 C4B         2.2630   -3.0250   -5.0870 c1        1 NMD      0.109000
     35 O2M         2.7630   -4.3660   -4.9360 o         1 NMD     -0.202000
     36 C2M         3.9030   -4.4630   -4.1220 c3        1 NMD     -0.078000
     37 C3B         2.9070   -2.1270   -5.9690 c2        1 NMD     -0.259000
     38 C1B         1.1550   -0.4820   -5.5900 c1        1 NMD     -0.172000
     39 C2B         2.3460   -0.8540   -6.2170 c1        1 NMD      0.109000
     40 O1M         2.9730    0.0400   -7.1640 os        1 NMD     -0.207000
     41 C1M         3.9010    0.9630   -6.5650 c3        1 NMD     -0.077000
     42 O5'        -5.8920    3.7630   -2.7950 oh        1 NMD     -0.317000
     43 H5'1       -5.7870    1.8770   -2.2940 h1        1 NMD      0.088000
     44 H5'2       -5.7450    2.1360   -3.8710 h1        1 NMD      0.088000
     45 H4'        -3.5090    3.2190   -3.4100 h1        1 NMD      0.132000
     46 H3'        -4.0750    0.5410   -3.7180 h1        1 NMD      0.104000
     47 HO3'       -3.3390    1.2880   -5.4730 ho        1 NMD      0.214000
     48 H2'        -2.6360   -0.1600   -2.1280 h1        1 NMD      0.146000
     49 HN2'       -0.2260    0.7750   -3.1680 hn        1 NMD      0.244000
     50 H1'        -1.3550    2.0610   -2.0110 h2        1 NMD      0.163000
     51 H8A        -2.5620   -0.9640   -0.3510 DU        1 NMD      0.200000
     52 H6A        -0.7960   -0.1890    4.0820 hn        1 NMD      0.259000
     53 H2A         0.1120    4.4070    1.6750 ha        1 NMD      0.188000
     54 H111        1.2780    1.2570    4.8290 h1        1 NMD      0.100500
     55 H112       -0.0380    1.9100    5.4440 h1        1 NMD      0.100500
     56 H8          2.9540    0.4890    5.8390 ha        1 NMD      0.139000
     57 H7          4.8000   -0.3900    7.0740 ha        1 NMD      0.136000
     58 H6          4.4370   -1.8680    8.9260 ha        1 NMD      0.133500
     59 H2         -1.6820    0.0190    6.1360 ha        1 NMD      0.138000
     60 H5          2.2230   -2.4350    9.4980 ha        1 NMD      0.133500
     61 H3         -2.0660   -1.4530    7.9770 ha        1 NMD      0.136000
     62 H4         -0.2150   -2.2820    9.1470 ha        1 NMD      0.134000
     63 H5B         0.5870   -3.2910   -3.9410 ha        1 NMD      0.173000
     64 H2M1        4.5690   -3.8530   -4.4340 h1        1 NMD      0.085667
     65 H2M2        3.6560   -4.2350   -3.1650 h1        1 NMD      0.085667
     66 H2M3        4.2610   -5.3960   -4.1620 h1        1 NMD      0.085667
     67 H3B         3.7510   -2.3890   -6.4110 ha        1 NMD      0.147000
     68 H1B         0.7800    0.3710   -5.7570 ha        1 NMD      0.157000
     69 H1M1        4.6330    0.4790   -6.1920 h1        1 NMD      0.086000
     70 H1M2        4.2370    1.5910   -7.2550 h1        1 NMD      0.086000
     71 H1M3        3.4430    1.4730   -5.8510 h1        1 NMD      0.086000
     72 HO5'       -6.7790    3.8000   -2.9570 ho        1 NMD      0.218000
@<TRIPOS>BOND
     1    1    2 1   
     2    1   42 1   
     3    1   43 1   
     4    1   44 1   
     5    2    3 1   
     6    2    4 1   
     7    2   45 1   
     8    3    8 1   
     9    4    5 1   
    10    4    6 1   
    11    4   46 1   
    12    5   47 1   
    13    6    7 1   
    14    6    8 1   
    15    6   48 1   
    16    7   30 1   
    17    7   49 1   
    18    8    9 1   
    19    8   50 1   
    20    9   10 1   
    21    9   18 1   
    22   10   11 1   
    23   11   12 1   
    24   12   18 1   
    25   13   14 1   
    26   13   15 1   
    27   14   19 1   
    28   14   52 1   
    29   16   17 1   
    30   16   53 1   
    31   19   20 1   
    32   19   54 1   
    33   19   55 1   
    34   20   21 1   
    35   20   25 1   
    36   21   22 1   
    37   21   26 1   
    38   22   23 1   
    39   22   56 1   
    40   23   57 1   
    41   24   27 1   
    42   24   58 1   
    43   25   59 1   
    44   26   29 1   
    45   27   60 1   
    46   28   29 1   
    47   28   61 1   
    48   29   62 1   
    49   30   31 1   
    50   30   32 1   
    51   32   33 1   
    52   32   38 1   
    53   33   34 1   
    54   33   63 1   
    55   34   37 1   
    56   35   36 1   
    57   36   64 1   
    58   36   65 1   
    59   36   66 1   
    60   37   39 1   
    61   37   67 1   
    62   38   68 1   
    63   39   40 1   
    64   40   41 1   
    65   41   69 1   
    66   41   70 1   
    67   41   71 1   
    68   42   72 1   
@<TRIPOS>SUBSTRUCTURE
     1 NMD         1 TEMP              0 ****  ****    0 ROOT
