@<TRIPOS>MOLECULE
NMD
   73    78     1     0     0
SMALL
bcc


@<TRIPOS>ATOM
      1 C5'        -0.1720   -1.0540    0.4400 c3        1 NMD      0.114400
      2 C4'         1.2110   -0.5090    0.0660 c3        1 NMD      0.074100
      3 O4'         1.8930   -0.1330    1.2760 os        1 NMD     -0.392600
      4 C3'         2.0600   -1.5610   -0.6750 c3        1 NMD      0.113100
      5 O3'         2.8340   -0.9750   -1.7040 oh        1 NMD     -0.622800
      6 C2'         3.0210   -2.0850    0.4220 c3        1 NMD      0.073500
      7 N2'         4.3540   -2.5380   -0.0410 n4        1 NMD     -0.684800
      8 C1'         3.1160   -0.8640    1.4200 c3        1 NMD      0.270800
      9 N9A         3.2950   -1.2670    2.7850 na        1 NMD     -0.312000
     10 C8A         2.6020   -0.8200    3.9490 cc        1 NMD      0.440700
     11 N7A         3.1800   -1.2190    5.0860 nd        1 NMD     -0.512100
     12 C5A         4.3200   -1.9430    4.6970 ca        1 NMD     -0.218200
     13 C6A         5.3540   -2.6210    5.4420 ca        1 NMD      0.782200
     14 N6A         5.3180   -2.6410    6.7990 nh        1 NMD     -0.817900
     15 N1A         6.3680   -3.2460    4.7270 nb        1 NMD     -0.776000
     16 C2A         6.3270   -3.1960    3.3820 ca        1 NMD      0.732900
     17 N3A         5.4160   -2.6010    2.5620 nb        1 NMD     -0.880000
     18 C4A         4.4190   -1.9720    3.2520 ca        1 NMD      0.452800
     19 C11         6.3220   -3.2990    7.6090 c3        1 NMD      0.259100
     20 C1          5.9740   -3.2760    9.0690 ca        1 NMD     -0.127300
     21 C9          6.1370   -2.0850    9.8380 ca        1 NMD     -0.019000
     22 C8          6.6110   -0.8640    9.2830 ca        1 NMD     -0.140000
     23 C7          6.7520    0.2570   10.0640 ca        1 NMD     -0.109000
     24 C6          6.4280    0.2190   11.4410 ca        1 NMD     -0.125000
     25 C2          5.5180   -4.4320    9.6640 ca        1 NMD     -0.090000
     26 C10         5.8200   -2.1210   11.2230 ca        1 NMD     -0.043000
     27 C5          5.9730   -0.9450   12.0080 ca        1 NMD     -0.107000
     28 C3          5.2100   -4.4630   11.0430 ca        1 NMD     -0.138000
     29 C4          5.3550   -3.3310   11.8070 ca        1 NMD     -0.089000
     30 C7B         4.3400   -3.8650   -0.7580 c         1 NMD      0.581700
     31 O7B         3.2780   -4.4740   -0.7940 o         1 NMD     -0.434100
     32 C6B         5.6240   -4.2630   -1.3570 ca        1 NMD     -0.124600
     33 C5B         6.8460   -3.9290   -0.7650 ca        1 NMD     -0.156000
     34 C4B         8.0350   -4.3580   -1.3830 ca        1 NMD      0.177100
     35 O2M         9.1810   -3.9840   -0.7250 os        1 NMD     -0.313900
     36 C2M        10.4190   -4.4120   -1.2920 c3        1 NMD      0.107200
     37 C3B         8.0100   -5.1010   -2.5720 ca        1 NMD     -0.233000
     38 C1B         5.5650   -5.0140   -2.5320 ca        1 NMD     -0.156000
     39 C2B         6.7720   -5.4250   -3.1370 ca        1 NMD      0.177100
     40 O1M         6.6070   -6.1450   -4.2940 os        1 NMD     -0.313900
     41 C1M         7.7920   -6.6250   -4.9290 c3        1 NMD      0.107200
     42 O5'        -0.8890   -1.3480   -0.7380 oh        1 NMD     -0.590800
     43 H5'1       -0.7050   -0.3150    1.0910 h1        1 NMD      0.072200
     44 H5'2       -0.0760   -2.0310    0.9860 h1        1 NMD      0.072200
     45 H4'         1.1210    0.4320   -0.5420 h1        1 NMD      0.096700
     46 H3'         1.4170   -2.3900   -1.0820 h1        1 NMD      0.113700
     47 HO3'        2.2330   -0.7550   -2.4290 ho        1 NMD      0.450000
     48 H2'         2.5170   -2.9640    0.9280 hx        1 NMD      0.140700
     49 HN2'        4.9890   -2.6270    0.8110 hn        1 NMD      0.497300
     50 H1'         3.9550   -0.1630    1.1180 h2        1 NMD      0.090700
     51 H8A         1.6890   -0.2160    3.8550 h5        1 NMD      0.098800
     52 H6A         4.5770   -2.1590    7.2630 hn        1 NMD      0.476800
     53 H2A         7.1670   -3.7150    2.8670 h5        1 NMD      0.059100
     54 H111        6.4260   -4.3690    7.2590 h1        1 NMD      0.071700
     55 H112        7.3200   -2.7940    7.4440 h1        1 NMD      0.071700
     56 H8          6.8740   -0.8220    8.2160 ha        1 NMD      0.129000
     57 H7          7.1210    1.1980    9.6290 ha        1 NMD      0.137000
     58 H6          6.5490    1.1310   12.0460 ha        1 NMD      0.142000
     59 H2          5.3910   -5.3540    9.0740 ha        1 NMD      0.136000
     60 H5          5.7220   -0.9910   13.0790 ha        1 NMD      0.141000
     61 H3          4.8540   -5.4030   11.4910 ha        1 NMD      0.144000
     62 H4          5.1170   -3.3410   12.8820 ha        1 NMD      0.143000
     63 H5B         6.9250   -3.3750    0.1820 ha        1 NMD      0.168500
     64 H2M1       11.1790   -4.0000   -0.5790 h1        1 NMD      0.060200
     65 H2M2       10.4700   -5.5270   -1.3250 h1        1 NMD      0.060200
     66 H2M3       10.5540   -3.9740   -2.3110 h1        1 NMD      0.060200
     67 H3B         8.9470   -5.4280   -3.0470 ha        1 NMD      0.167000
     68 H1B         4.6040   -5.2970   -2.9890 ha        1 NMD      0.168500
     69 H1M1        8.3520   -7.3100   -4.2480 h1        1 NMD      0.060200
     70 H1M2        7.3930   -7.1830   -5.8150 h1        1 NMD      0.060200
     71 H1M3        8.4340   -5.7710   -5.2550 h1        1 NMD      0.060200
     72 HO5'       -1.3680   -0.5510   -1.0010 ho        1 NMD      0.418000
     73 H2'2        4.7470   -1.8360   -0.6810 hn        1 NMD      0.497300
@<TRIPOS>BOND
     1    1    2 1   
     2    1   42 1   
     3    1   43 1   
     4    1   44 1   
     5    2    3 1   
     6    2    4 1   
     7    2   45 1   
     8    3    8 1   
     9    4    5 1   
    10    4    6 1   
    11    4   46 1   
    12    5   47 1   
    13    6    7 1   
    14    6    8 1   
    15    6   48 1   
    16    7   30 1   
    17    7   49 1   
    18    7   73 1   
    19    8    9 1   
    20    8   50 1   
    21    9   10 1   
    22    9   18 1   
    23   10   11 2   
    24   10   51 1   
    25   11   12 1   
    26   12   13 ar  
    27   12   18 ar  
    28   13   14 1   
    29   13   15 ar  
    30   14   19 1   
    31   14   52 1   
    32   15   16 ar  
    33   16   17 ar  
    34   16   53 1   
    35   17   18 ar  
    36   19   20 1   
    37   19   54 1   
    38   19   55 1   
    39   20   21 ar  
    40   20   25 ar  
    41   21   22 ar  
    42   21   26 ar  
    43   22   23 ar  
    44   22   56 1   
    45   23   24 ar  
    46   23   57 1   
    47   24   27 ar  
    48   24   58 1   
    49   25   28 ar  
    50   25   59 1   
    51   26   27 ar  
    52   26   29 ar  
    53   27   60 1   
    54   28   29 ar  
    55   28   61 1   
    56   29   62 1   
    57   30   31 2   
    58   30   32 1   
    59   32   33 ar  
    60   32   38 ar  
    61   33   34 ar  
    62   33   63 1   
    63   34   35 1   
    64   34   37 ar  
    65   35   36 1   
    66   36   64 1   
    67   36   65 1   
    68   36   66 1   
    69   37   39 ar  
    70   37   67 1   
    71   38   39 ar  
    72   38   68 1   
    73   39   40 1   
    74   40   41 1   
    75   41   69 1   
    76   41   70 1   
    77   41   71 1   
    78   42   72 1   
@<TRIPOS>SUBSTRUCTURE
     1 NMD         1 TEMP              0 ****  ****    0 ROOT
