@<TRIPOS>MOLECULE
NMD
   73    78     1     0     0
SMALL
bcc


@<TRIPOS>ATOM
      1 C5'        -0.2200   -1.0550    0.2750 c3        1 NMD      0.123400
      2 C4'         1.1990   -0.5640   -0.0300 c3        1 NMD      0.061100
      3 O4'         1.8330   -0.2230    1.2190 os        1 NMD     -0.402600
      4 C3'         2.0550   -1.6250   -0.7440 c3        1 NMD      0.114100
      5 O3'         2.8450   -1.0540   -1.7710 oh        1 NMD     -0.621800
      6 C2'         3.0050   -2.1420    0.3680 c3        1 NMD      0.074500
      7 N2'         4.3460   -2.5870   -0.0780 ny        1 NMD     -0.685800
      8 C1'         3.0750   -0.9210    1.3660 c3        1 NMD      0.272800
      9 N9A         3.2570   -1.3170    2.7330 na        1 NMD     -0.311000
     10 C8A         2.5610   -0.8650    3.8930 cc        1 NMD      0.440700
     11 N7A         3.1410   -1.2500    5.0330 nd        1 NMD     -0.509100
     12 C5A         4.2870   -1.9690    4.6520 ca        1 NMD     -0.219200
     13 C6A         5.3250   -2.6330    5.4030 ca        1 NMD      0.782200
     14 N6A         5.2890   -2.6400    6.7600 nu        1 NMD     -0.815900
     15 N1A         6.3440   -3.2570    4.6940 nb        1 NMD     -0.775000
     16 C2A         6.3030   -3.2200    3.3490 ca        1 NMD      0.733900
     17 N3A         5.3880   -2.6380    2.5230 nb        1 NMD     -0.882000
     18 C4A         4.3860   -2.0100    3.2070 ca        1 NMD      0.453800
     19 C11         6.2970   -3.2840    7.5770 c3        1 NMD      0.259100
     20 C1          5.9480   -3.2480    9.0360 ca        1 NMD     -0.128300
     21 C9          6.1040   -2.0500    9.7940 ca        1 NMD     -0.019000
     22 C8          6.5710   -0.8310    9.2270 ca        1 NMD     -0.140000
     23 C7          6.7050    0.2990    9.9970 ca        1 NMD     -0.109000
     24 C6          6.3810    0.2720   11.3740 ca        1 NMD     -0.125000
     25 C2          5.4980   -4.4020    9.6430 ca        1 NMD     -0.090000
     26 C10         5.7860   -2.0740   11.1780 ca        1 NMD     -0.043000
     27 C5          5.9330   -0.8890   11.9520 ca        1 NMD     -0.107000
     28 C3          5.1900   -4.4200   11.0220 ca        1 NMD     -0.138000
     29 C4          5.3280   -3.2810   11.7740 ca        1 NMD     -0.089000
     30 C7B         4.3430   -3.9040   -0.8140 c         1 NMD      0.583700
     31 O7B         3.2770   -4.5020   -0.8890 o         1 NMD     -0.440100
     32 C6B         5.6390   -4.3060   -1.3830 ca        1 NMD     -0.124600
     33 C5B         6.8500   -3.9730   -0.7680 ca        1 NMD     -0.155500
     34 C4B         8.0500   -4.4060   -1.3610 ca        1 NMD      0.177100
     35 O2M         9.1830   -4.0330   -0.6800 os        1 NMD     -0.313900
     36 C2M        10.4320   -4.4620   -1.2230 c3        1 NMD      0.107200
     37 C3B         8.0480   -5.1530   -2.5490 ca        1 NMD     -0.232000
     38 C1B         5.6030   -5.0600   -2.5580 ca        1 NMD     -0.155500
     39 C2B         6.8210   -5.4750   -3.1380 ca        1 NMD      0.177100
     40 O1M         6.6770   -6.1970   -4.2950 os        1 NMD     -0.313900
     41 C1M         7.8740   -6.6780   -4.9080 c3        1 NMD      0.107200
     42 O5'        -1.0600    0.0290    0.5870 oh        1 NMD     -0.570800
     43 H5'1       -0.6720   -1.5140   -0.6460 h1        1 NMD      0.065700
     44 H5'2       -0.1970   -1.8050    1.1090 h1        1 NMD      0.065700
     45 H4'         1.1590    0.3950   -0.6210 h1        1 NMD      0.109700
     46 H3'         1.4340   -2.4670   -1.1550 h1        1 NMD      0.097700
     47 HO3'        2.2450   -0.7300   -2.4570 ho        1 NMD      0.452000
     48 H2'         2.5010   -3.0240    0.8680 hx        1 NMD      0.139700
     49 HN2'        4.9680   -2.6870    0.7860 hn        1 NMD      0.497800
     50 H1'         3.9000   -0.2040    1.0630 h2        1 NMD      0.089700
     51 H8A         1.6440   -0.2690    3.7950 h5        1 NMD      0.097800
     52 H6A         4.5440   -2.1590    7.2190 hn        1 NMD      0.476800
     53 H2A         7.1470   -3.7370    2.8390 h5        1 NMD      0.060100
     54 H111        6.4080   -4.3560    7.2370 h1        1 NMD      0.072200
     55 H112        7.2910   -2.7740    7.4060 h1        1 NMD      0.072200
     56 H8          6.8340   -0.7970    8.1600 ha        1 NMD      0.129000
     57 H7          7.0690    1.2380    9.5530 ha        1 NMD      0.138000
     58 H6          6.4970    1.1900   11.9710 ha        1 NMD      0.142000
     59 H2          5.3780   -5.3300    9.0610 ha        1 NMD      0.136000
     60 H5          5.6810   -0.9260   13.0240 ha        1 NMD      0.141000
     61 H3          4.8390   -5.3580   11.4780 ha        1 NMD      0.144000
     62 H4          5.0890   -3.2810   12.8490 ha        1 NMD      0.143000
     63 H5B         6.9120   -3.4170    0.1780 ha        1 NMD      0.168000
     64 H2M1       10.4830   -5.5770   -1.2540 h1        1 NMD      0.060367
     65 H2M2       10.5860   -4.0260   -2.2400 h1        1 NMD      0.060367
     66 H2M3       11.1780   -4.0490   -0.4960 h1        1 NMD      0.060367
     67 H3B         8.9930   -5.4820   -3.0040 ha        1 NMD      0.167000
     68 H1B         4.6500   -5.3410   -3.0340 ha        1 NMD      0.168000
     69 H1M1        8.4210   -7.3630   -4.2160 h1        1 NMD      0.060367
     70 H1M2        7.4920   -7.2370   -5.8010 h1        1 NMD      0.060367
     71 H1M3        8.5220   -5.8250   -5.2220 h1        1 NMD      0.060367
     72 HO5'       -0.7600    0.3990    1.4280 ho        1 NMD      0.416000
     73 H2'2        4.7500   -1.8770   -0.7010 hn        1 NMD      0.497800
@<TRIPOS>BOND
     1    1    2 1   
     2    1   42 1   
     3    1   43 1   
     4    1   44 1   
     5    2    3 1   
     6    2    4 1   
     7    2   45 1   
     8    3    8 1   
     9    4    5 1   
    10    4    6 1   
    11    4   46 1   
    12    5   47 1   
    13    6    7 1   
    14    6    8 1   
    15    6   48 1   
    16    7   30 1   
    17    7   49 1   
    18    7   73 1   
    19    8    9 1   
    20    8   50 1   
    21    9   10 1   
    22    9   18 1   
    23   10   11 2   
    24   10   51 1   
    25   11   12 1   
    26   12   13 ar  
    27   12   18 ar  
    28   13   14 1   
    29   13   15 ar  
    30   14   19 1   
    31   14   52 1   
    32   15   16 ar  
    33   16   17 ar  
    34   16   53 1   
    35   17   18 ar  
    36   19   20 1   
    37   19   54 1   
    38   19   55 1   
    39   20   21 ar  
    40   20   25 ar  
    41   21   22 ar  
    42   21   26 ar  
    43   22   23 ar  
    44   22   56 1   
    45   23   24 ar  
    46   23   57 1   
    47   24   27 ar  
    48   24   58 1   
    49   25   28 ar  
    50   25   59 1   
    51   26   27 ar  
    52   26   29 ar  
    53   27   60 1   
    54   28   29 ar  
    55   28   61 1   
    56   29   62 1   
    57   30   31 2   
    58   30   32 1   
    59   32   33 ar  
    60   32   38 ar  
    61   33   34 ar  
    62   33   63 1   
    63   34   35 1   
    64   34   37 ar  
    65   35   36 1   
    66   36   64 1   
    67   36   65 1   
    68   36   66 1   
    69   37   39 ar  
    70   37   67 1   
    71   38   39 ar  
    72   38   68 1   
    73   39   40 1   
    74   40   41 1   
    75   41   69 1   
    76   41   70 1   
    77   41   71 1   
    78   42   72 1   
@<TRIPOS>SUBSTRUCTURE
     1 NMD         1 TEMP              0 ****  ****    0 ROOT
