@<TRIPOS>MOLECULE
NMD
   72    77     1     0     0
SMALL
bcc


@<TRIPOS>ATOM
      1 C5'        -4.9670    0.7760    1.6300 c3        1 NMD      0.119400
      2 C4'        -4.1950   -0.3200    2.3650 c3        1 NMD      0.058100
      3 O4'        -3.4490   -1.0880    1.4140 os        1 NMD     -0.421600
      4 C3'        -3.2110    0.2520    3.3980 c3        1 NMD      0.094100
      5 O3'        -3.1350   -0.5760    4.5440 oh        1 NMD     -0.590800
      6 C2'        -1.8390    0.2470    2.6580 c3        1 NMD      0.078700
      7 N2'        -0.6790    0.0140    3.4580 n         1 NMD     -0.543900
      8 C1'        -2.0330   -0.8560    1.5430 c3        1 NMD      0.241800
      9 N9A        -1.4720   -0.4850    0.2730 na        1 NMD     -0.277000
     10 C8A        -1.7260    0.6860   -0.4900 cc        1 NMD      0.409700
     11 N7A        -1.1750    0.6660   -1.7100 nd        1 NMD     -0.535100
     12 C5A        -0.5360   -0.5810   -1.8020 ca        1 NMD     -0.231200
     13 C6A         0.2320   -1.2070   -2.8430 ca        1 NMD      0.761200
     14 N6A         0.4210   -0.5520   -4.0350 nh        1 NMD     -0.861900
     15 N1A         0.7430   -2.4650   -2.6190 nb        1 NMD     -0.795000
     16 C2A         0.4840   -3.0450   -1.4180 ca        1 NMD      0.687900
     17 N3A        -0.2160   -2.5820   -0.3550 nb        1 NMD     -0.738000
     18 C4A        -0.7260   -1.3320   -0.5680 ca        1 NMD      0.471800
     19 C11         1.2500   -1.0870   -5.0870 c3        1 NMD      0.266100
     20 C1          1.4140   -0.1320   -6.2360 ca        1 NMD     -0.104300
     21 C9          0.3610    0.0650   -7.1790 ca        1 NMD     -0.020000
     22 C8         -0.8970   -0.5930   -7.0790 ca        1 NMD     -0.122000
     23 C7         -1.8820   -0.3740   -8.0100 ca        1 NMD     -0.122000
     24 C6         -1.6640    0.5120   -9.0920 ca        1 NMD     -0.126000
     25 C2          2.6110    0.5360   -6.3850 ca        1 NMD     -0.105000
     26 C10         0.5770    0.9520   -8.2680 ca        1 NMD     -0.042000
     27 C5         -0.4610    1.1600   -9.2180 ca        1 NMD     -0.117000
     28 C3          2.8200    1.4160   -7.4720 ca        1 NMD     -0.134000
     29 C4          1.8250    1.6210   -8.3940 ca        1 NMD     -0.106000
     30 C7B         0.2370    1.0240    3.7230 c         1 NMD      0.678700
     31 O7B         0.1390    2.1430    3.1830 o         1 NMD     -0.592100
     32 C6B         1.3450    0.6940    4.6680 ca        1 NMD     -0.080600
     33 C5B         1.9670   -0.5540    4.6420 ca        1 NMD     -0.153500
     34 C4B         3.0160   -0.8070    5.5440 ca        1 NMD      0.152100
     35 O2M         3.5640   -2.0700    5.4430 os        1 NMD     -0.321400
     36 C2M         4.6620   -2.3550    6.3030 c3        1 NMD      0.112700
     37 C3B         3.4390    0.1610    6.4620 ca        1 NMD     -0.258000
     38 C1B         1.7510    1.6860    5.5620 ca        1 NMD     -0.153500
     39 C2B         2.7980    1.4060    6.4580 ca        1 NMD      0.152100
     40 O1M         3.1160    2.4440    7.3110 os        1 NMD     -0.321400
     41 C1M         4.2070    2.2240    8.1970 c3        1 NMD      0.112700
     42 O5'        -5.9040    0.2250    0.7330 oh        1 NMD     -0.590800
     43 H5'1       -5.5760    1.3790    2.3560 h1        1 NMD      0.048700
     44 H5'2       -4.2530    1.4480    1.0820 h1        1 NMD      0.048700
     45 H4'        -4.9110   -1.0520    2.8320 h1        1 NMD      0.092700
     46 H3'        -3.4870    1.2980    3.6970 h1        1 NMD      0.065700
     47 HO3'       -3.9900   -0.5140    4.9890 ho        1 NMD      0.415000
     48 H2'        -1.7350    1.2640    2.1680 h1        1 NMD      0.106700
     49 HN2'       -0.6990   -0.7850    4.0510 hn        1 NMD      0.330500
     50 H1'        -1.5900   -1.8520    1.8490 h2        1 NMD      0.121700
     51 H8A        -2.3070    1.5190   -0.0760 h5        1 NMD      0.070800
     52 H6A         0.0780    0.3770   -4.1190 hn        1 NMD      0.463800
     53 H2A         0.9170   -4.0610   -1.2930 h5        1 NMD      0.051100
     54 H111        2.2680   -1.3440   -4.6670 h1        1 NMD      0.061200
     55 H112        0.7960   -2.0520   -5.4600 h1        1 NMD      0.061200
     56 H8         -1.0770   -1.2840   -6.2410 ha        1 NMD      0.143000
     57 H7         -2.8530   -0.8850   -7.9250 ha        1 NMD      0.135000
     58 H6         -2.4690    0.6710   -9.8250 ha        1 NMD      0.134000
     59 H2          3.4250    0.3910   -5.6570 ha        1 NMD      0.137000
     60 H5         -0.2780    1.8510  -10.0550 ha        1 NMD      0.133000
     61 H3          3.7880    1.9310   -7.5620 ha        1 NMD      0.136000
     62 H4          1.9740    2.3040   -9.2440 ha        1 NMD      0.134000
     63 H5B         1.6770   -1.3370    3.9260 ha        1 NMD      0.166000
     64 H2M1        4.9440   -3.4020    6.0220 h1        1 NMD      0.046700
     65 H2M2        5.5090   -1.6530    6.1090 h1        1 NMD      0.046700
     66 H2M3        4.3470   -2.3060    7.3730 h1        1 NMD      0.046700
     67 H3B         4.2560   -0.0490    7.1640 ha        1 NMD      0.146000
     68 H1B         1.2750    2.6780    5.5600 ha        1 NMD      0.166000
     69 H1M1        4.2890    3.1930    8.7520 h1        1 NMD      0.046700
     70 H1M2        3.9800    1.3860    8.9010 h1        1 NMD      0.046700
     71 H1M3        5.1450    2.0150    7.6280 h1        1 NMD      0.046700
     72 HO5'       -5.4230   -0.3800    0.1520 ho        1 NMD      0.419000
@<TRIPOS>BOND
     1    1    2 1   
     2    1   42 1   
     3    1   43 1   
     4    1   44 1   
     5    2    3 1   
     6    2    4 1   
     7    2   45 1   
     8    3    8 1   
     9    4    5 1   
    10    4    6 1   
    11    4   46 1   
    12    5   47 1   
    13    6    7 1   
    14    6    8 1   
    15    6   48 1   
    16    7   30 1   
    17    7   49 1   
    18    8    9 1   
    19    8   50 1   
    20    9   10 1   
    21    9   18 1   
    22   10   11 2   
    23   10   51 1   
    24   11   12 1   
    25   12   13 ar  
    26   12   18 ar  
    27   13   14 1   
    28   13   15 ar  
    29   14   19 1   
    30   14   52 1   
    31   15   16 ar  
    32   16   17 ar  
    33   16   53 1   
    34   17   18 ar  
    35   19   20 1   
    36   19   54 1   
    37   19   55 1   
    38   20   21 ar  
    39   20   25 ar  
    40   21   22 ar  
    41   21   26 ar  
    42   22   23 ar  
    43   22   56 1   
    44   23   24 ar  
    45   23   57 1   
    46   24   27 ar  
    47   24   58 1   
    48   25   28 ar  
    49   25   59 1   
    50   26   27 ar  
    51   26   29 ar  
    52   27   60 1   
    53   28   29 ar  
    54   28   61 1   
    55   29   62 1   
    56   30   31 2   
    57   30   32 1   
    58   32   33 ar  
    59   32   38 ar  
    60   33   34 ar  
    61   33   63 1   
    62   34   35 1   
    63   34   37 ar  
    64   35   36 1   
    65   36   64 1   
    66   36   65 1   
    67   36   66 1   
    68   37   39 ar  
    69   37   67 1   
    70   38   39 ar  
    71   38   68 1   
    72   39   40 1   
    73   40   41 1   
    74   41   69 1   
    75   41   70 1   
    76   41   71 1   
    77   42   72 1   
@<TRIPOS>SUBSTRUCTURE
     1 NMD         1 TEMP              0 ****  ****    0 ROOT
