@<TRIPOS>MOLECULE
NMD
   74    79     1     0     0
SMALL
bcc


@<TRIPOS>ATOM
      1 C5'         0.9510   -0.2810    1.0960 c3        1 NMD      0.113400
      2 C4'         2.3020    0.0650    0.4560 c3        1 NMD      0.072100
      3 O4'         3.2530    0.3780    1.4900 os        1 NMD     -0.383600
      4 C3'         2.8660   -1.1030   -0.3720 c3        1 NMD      0.118100
      5 O3'         3.5430   -0.6340   -1.5200 oh        1 NMD     -0.622800
      6 C2'         3.9010   -1.7730    0.5810 c3        1 NMD      0.069500
      7 N2'         5.1120   -2.3130   -0.0890 n4        1 NMD     -0.665800
      8 C1'         4.2290   -0.6470    1.6350 c3        1 NMD      0.260800
      9 N9A         4.2160   -1.1320    3.0010 na        1 NMD     -0.306000
     10 C8A         3.5460   -0.5690    4.1190 cc        1 NMD      0.522700
     11 N7A         3.8250   -1.1820    5.2790 nd        1 NMD     -0.554100
     12 C5A         4.7330   -2.2000    4.9520 ca        1 NMD     -0.126200
     13 C6A         5.4110   -3.1920    5.6910 ca        1 NMD      0.570200
     14 N6A         5.2040   -3.2930    7.1450 n4        1 NMD     -0.759700
     15 N1A         6.2600   -4.0600    5.0800 nb        1 NMD     -0.671000
     16 C2A         6.4270   -3.9360    3.7330 ca        1 NMD      0.693900
     17 N3A         5.8490   -3.0440    2.8850 nb        1 NMD     -0.708000
     18 C4A         5.0040   -2.1810    3.5010 ca        1 NMD      0.444800
     19 C11         6.3580   -2.6990    7.9290 c3        1 NMD      0.192100
     20 C1          6.1240   -2.8930    9.3840 ca        1 NMD     -0.210300
     21 C9          5.1890   -2.0720   10.0840 ca        1 NMD     -0.009000
     22 C8          4.4250   -1.0510    9.4550 ca        1 NMD     -0.190000
     23 C7          3.5340   -0.2930   10.1770 ca        1 NMD     -0.069000
     24 C6          3.3550   -0.5160   11.5620 ca        1 NMD     -0.123000
     25 C2          6.8540   -3.8580   10.0560 ca        1 NMD     -0.048000
     26 C10         5.0190   -2.2830   11.4790 ca        1 NMD     -0.051000
     27 C5          4.0850   -1.4870   12.2000 ca        1 NMD     -0.082000
     28 C3          6.6880   -4.0490   11.4420 ca        1 NMD     -0.149000
     29 C4          5.7860   -3.2800   12.1400 ca        1 NMD     -0.040000
     30 C7B         5.1150   -3.8340   -0.2810 c         1 NMD      0.591700
     31 O7B         4.4020   -4.4750    0.4750 o         1 NMD     -0.427100
     32 C6B         5.9710   -4.3080   -1.3720 ca        1 NMD     -0.136600
     33 C5B         7.0950   -3.5930   -1.8030 ca        1 NMD     -0.160500
     34 C4B         7.8680   -4.1170   -2.8550 ca        1 NMD      0.188600
     35 O2M         8.9470   -3.3450   -3.2000 os        1 NMD     -0.310900
     36 C2M         9.7760   -3.8250   -4.2620 c3        1 NMD      0.104700
     37 C3B         7.5280   -5.3320   -3.4720 ca        1 NMD     -0.225000
     38 C1B         5.6150   -5.5260   -1.9580 ca        1 NMD     -0.160500
     39 C2B         6.4040   -6.0290   -3.0170 ca        1 NMD      0.188600
     40 O1M         5.9660   -7.2220   -3.5260 os        1 NMD     -0.310900
     41 C1M         6.7230   -7.7900   -4.5970 c3        1 NMD      0.104700
     42 O5'         0.0890   -0.7830    0.1000 oh        1 NMD     -0.593800
     43 H5'1        1.0800   -1.1120    1.8420 h1        1 NMD      0.067700
     44 H5'2        0.5360    0.6210    1.6130 h1        1 NMD      0.067700
     45 H4'         2.2310    1.0040   -0.1630 h1        1 NMD      0.121700
     46 H3'         2.0510   -1.8300   -0.6500 h1        1 NMD      0.123700
     47 HO3'        2.8800   -0.4490   -2.2020 ho        1 NMD      0.465000
     48 H2'         3.3710   -2.6350    1.0950 hx        1 NMD      0.150700
     49 HN2'        5.9490   -2.0750    0.4570 hn        1 NMD      0.478800
     50 H1'         5.2340   -0.1520    1.4480 h2        1 NMD      0.109700
     51 H8A         2.8720    0.2990    3.9940 h5        1 NMD      0.123800
     52 H6A         4.3380   -2.7920    7.4000 hn        1 NMD      0.478300
     53 H2A         7.1330   -4.6710    3.2760 h5        1 NMD      0.100100
     54 H111        7.3000   -3.2190    7.5900 hx        1 NMD      0.112200
     55 H112        6.4220   -1.6060    7.6600 hx        1 NMD      0.112200
     56 H8          4.5700   -0.8310    8.3870 ha        1 NMD      0.111000
     57 H7          2.9520    0.5040    9.6850 ha        1 NMD      0.149000
     58 H6          2.6330    0.1040   12.1180 ha        1 NMD      0.162000
     59 H2          7.5880   -4.4830    9.5200 ha        1 NMD      0.143000
     60 H5          3.9660   -1.6650   13.2820 ha        1 NMD      0.159000
     61 H3          7.2910   -4.8160   11.9550 ha        1 NMD      0.166000
     62 H4          5.6460   -3.4230   13.2250 ha        1 NMD      0.164000
     63 H5B         7.4300   -2.6550   -1.3410 ha        1 NMD      0.163500
     64 H2M1       10.5640   -3.0320   -4.3400 h1        1 NMD      0.066200
     65 H2M2        9.1910   -3.8980   -5.2110 h1        1 NMD      0.066200
     66 H2M3       10.2280   -4.8090   -3.9900 h1        1 NMD      0.066200
     67 H3B         8.1390   -5.7290   -4.2980 ha        1 NMD      0.177000
     68 H1B         4.7400   -6.1010   -1.6150 ha        1 NMD      0.163500
     69 H1M1        6.7170   -7.1100   -5.4820 h1        1 NMD      0.066200
     70 H1M2        6.1660   -8.7380   -4.8180 h1        1 NMD      0.066200
     71 H1M3        7.7660   -8.0100   -4.2630 h1        1 NMD      0.066200
     72 HO5'       -0.5060   -0.0720   -0.1720 ho        1 NMD      0.433000
     73 H2'2        5.2050   -1.8780   -1.0240 hn        1 NMD      0.478800
     74 H6A2        5.0980   -4.2820    7.4170 hn        1 NMD      0.478300
@<TRIPOS>BOND
     1    1    2 1   
     2    1   42 1   
     3    1   43 1   
     4    1   44 1   
     5    2    3 1   
     6    2    4 1   
     7    2   45 1   
     8    3    8 1   
     9    4    5 1   
    10    4    6 1   
    11    4   46 1   
    12    5   47 1   
    13    6    7 1   
    14    6    8 1   
    15    6   48 1   
    16    7   30 1   
    17    7   49 1   
    18    7   73 1   
    19    8    9 1   
    20    8   50 1   
    21    9   10 1   
    22    9   18 1   
    23   10   11 2   
    24   10   51 1   
    25   11   12 1   
    26   12   13 ar  
    27   12   18 ar  
    28   13   14 1   
    29   13   15 ar  
    30   14   19 1   
    31   14   52 1   
    32   14   74 1   
    33   15   16 ar  
    34   16   17 ar  
    35   16   53 1   
    36   17   18 ar  
    37   19   20 1   
    38   19   54 1   
    39   19   55 1   
    40   20   21 ar  
    41   20   25 ar  
    42   21   22 ar  
    43   21   26 ar  
    44   22   23 ar  
    45   22   56 1   
    46   23   24 ar  
    47   23   57 1   
    48   24   27 ar  
    49   24   58 1   
    50   25   28 ar  
    51   25   59 1   
    52   26   27 ar  
    53   26   29 ar  
    54   27   60 1   
    55   28   29 ar  
    56   28   61 1   
    57   29   62 1   
    58   30   31 2   
    59   30   32 1   
    60   32   33 ar  
    61   32   38 ar  
    62   33   34 ar  
    63   33   63 1   
    64   34   35 1   
    65   34   37 ar  
    66   35   36 1   
    67   36   64 1   
    68   36   65 1   
    69   36   66 1   
    70   37   39 ar  
    71   37   67 1   
    72   38   39 ar  
    73   38   68 1   
    74   39   40 1   
    75   40   41 1   
    76   41   69 1   
    77   41   70 1   
    78   41   71 1   
    79   42   72 1   
@<TRIPOS>SUBSTRUCTURE
     1 NMD         1 TEMP              0 ****  ****    0 ROOT
