@<TRIPOS>MOLECULE
NME
    7     6     1     0     0
SMALL
bcc


@<TRIPOS>ATOM
      1 N           0.7100    0.0060   -0.0790 n3        1 NME     -0.918800
      2 C          -0.7180    0.0010    0.0270 c3        1 NME      0.147100
      3 HN1         1.1050    0.8110    0.3650 hn        1 NME      0.347800
      4 HN2         1.1080   -0.8180    0.3260 hn        1 NME      0.347800
      5 H1         -1.1220   -0.8980   -0.5100 h1        1 NME      0.025700
      6 H2         -1.1040   -0.0250    1.0850 h1        1 NME      0.025700
      7 H3         -1.1250    0.9230   -0.4670 h1        1 NME      0.025700
@<TRIPOS>BOND
     1    1    2 1   
     2    1    3 1   
     3    1    4 1   
     4    2    5 1   
     5    2    6 1   
     6    2    7 1   
@<TRIPOS>SUBSTRUCTURE
     1 NME         1 TEMP              0 ****  ****    0 ROOT
