@<TRIPOS>MOLECULE
NME
    8     7     1     0     0
SMALL
bcc


@<TRIPOS>ATOM
      1 N          -0.0020    0.0000    0.0000 n4        1 NME     -0.831600
      2 C           1.4780   -0.0000    0.0000 c3        1 NME      0.072100
      3 HN1        -0.3590    0.0000    0.9630 hn        1 NME      0.466800
      4 HN2        -0.3590    0.8340   -0.4810 hn        1 NME      0.466800
      5 H1          1.8520   -0.0000   -1.0600 hx        1 NME      0.119700
      6 H2          1.8520   -0.9180    0.5300 hx        1 NME      0.119700
      7 H3          1.8520    0.9180    0.5300 hx        1 NME      0.119700
      8 HN3        -0.3590   -0.8340   -0.4810 hn        1 NME      0.466800
@<TRIPOS>BOND
     1    1    2 1   
     2    1    3 1   
     3    1    4 1   
     4    1    8 1   
     5    2    5 1   
     6    2    6 1   
     7    2    7 1   
@<TRIPOS>SUBSTRUCTURE
     1 NME         1 TEMP              0 ****  ****    0 ROOT
