@<TRIPOS>MOLECULE
NMF
   31    29     1     0     0
SMALL
bcc


@<TRIPOS>ATOM
      1 F          -0.9950    2.4160   -2.4240 f         1 NMF     -0.245300
      2 C1          2.6310   -0.8560    1.3220 c1        1 NMF      0.849900
      3 N1          1.2340   -0.3830    1.3700 n2        1 NMF     -0.675900
      4 O1          3.4800   -0.3520    2.0610 o         1 NMF     -0.596500
      5 C2          2.0750   -2.3760   -0.6070 c1        1 NMF      0.651600
      6 N2          3.0230   -1.9020    0.3510 n2        1 NMF     -0.824800
      7 O2          2.4190   -3.2070   -1.4600 o         1 NMF     -0.569500
      8 C3          0.7090   -1.8120   -0.6350 ce        1 NMF     -0.389900
      9 O3         -1.7380    3.5790   -0.2790 oh        1 NMF     -0.595800
     10 C4         -0.3760   -2.4660   -1.5260 c3        1 NMF     -0.040900
     11 C5          0.3270   -0.7520    0.3420 ce        1 NMF      0.547600
     12 C6          0.8010    0.4930    2.4420 c3        1 NMF      0.158100
     13 C11        -1.0580   -0.0830    0.2520 c3        1 NMF     -0.126700
     14 C12        -0.9200    1.3170   -0.3880 c3        1 NMF     -0.144700
     15 C13        -1.9190    2.2500    0.2410 c3        1 NMF      0.134400
     16 C14        -1.1760    1.2180   -1.8550 c3        1 NMF      0.152900
     17 HN2         3.8960   -2.1980    0.3200 hn        1 NMF      0.513400
     18 HO3        -2.3970    4.1240    0.0420 ho        1 NMF      0.415000
     19 H4         -1.1890   -2.5450   -1.0280 hc        1 NMF      0.053033
     20 H4A        -0.5360   -1.8910   -2.3420 hc        1 NMF      0.053033
     21 H4B        -0.0700   -3.3780   -1.8140 hc        1 NMF      0.053033
     22 H6          0.7720    1.4130    2.1190 h1        1 NMF      0.064033
     23 H6A        -0.0720    0.2300    2.7360 h1        1 NMF      0.064033
     24 H6B         1.4280    0.4290    3.1860 h1        1 NMF      0.064033
     25 H11        -1.4360    0.0040    1.1440 hc        1 NMF      0.072200
     26 H11A       -1.6590   -0.6410   -0.3070 hc        1 NMF      0.072200
     27 H12        -0.0300    1.6530   -0.2410 hc        1 NMF      0.086700
     28 H13        -1.7930    2.2580    1.1810 h1        1 NMF      0.048200
     29 H13A       -2.7960    1.9510    0.0430 h1        1 NMF      0.048200
     30 H14        -2.0710    0.9290   -2.0020 h1        1 NMF      0.054200
     31 H14A       -0.5640    0.5800   -2.2440 h1        1 NMF      0.054200
@<TRIPOS>BOND
     1    1   16 1   
     2    2    4 2   
     3    2    6 2   
     4    3   11 2   
     5    3   12 1   
     6    5    7 2   
     7    5    8 2   
     8    6   17 1   
     9    8   10 1   
    10    8   11 1   
    11    9   15 1   
    12    9   18 1   
    13   10   19 1   
    14   10   20 1   
    15   10   21 1   
    16   11   13 1   
    17   12   22 1   
    18   12   23 1   
    19   12   24 1   
    20   13   14 1   
    21   13   25 1   
    22   13   26 1   
    23   14   15 1   
    24   14   16 1   
    25   14   27 1   
    26   15   28 1   
    27   15   29 1   
    28   16   30 1   
    29   16   31 1   
@<TRIPOS>SUBSTRUCTURE
     1 NMF         1 TEMP              0 ****  ****    0 ROOT
