@<TRIPOS>MOLECULE
NMF
   31    30     1     0     0
SMALL
bcc


@<TRIPOS>ATOM
      1 F           0.9810   -1.7050    2.1880 f         1 NMF     -0.272300
      2 C1         -1.6990    0.4440    2.8720 c         1 NMF      0.683500
      3 N1         -0.2890    0.7560    3.3650 n4        1 NMF     -0.466000
      4 O1         -2.2670   -0.4710    3.4980 o         1 NMF     -0.611500
      5 C2         -1.4770    2.1750    1.1110 cc        1 NMF      0.439000
      6 N2         -2.2110    1.1640    1.8440 n         1 NMF     -0.559500
      7 O2         -2.1530    2.7390    0.2300 o         1 NMF     -0.369000
      8 C3         -0.1230    2.3750    1.4720 cd        1 NMF     -0.462200
      9 O3          3.0280    0.7620   -0.0640 oh        1 NMF     -0.505100
     10 C4          0.6440    3.4080    0.7470 c3        1 NMF      0.018100
     11 C5          0.5330    1.6420    2.4910 cd        1 NMF      0.138000
     12 C11         1.8670    1.6750    2.7470 c2        1 NMF     -0.385000
     13 C12         2.5930   -1.5770    0.4200 c2        1 NMF     -0.360200
     14 C13         3.3630   -0.5560    0.0150 c2        1 NMF      0.088100
     15 C14         1.1640   -1.4880    0.8280 c3        1 NMF      0.204100
     16 HN2        -3.1470    0.9530    1.5570 hn        1 NMF      0.355500
     17 HO3         2.1540    0.9140    0.3370 ho        1 NMF      0.435000
     18 H4          1.4600    2.9440    0.1340 hc        1 NMF      0.029033
     19 H4A        -0.0260    3.9820    0.0600 hc        1 NMF      0.029033
     20 H4B         1.1190    4.1250    1.4640 hc        1 NMF      0.029033
     21 H6          0.1920   -0.1600    3.4200 hn        1 NMF      0.469800
     22 H6A        -0.9920    0.6360    5.3780 hx        1 NMF      0.094367
     23 H6B        -0.8920    2.3320    4.6720 hx        1 NMF      0.094367
     24 H11         0.6430    1.4560    5.1490 hx        1 NMF      0.094367
     25 H11A        2.3570    1.1290    3.5580 ha        1 NMF      0.138000
     26 H12         2.5270    2.2830    2.1170 ha        1 NMF      0.138000
     27 H13         3.0200   -2.5910    0.4530 ha        1 NMF      0.147000
     28 H13A        4.4040   -0.6840   -0.3360 h4        1 NMF      0.164000
     29 H14         0.7250   -0.4780    0.5830 h1        1 NMF      0.050200
     30 H14A        0.5740   -2.2720    0.2730 h1        1 NMF      0.050200
     31 C6         -0.3910    1.3300    4.7310 c3        1 NMF      0.102100
@<TRIPOS>BOND
     1    1   15 1   
     2    2    3 1   
     3    2    4 2   
     4    2    6 1   
     5    3   11 1   
     6    3   21 1   
     7    3   31 1   
     8    5    6 1   
     9    5    7 1   
    10    5    8 2   
    11    6   16 1   
    12    8   10 1   
    13    8   11 1   
    14    9   14 1   
    15    9   17 1   
    16   10   18 1   
    17   10   19 1   
    18   10   20 1   
    19   11   12 2   
    20   12   25 1   
    21   12   26 1   
    22   13   14 2   
    23   13   15 1   
    24   13   27 1   
    25   14   28 1   
    26   15   29 1   
    27   15   30 1   
    28   22   31 1   
    29   23   31 1   
    30   24   31 1   
@<TRIPOS>SUBSTRUCTURE
     1 NMF         1 TEMP              0 ****  ****    0 ROOT
