@<TRIPOS>MOLECULE
NMF
   31    30     1     0     0
SMALL
bcc


@<TRIPOS>ATOM
      1 F           3.2530    0.6490    0.1870 f         1 NMF     -0.192000
      2 C1         -2.2070    1.5660    3.9810 c2        1 NMF      0.397000
      3 N1         -0.8220    1.4900    3.6750 n         1 NMF     -0.265000
      4 O1         -2.6120    1.4620    5.1600 o         1 NMF     -0.370000
      5 C2         -2.7200    1.8870    1.5950 c2        1 NMF      0.355000
      6 N2         -3.1160    1.7540    2.9350 n         1 NMF     -0.361000
      7 O2         -3.6000    2.0530    0.7330 o         1 NMF     -0.338000
      8 C3         -1.2720    1.8160    1.3270 c2        1 NMF     -0.233000
      9 O3          4.5850   -1.7360   -1.1290 oh        1 NMF     -0.218000
     10 C4         -0.8570    1.9630   -0.0840 c3        1 NMF     -0.161000
     11 C5         -0.3830    1.6270    2.3550 c2        1 NMF      0.100000
     12 C11         1.0930    1.5570    2.0700 c3        1 NMF     -0.141000
     13 C12         1.5360    0.1310    1.8080 c3        1 NMF     -0.189000
     14 C13         4.4320   -2.4620   -0.0520 c1        1 NMF     -0.081000
     15 C14         3.0120    0.0700    1.4230 c3        1 NMF     -0.021000
     16 HN2        -4.0840    1.7980    3.1750 hn        1 NMF      0.268000
     17 HO3         4.2140   -0.8420   -0.9680 ho        1 NMF      0.260000
     18 H4         -0.3170    2.9320   -0.2340 hc        1 NMF      0.092667
     19 H4A        -1.7510    1.9540   -0.7590 hc        1 NMF      0.092667
     20 H4B        -0.1760    1.1280   -0.3880 hc        1 NMF      0.092667
     21 H6          0.8240    0.5120    4.5470 h1        1 NMF      0.100000
     22 H6A        -0.4480    1.1170    5.7130 h1        1 NMF      0.100000
     23 H6B         0.6850    2.3040    4.9060 h1        1 NMF      0.100000
     24 H11         1.6920    1.9940    2.9130 hc        1 NMF      0.111000
     25 H11A        1.3140    2.1830    1.1610 hc        1 NMF      0.111000
     26 H12         1.3880   -0.4990    2.7230 hc        1 NMF      0.104000
     27 H13         0.9180   -0.3110    0.9830 hc        1 NMF      0.104000
     28 H13A        4.8570   -3.4800   -0.2450 ha        1 NMF      0.040000
     29 H14         3.6310    0.6130    2.1900 h1        1 NMF      0.109500
     30 H14A        3.3480   -1.0090    1.3720 h1        1 NMF      0.109500
     31 C6          0.1090    1.3500    4.7640 c3        1 NMF     -0.079000
@<TRIPOS>BOND
     1    1   15 1   
     2    2    3 1   
     3    2    4 1   
     4    2    6 1   
     5    3   11 1   
     6    3   31 1   
     7    5    6 1   
     8    5    7 1   
     9    5    8 1   
    10    6   16 1   
    11    8   10 1   
    12    8   11 1   
    13    9   14 1   
    14    9   17 1   
    15   10   18 1   
    16   10   19 1   
    17   10   20 1   
    18   11   12 1   
    19   12   13 1   
    20   12   24 1   
    21   12   25 1   
    22   13   15 1   
    23   13   26 1   
    24   13   27 1   
    25   14   28 1   
    26   15   29 1   
    27   15   30 1   
    28   21   31 1   
    29   22   31 1   
    30   23   31 1   
@<TRIPOS>SUBSTRUCTURE
     1 NMF         1 TEMP              0 ****  ****    0 ROOT
