@<TRIPOS>MOLECULE
NMF
   31    31     1     0     0
SMALL
bcc


@<TRIPOS>ATOM
      1 F          -1.8300   -2.2390   -1.2870 f         1 NMF     -0.240300
      2 C1          2.0050    1.5710   -0.0150 c         1 NMF      0.807500
      3 N1          0.6730    1.2740    0.3760 n         1 NMF     -0.374000
      4 O1          2.3660    2.7490   -0.2340 o         1 NMF     -0.646500
      5 C2          2.5710   -0.8200    0.0920 c         1 NMF      0.715700
      6 N2          2.9160    0.5180   -0.1510 n         1 NMF     -0.580500
      7 O2          3.4530   -1.6870   -0.0370 o         1 NMF     -0.612500
      8 C3          1.1740   -1.0830    0.4850 cc        1 NMF     -0.240400
      9 O3         -4.0800    1.0660   -0.7800 oh        1 NMF     -0.599800
     10 C4          0.8280   -2.5000    0.7250 c3        1 NMF     -0.046900
     11 C5          0.2800   -0.0490    0.6050 cd        1 NMF      0.093400
     12 C11        -1.1430   -0.3120    1.0270 c3        1 NMF     -0.050200
     13 C12        -2.1550   -0.1450   -0.1010 c3        1 NMF     -0.102700
     14 C13        -3.3160    0.7360    0.3680 c3        1 NMF      0.130400
     15 C14        -2.7380   -1.4890   -0.5690 c3        1 NMF      0.161900
     16 HN2         3.8440    0.7510   -0.4320 hn        1 NMF      0.354500
     17 HO3        -4.8120    1.6160   -0.4770 ho        1 NMF      0.408000
     18 H4          1.6960   -3.1630    0.4770 hc        1 NMF      0.057367
     19 H4A         0.5620   -2.6640    1.8000 hc        1 NMF      0.057367
     20 H4B        -0.0400   -2.8090    0.0870 hc        1 NMF      0.057367
     21 H6          0.2950    3.3470    0.3830 h1        1 NMF      0.060700
     22 H6A        -1.0960    2.2880   -0.1500 h1        1 NMF      0.060700
     23 H6B        -0.6290    2.3700    1.6200 h1        1 NMF      0.060700
     24 H11        -1.2080   -1.3600    1.4290 hc        1 NMF      0.069700
     25 H11A       -1.4010    0.3690    1.8850 hc        1 NMF      0.069700
     26 H12        -1.6730    0.3430   -0.9930 hc        1 NMF      0.093700
     27 H13        -2.9270    1.6740    0.8490 h1        1 NMF      0.027200
     28 H13A       -3.9520    0.1830    1.1100 h1        1 NMF      0.027200
     29 H14        -3.6280   -1.2780   -1.2290 h1        1 NMF      0.053200
     30 H14A       -3.0770   -2.0900    0.3200 h1        1 NMF      0.053200
     31 C6         -0.2360    2.3740    0.5680 c3        1 NMF      0.072300
@<TRIPOS>BOND
     1    1   15 1   
     2    2    3 1   
     3    2    4 2   
     4    2    6 1   
     5    3   11 1   
     6    3   31 1   
     7    5    6 1   
     8    5    7 2   
     9    5    8 1   
    10    6   16 1   
    11    8   10 1   
    12    8   11 2   
    13    9   14 1   
    14    9   17 1   
    15   10   18 1   
    16   10   19 1   
    17   10   20 1   
    18   11   12 1   
    19   12   13 1   
    20   12   24 1   
    21   12   25 1   
    22   13   14 1   
    23   13   15 1   
    24   13   26 1   
    25   14   27 1   
    26   14   28 1   
    27   15   29 1   
    28   15   30 1   
    29   21   31 1   
    30   22   31 1   
    31   23   31 1   
@<TRIPOS>SUBSTRUCTURE
     1 NMF         1 TEMP              0 ****  ****    0 ROOT
