@<TRIPOS>MOLECULE
NMF
   31    30     1     0     0
SMALL
bcc


@<TRIPOS>ATOM
      1 F           3.1140    0.5840   -0.0210 f         1 NMF     -0.192000
      2 C1         -2.0520    1.6570    4.1270 c2        1 NMF      0.397000
      3 N1         -0.6950    1.5800    3.7190 n         1 NMF     -0.265000
      4 O1         -2.3640    1.6170    5.3380 o         1 NMF     -0.370000
      5 C2         -2.7530    1.8280    1.7740 c2        1 NMF      0.355000
      6 N2         -3.0430    1.7700    3.1460 ns        1 NMF     -0.361000
      7 O2         -3.7010    1.9310    0.9760 o         1 NMF     -0.338000
      8 C3         -1.3300    1.7590    1.3990 c2        1 NMF     -0.233000
      9 O3          4.3850   -1.8560   -1.2930 oh        1 NMF     -0.218000
     10 C4         -1.0270    1.8270   -0.0460 c3        1 NMF     -0.161000
     11 C5         -0.3610    1.6440    2.3640 c2        1 NMF      0.100000
     12 C11         1.0900    1.5760    1.9690 c3        1 NMF     -0.141000
     13 C12         1.5370    0.1430    1.7580 c3        1 NMF     -0.189000
     14 C13         4.3290   -2.5180   -0.1660 c1        1 NMF     -0.081000
     15 C14         2.9790    0.0780    1.2630 c3        1 NMF     -0.021000
     16 HN2        -3.9900    1.8150    3.4580 hn        1 NMF      0.268000
     17 HO3         4.0110   -0.9600   -1.1560 ho        1 NMF      0.260000
     18 H4         -0.5170    2.7920   -0.2950 hc        1 NMF      0.092667
     19 H4A        -1.9700    1.7660   -0.6480 hc        1 NMF      0.092667
     20 H4B        -0.3570    0.9840   -0.3530 hc        1 NMF      0.092667
     21 H6          1.0310    0.6780    4.5170 h1        1 NMF      0.100000
     22 H6A        -0.1580    1.3350    5.7410 h1        1 NMF      0.100000
     23 H6B         0.8880    2.4850    4.7800 h1        1 NMF      0.100000
     24 H11         0.8650   -0.3560    1.0110 hc        1 NMF      0.104000
     25 H11A        1.7440    2.0710    2.7360 hc        1 NMF      0.111000
     26 H12         1.2290    2.1490    1.0110 hc        1 NMF      0.111000
     27 H13         1.4710   -0.4330    2.7160 hc        1 NMF      0.104000
     28 H13A        4.7570   -3.5390   -0.3310 ha        1 NMF      0.040000
     29 H14         3.6450    0.6740    1.9460 h1        1 NMF      0.109500
     30 H14A        3.3290   -0.9980    1.2490 h1        1 NMF      0.109500
     31 C6          0.3200    1.5170    4.7390 c3        1 NMF     -0.079000
@<TRIPOS>BOND
     1    1   15 1   
     2    2    3 1   
     3    2    4 1   
     4    2    6 1   
     5    3   11 1   
     6    3   31 1   
     7    5    6 1   
     8    5    7 1   
     9    5    8 1   
    10    6   16 1   
    11    8   10 1   
    12    8   11 1   
    13    9   14 1   
    14    9   17 1   
    15   10   18 1   
    16   10   19 1   
    17   10   20 1   
    18   11   12 1   
    19   12   13 1   
    20   12   25 1   
    21   12   26 1   
    22   13   15 1   
    23   13   24 1   
    24   13   27 1   
    25   14   28 1   
    26   15   29 1   
    27   15   30 1   
    28   21   31 1   
    29   22   31 1   
    30   23   31 1   
@<TRIPOS>SUBSTRUCTURE
     1 NMF         1 TEMP              0 ****  ****    0 ROOT
