@<TRIPOS>MOLECULE
NMG
   14    13     1     0     0
SMALL
bcc


@<TRIPOS>ATOM
      1 CG         -0.1130   -0.0810   -1.8900 c         1 NMG      0.914600
      2 CD          0.6080    0.0980   -0.5170 c3        1 NMG      0.037800
      3 NE         -0.3000    0.3560    0.5750 nh        1 NMG     -0.823200
      4 CZ          0.1030   -0.0180    1.8880 c2        1 NMG      0.746100
      5 NH1        -0.9650   -0.2640    2.8260 nh        1 NMG     -0.885800
      6 NH2         1.3410   -0.1000    2.3330 n2        1 NMG     -0.937100
      7 O1          0.6110    0.0560   -2.9130 o         1 NMG     -0.834300
      8 O2         -1.3420   -0.3680   -1.8970 o         1 NMG     -0.834300
      9 HD1         1.3170    0.9650   -0.5960 h1        1 NMG      0.028200
     10 HD2         1.2160   -0.8360   -0.3560 h1        1 NMG      0.028200
     11 HNE        -1.2420    0.1040    0.3240 hn        1 NMG      0.425800
     12 HH11       -0.6520   -0.2300    3.7740 hn        1 NMG      0.373800
     13 HH12       -1.7430    0.3460    2.6850 hn        1 NMG      0.373800
     14 HH2         2.0400   -0.0230    1.6270 hn        1 NMG      0.386400
@<TRIPOS>BOND
     1    1    2 1   
     2    1    7 1   
     3    1    8 1   
     4    2    3 1   
     5    2    9 1   
     6    2   10 1   
     7    3    4 1   
     8    3   11 1   
     9    4    5 1   
    10    4    6 2   
    11    5   12 1   
    12    5   13 1   
    13    6   14 1   
@<TRIPOS>SUBSTRUCTURE
     1 NMG         1 TEMP              0 ****  ****    0 ROOT
