@<TRIPOS>MOLECULE
NMG
   14    11     1     0     0
SMALL
bcc


@<TRIPOS>ATOM
      1 CG         -2.1420    0.3900   -0.8130 c1        1 NMG      0.309000
      2 CD         -0.9020   -0.5560   -0.7110 c2        1 NMG     -0.168000
      3 NE         -0.1930   -0.3140    0.5580 n3        1 NMG     -0.286000
      4 CZ          1.2480   -0.1740    0.5590 c2        1 NMG      0.153000
      5 NH1         1.8770    1.1620    0.8500 n3        1 NMG     -0.358000
      6 NH2         1.9640   -1.1560    0.3180 n1        1 NMG     -0.368000
      7 O1         -3.3550   -0.0940   -0.6020 o         1 NMG     -0.579500
      8 O2         -2.0070    1.5440   -1.2650 o         1 NMG     -0.579500
      9 HD1        -1.1770   -1.4200   -0.7430 h4        1 NMG      0.083000
     10 HD2        -0.3140   -0.3850   -1.4370 h4        1 NMG      0.083000
     11 HNE        -0.6730   -0.2170    1.3530 hn        1 NMG      0.169000
     12 HH11        1.3240    1.9030    1.1890 hn        1 NMG      0.203500
     13 HH12        2.7850    1.3210    0.6090 hn        1 NMG      0.203500
     14 HH2         1.5650   -2.0040    0.1330 DU        1 NMG      0.135000
@<TRIPOS>BOND
     1    1    7 1   
     2    1    8 1   
     3    2    3 1   
     4    2    9 1   
     5    2   10 1   
     6    3    4 1   
     7    3   11 1   
     8    4    5 1   
     9    4    6 1   
    10    5   12 1   
    11    5   13 1   
@<TRIPOS>SUBSTRUCTURE
     1 NMG         1 TEMP              0 ****  ****    0 ROOT
