@<TRIPOS>MOLECULE
NMG
   16    13     1     0     0
SMALL
bcc


@<TRIPOS>ATOM
      1 CG         -2.5020   -0.0120    0.3680 c1        1 NMG      0.902000
      2 CD          1.5730    0.6790   -0.3770 c2        1 NMG      0.531100
      3 NE          1.6560    0.3530    0.8520 n2        1 NMG     -0.890100
      4 CZ          4.7600   -0.8680    2.1520 c2        1 NMG      0.525100
      5 NH1         3.9480    0.3450    2.3750 nz        1 NMG     -0.888600
      6 NH2         5.9570   -0.7580    1.7280 n2        1 NMG     -0.714100
      7 O1         -3.6790   -0.1270    0.3240 o         1 NMG     -0.450500
      8 O2         -1.3130    0.1040    0.4140 o         1 NMG     -0.450500
      9 HD1         0.6320    0.7100   -0.9650 h4        1 NMG      0.012800
     10 HD2         2.4920    0.9590   -0.9280 h4        1 NMG      0.012800
     11 HNE         4.1660   -1.7800    2.3950 hx        1 NMG      0.054800
     12 HH11        4.4660    1.2050    2.1760 hn        1 NMG      0.477467
     13 HH12        3.6480    0.3620    3.3510 hn        1 NMG      0.477467
     14 HH2         6.4860   -1.5920    1.5750 hn        1 NMG      0.480400
     15 HE3         0.8110    0.1060    1.3250 hn        1 NMG      0.440400
     16 HH13        3.0650    0.3120    1.7290 hn        1 NMG      0.477467
@<TRIPOS>BOND
     1    1    7 2   
     2    1    8 2   
     3    2    3 2   
     4    2    9 1   
     5    2   10 1   
     6    3   15 1   
     7    4    5 1   
     8    4    6 2   
     9    4   11 1   
    10    5   12 1   
    11    5   13 1   
    12    5   16 1   
    13    6   14 1   
@<TRIPOS>SUBSTRUCTURE
     1 NMG         1 TEMP              0 ****  ****    0 ROOT
