@<TRIPOS>MOLECULE
NMG
   16    13     1     0     0
SMALL
bcc


@<TRIPOS>ATOM
      1 CG         -2.1300   -0.9260   -0.6190 c1        1 NMG      0.902000
      2 CD          1.1450    1.3540    0.6920 c2        1 NMG      0.531100
      3 NE          1.5280    0.2120    1.1090 n2        1 NMG     -0.890100
      4 CZ          5.0060   -0.3910    1.6980 c2        1 NMG      0.525100
      5 NH1         3.8090   -0.3020    2.5580 n4        1 NMG     -0.888600
      6 NH2         5.9830    0.4040    1.8870 n2        1 NMG     -0.714100
      7 O1         -3.1470   -1.3300   -1.0690 o         1 NMG     -0.450500
      8 O2         -1.1010   -0.5180   -0.1650 o         1 NMG     -0.450500
      9 HD1         1.7790    2.2420    0.8810 h4        1 NMG      0.012800
     10 HD2         0.2020    1.5460    0.1390 h4        1 NMG      0.012800
     11 HNE         0.9350   -0.5710    0.9260 hn        1 NMG      0.440400
     12 HH11        3.8990    0.4200    3.2790 hn        1 NMG      0.477467
     13 HH12        3.6680   -1.2040    3.0140 hn        1 NMG      0.477467
     14 HH2         6.7790    0.3330    1.2880 hn        1 NMG      0.480400
     15 HE3         4.8750   -1.1980    0.9380 hx        1 NMG      0.054800
     16 HH13        2.9360   -0.0700    1.9400 hn        1 NMG      0.477467
@<TRIPOS>BOND
     1    1    7 2   
     2    1    8 2   
     3    2    3 2   
     4    2    9 1   
     5    2   10 1   
     6    3   11 1   
     7    4    5 1   
     8    4    6 2   
     9    4   15 1   
    10    5   12 1   
    11    5   13 1   
    12    5   16 1   
    13    6   14 1   
@<TRIPOS>SUBSTRUCTURE
     1 NMG         1 TEMP              0 ****  ****    0 ROOT
