@<TRIPOS>MOLECULE
NMH
   27    26     1     0     0
SMALL
bcc


@<TRIPOS>ATOM
      1 C7          0.2950   -0.0400    4.7800 c3        1 NMH     -0.093100
      2 C6          0.7370   -0.1960    3.3480 c3        1 NMH     -0.080400
      3 C5         -0.4020    0.0560    2.3840 c3        1 NMH     -0.079400
      4 C4          0.0470   -0.1070    0.9470 c3        1 NMH     -0.079400
      5 C3         -1.0920    0.1590   -0.0120 c3        1 NMH     -0.091400
      6 C2         -0.7080   -0.1270   -1.4740 c3        1 NMH      0.091700
      7 C1         -1.9840   -0.0850   -2.3210 c3        1 NMH     -0.111100
      8 N           0.3130    0.7690   -1.9700 n         1 NMH     -0.581900
      9 C           1.4750    0.3410   -2.5610 c         1 NMH      0.659900
     10 O           1.7690   -0.8560   -2.7180 o         1 NMH     -0.609100
     11 HC71        1.1500   -0.2290    5.4730 hc        1 NMH      0.032700
     12 HC72       -0.0860    0.9940    4.9640 hc        1 NMH      0.032700
     13 HC73       -0.5210   -0.7620    5.0220 hc        1 NMH      0.032700
     14 HC61        1.5750    0.5190    3.1310 hc        1 NMH      0.040200
     15 HC62        1.1390   -1.2320    3.1880 hc        1 NMH      0.040200
     16 HC51       -1.2410   -0.6570    2.6000 hc        1 NMH      0.038200
     17 HC52       -0.8030    1.0930    2.5380 hc        1 NMH      0.038200
     18 HC41        0.8950    0.5970    0.7400 hc        1 NMH      0.045700
     19 HC42        0.4370   -1.1470    0.7900 hc        1 NMH      0.045700
     20 HC31       -1.9590   -0.5040    0.2470 hc        1 NMH      0.044200
     21 HC32       -1.4410    1.2190    0.0940 hc        1 NMH      0.044200
     22 HC2        -0.2840   -1.1770   -1.5290 h1        1 NMH      0.088700
     23 HC11       -2.4710    0.9170   -2.2620 hc        1 NMH      0.040700
     24 HC12       -1.7580   -0.3110   -3.3900 hc        1 NMH      0.040700
     25 HC13       -2.6990   -0.8530   -1.9410 hc        1 NMH      0.040700
     26 HN'         0.1350    1.7390   -1.8850 hn        1 NMH      0.306500
     27 HC'         2.1430    1.1730   -2.8890 h5        1 NMH      0.023200
@<TRIPOS>BOND
     1    1    2 1   
     2    1   11 1   
     3    1   12 1   
     4    1   13 1   
     5    2    3 1   
     6    2   14 1   
     7    2   15 1   
     8    3    4 1   
     9    3   16 1   
    10    3   17 1   
    11    4    5 1   
    12    4   18 1   
    13    4   19 1   
    14    5    6 1   
    15    5   20 1   
    16    5   21 1   
    17    6    7 1   
    18    6    8 1   
    19    6   22 1   
    20    7   23 1   
    21    7   24 1   
    22    7   25 1   
    23    8    9 1   
    24    8   26 1   
    25    9   10 2   
    26    9   27 1   
@<TRIPOS>SUBSTRUCTURE
     1 NMH         1 TEMP              0 ****  ****    0 ROOT
