@<TRIPOS>MOLECULE
NMH
   28    27     1     0     0
SMALL
bcc


@<TRIPOS>ATOM
      1 C7         -0.0890    0.3320    0.1090 c3        1 NMH     -0.097100
      2 C6          1.4100    0.1850    0.0610 c3        1 NMH     -0.079400
      3 C5          1.9860   -0.0100    1.4480 c3        1 NMH     -0.079400
      4 C4          3.4950   -0.1440    1.3970 c3        1 NMH     -0.095400
      5 C3          4.0540   -0.3900    2.7820 c3        1 NMH     -0.116400
      6 C2          5.5720   -0.1960    2.8650 c3        1 NMH      0.134500
      7 C1          6.0290   -0.2990    4.3130 c3        1 NMH     -0.136100
      8 N           6.2930   -1.1930    1.9830 ny        1 NMH     -0.703800
      9 C           7.7070   -0.7690    1.7010 c         1 NMH      0.544900
     10 O           8.0160   -0.5860    0.5410 o         1 NMH     -0.371100
     11 HC71       -0.4950    0.4730   -0.9220 hc        1 NMH      0.044700
     12 HC72       -0.5630   -0.5770    0.5530 hc        1 NMH      0.044700
     13 HC73       -0.3810    1.2160    0.7260 hc        1 NMH      0.044700
     14 HC61        1.6810   -0.6910   -0.5860 hc        1 NMH      0.042700
     15 HC62        1.8630    1.0980   -0.4080 hc        1 NMH      0.042700
     16 HC51        1.5410   -0.9280    1.9150 hc        1 NMH      0.054200
     17 HC52        1.7070    0.8630    2.0960 hc        1 NMH      0.054200
     18 HC41        3.7550   -0.9920    0.7080 hc        1 NMH      0.042700
     19 HC42        3.9350    0.7930    0.9640 hc        1 NMH      0.042700
     20 HC31        3.5980    0.3470    3.5010 hc        1 NMH      0.088700
     21 HC32        3.7700   -1.4140    3.1420 hc        1 NMH      0.088700
     22 HC2         5.8330    0.8270    2.4520 hx        1 NMH      0.109700
     23 HC11        7.1260   -0.1190    4.4180 hc        1 NMH      0.078700
     24 HC12        5.4950    0.4870    4.9060 hc        1 NMH      0.078700
     25 HC13        5.7760   -1.2940    4.7540 hc        1 NMH      0.078700
     26 HN'         5.7680   -1.2840    1.1000 hn        1 NMH      0.463300
     27 HC'         8.3260   -0.6670    2.6200 hx        1 NMH      0.135200
     28 HN3         6.2990   -2.1070    2.4490 hn        1 NMH      0.463300
@<TRIPOS>BOND
     1    1    2 1   
     2    1   11 1   
     3    1   12 1   
     4    1   13 1   
     5    2    3 1   
     6    2   14 1   
     7    2   15 1   
     8    3    4 1   
     9    3   16 1   
    10    3   17 1   
    11    4    5 1   
    12    4   18 1   
    13    4   19 1   
    14    5    6 1   
    15    5   20 1   
    16    5   21 1   
    17    6    7 1   
    18    6    8 1   
    19    6   22 1   
    20    7   23 1   
    21    7   24 1   
    22    7   25 1   
    23    8    9 1   
    24    8   26 1   
    25    8   28 1   
    26    9   10 2   
    27    9   27 1   
@<TRIPOS>SUBSTRUCTURE
     1 NMH         1 TEMP              0 ****  ****    0 ROOT
