@<TRIPOS>MOLECULE
NMH
   28    27     1     0     0
SMALL
bcc


@<TRIPOS>ATOM
      1 C7         -0.0980    0.2960    0.1170 c3        1 NMH     -0.097100
      2 C6          1.4000    0.1360    0.0640 c3        1 NMH     -0.079400
      3 C5          1.9840   -0.0110    1.4530 c3        1 NMH     -0.079400
      4 C4          3.4930   -0.1580    1.3970 c3        1 NMH     -0.095400
      5 C3          4.0600   -0.3570    2.7860 c3        1 NMH     -0.116400
      6 C2          5.5790   -0.1700    2.8510 c3        1 NMH      0.134500
      7 C1          6.0460   -0.2250    4.2980 c3        1 NMH     -0.136100
      8 N           6.2880   -1.2020    2.0000 n4        1 NMH     -0.703800
      9 C           7.7030   -0.7980    1.6940 c         1 NMH      0.544900
     10 O           8.0050   -0.6570    0.5260 o         1 NMH     -0.371100
     11 HC71       -0.5750   -0.5920    0.5980 hc        1 NMH      0.044700
     12 HC72       -0.5100    0.4010   -0.9160 hc        1 NMH      0.044700
     13 HC73       -0.3790    1.2060    0.7020 hc        1 NMH      0.044700
     14 HC61        1.8560    1.0280   -0.4430 hc        1 NMH      0.042700
     15 HC62        1.6600   -0.7650   -0.5510 hc        1 NMH      0.042700
     16 HC51        1.7160    0.8870    2.0700 hc        1 NMH      0.054200
     17 HC52        1.5370   -0.9080    1.9570 hc        1 NMH      0.054200
     18 HC41        3.7410   -1.0330    0.7380 hc        1 NMH      0.042700
     19 HC42        3.9360    0.7590    0.9260 hc        1 NMH      0.042700
     20 HC31        3.7720   -1.3660    3.1840 hc        1 NMH      0.088700
     21 HC32        3.6140    0.4090    3.4800 hc        1 NMH      0.088700
     22 HC2         5.8430    0.8360    2.4010 hx        1 NMH      0.109700
     23 HC11        5.7910   -1.2030    4.7760 hc        1 NMH      0.078700
     24 HC12        7.1450   -0.0480    4.3890 hc        1 NMH      0.078700
     25 HC13        5.5210    0.5850    4.8670 hc        1 NMH      0.078700
     26 HN'         6.2910   -2.1000    2.4970 hn        1 NMH      0.463300
     27 HC'         8.3290   -0.6700    2.6050 hx        1 NMH      0.135200
     28 HN3         5.7570   -1.3210    1.1240 hn        1 NMH      0.463300
@<TRIPOS>BOND
     1    1    2 1   
     2    1   11 1   
     3    1   12 1   
     4    1   13 1   
     5    2    3 1   
     6    2   14 1   
     7    2   15 1   
     8    3    4 1   
     9    3   16 1   
    10    3   17 1   
    11    4    5 1   
    12    4   18 1   
    13    4   19 1   
    14    5    6 1   
    15    5   20 1   
    16    5   21 1   
    17    6    7 1   
    18    6    8 1   
    19    6   22 1   
    20    7   23 1   
    21    7   24 1   
    22    7   25 1   
    23    8    9 1   
    24    8   26 1   
    25    8   28 1   
    26    9   10 2   
    27    9   27 1   
@<TRIPOS>SUBSTRUCTURE
     1 NMH         1 TEMP              0 ****  ****    0 ROOT
