@<TRIPOS>MOLECULE
NMH
   27    26     1     0     0
SMALL
bcc


@<TRIPOS>ATOM
      1 C7         -3.7640    0.0660   -2.1060 c3        1 NMH     -0.093100
      2 C6         -2.2570    0.0680   -2.0640 c3        1 NMH     -0.080400
      3 C5         -1.7910    0.0670   -0.6220 c3        1 NMH     -0.080400
      4 C4         -0.2360    0.1130   -0.5770 c3        1 NMH     -0.078400
      5 C3          0.2400    0.0740    0.8970 c3        1 NMH     -0.104400
      6 C2          1.7470    0.1320    0.9400 c3        1 NMH      0.107700
      7 C1          2.1830    1.4220    1.5820 c3        1 NMH     -0.108100
      8 N           2.2520   -0.9850    1.7080 n         1 NMH     -0.585900
      9 C           3.4640   -1.6540    1.2950 c         1 NMH      0.658900
     10 O           3.9050   -2.5870    1.9550 o         1 NMH     -0.610100
     11 HC71       -4.1050    0.8570   -1.6430 hc        1 NMH      0.034033
     12 HC72       -4.0610    0.0770   -3.0260 hc        1 NMH      0.034033
     13 HC73       -4.1040   -0.7500   -1.6590 hc        1 NMH      0.034033
     14 HC61       -1.9230    0.8590   -2.5100 hc        1 NMH      0.038700
     15 HC62       -1.9190   -0.7260   -2.5160 hc        1 NMH      0.038700
     16 HC51       -2.1090   -0.7490   -0.1770 hc        1 NMH      0.042200
     17 HC52       -2.1530    0.8510   -0.1620 hc        1 NMH      0.042200
     18 HC41        0.0810    0.9430   -1.0020 hc        1 NMH      0.040700
     19 HC42        0.1310   -0.6660   -1.0620 hc        1 NMH      0.040700
     20 HC31       -0.1270    0.8370    1.3760 hc        1 NMH      0.049700
     21 HC32       -0.0650   -0.7480    1.3150 hc        1 NMH      0.049700
     22 HC2         2.1020    0.0870    0.0270 h1        1 NMH      0.052700
     23 HC11        3.1580    1.4880    1.5520 hc        1 NMH      0.044700
     24 HC12        1.8820    1.4410    2.5190 hc        1 NMH      0.044700
     25 HC13        1.7860    2.1840    1.0940 hc        1 NMH      0.044700
     26 HN'         1.7750   -1.3030    2.4140 hn        1 NMH      0.313500
     27 HC'         3.9040   -1.3980    0.4530 h5        1 NMH      0.029200
@<TRIPOS>BOND
     1    1    2 1   
     2    1   11 1   
     3    1   12 1   
     4    1   13 1   
     5    2    3 1   
     6    2   14 1   
     7    2   15 1   
     8    3    4 1   
     9    3   16 1   
    10    3   17 1   
    11    4    5 1   
    12    4   18 1   
    13    4   19 1   
    14    5    6 1   
    15    5   20 1   
    16    5   21 1   
    17    6    7 1   
    18    6    8 1   
    19    6   22 1   
    20    7   23 1   
    21    7   24 1   
    22    7   25 1   
    23    8    9 1   
    24    8   26 1   
    25    9   10 2   
    26    9   27 1   
@<TRIPOS>SUBSTRUCTURE
     1 NMH         1 TEMP              0 ****  ****    0 ROOT
