@<TRIPOS>MOLECULE
NMH
   28    27     1     0     0
SMALL
bcc


@<TRIPOS>ATOM
      1 C7         -0.0870    0.2580    0.0810 c3        1 NMH     -0.097100
      2 C6          1.4080    0.0720    0.0400 c3        1 NMH     -0.079400
      3 C5          1.9890   -0.0020    1.4360 c3        1 NMH     -0.079400
      4 C4          3.4950   -0.1770    1.3910 c3        1 NMH     -0.095400
      5 C3          4.0580   -0.3000    2.7910 c3        1 NMH     -0.116400
      6 C2          5.5800   -0.1370    2.8460 c3        1 NMH      0.134500
      7 C1          6.0460   -0.1090    4.2940 c3        1 NMH     -0.136100
      8 N           6.2700   -1.2350    2.0630 n4        1 NMH     -0.703800
      9 C           7.6920   -0.8760    1.7320 c         1 NMH      0.544900
     10 O           7.9960   -0.8180    0.5580 o         1 NMH     -0.371100
     11 HC71       -0.4970    0.3090   -0.9570 hc        1 NMH      0.044700
     12 HC72       -0.3540    1.2040    0.6120 hc        1 NMH      0.044700
     13 HC73       -0.5780   -0.5930    0.6120 hc        1 NMH      0.044700
     14 HC61        1.6550   -0.8680   -0.5210 hc        1 NMH      0.042700
     15 HC62        1.8780    0.9250   -0.5170 hc        1 NMH      0.042700
     16 HC51        1.5260   -0.8600    1.9920 hc        1 NMH      0.054200
     17 HC52        1.7350    0.9350    1.9980 hc        1 NMH      0.054200
     18 HC41        3.7290   -1.0930    0.7860 hc        1 NMH      0.042700
     19 HC42        3.9530    0.7030    0.8660 hc        1 NMH      0.042700
     20 HC31        3.6260    0.5150    3.4360 hc        1 NMH      0.088700
     21 HC32        3.7520   -1.2770    3.2490 hc        1 NMH      0.088700
     22 HC2         5.8630    0.8330    2.3330 hx        1 NMH      0.109700
     23 HC11        7.1480    0.0530    4.3760 hc        1 NMH      0.078700
     24 HC12        5.7720   -1.0490    4.8330 hc        1 NMH      0.078700
     25 HC13        5.5360    0.7460    4.8090 hc        1 NMH      0.078700
     26 HN'         6.2580   -2.0980    2.6170 hn        1 NMH      0.463300
     27 HC'         8.3200   -0.6980    2.6330 hx        1 NMH      0.135200
     28 HN3         5.7360   -1.4000    1.1960 hn        1 NMH      0.463300
@<TRIPOS>BOND
     1    1    2 1   
     2    1   11 1   
     3    1   12 1   
     4    1   13 1   
     5    2    3 1   
     6    2   14 1   
     7    2   15 1   
     8    3    4 1   
     9    3   16 1   
    10    3   17 1   
    11    4    5 1   
    12    4   18 1   
    13    4   19 1   
    14    5    6 1   
    15    5   20 1   
    16    5   21 1   
    17    6    7 1   
    18    6    8 1   
    19    6   22 1   
    20    7   23 1   
    21    7   24 1   
    22    7   25 1   
    23    8    9 1   
    24    8   26 1   
    25    8   28 1   
    26    9   10 2   
    27    9   27 1   
@<TRIPOS>SUBSTRUCTURE
     1 NMH         1 TEMP              0 ****  ****    0 ROOT
