@<TRIPOS>MOLECULE
NMI
   27    28     1     0     0
SMALL
bcc


@<TRIPOS>ATOM
      1 CAA         0.1690    0.2910    0.0290 c3        1 NMI      0.037600
      2 NAN         1.5560   -0.0150   -0.0440 na        1 NMI     -0.089400
      3 CAH         2.4720    0.2060    1.0100 cc        1 NMI     -0.131100
      4 CAM         2.2950   -0.1010   -1.2340 ca        1 NMI     -0.046200
      5 CAG         1.8830   -0.2870   -2.5610 ca        1 NMI     -0.157000
      6 CAE         2.8650   -0.3960   -3.5370 ca        1 NMI     -0.126000
      7 CAD         4.2290   -0.3260   -3.2180 ca        1 NMI     -0.176000
      8 CAF         4.6540   -0.1440   -1.9070 ca        1 NMI     -0.073000
      9 CAL         3.7020   -0.0240   -0.8980 ca        1 NMI     -0.088800
     10 CAK         3.7800    0.1740    0.5410 cd        1 NMI     -0.077400
     11 CAJ         5.0110    0.2890    1.3380 c3        1 NMI     -0.017200
     12 CAI         4.9920    1.4400    2.3190 c3        1 NMI     -0.190400
     13 CAC         6.1200    1.3100    3.3600 c         1 NMI      0.906600
     14 OAB         6.4080    0.1590    3.7990 o         1 NMI     -0.850300
     15 O1          6.6870    2.3730    3.7420 o         1 NMI     -0.850300
     16 H1         -0.3880   -0.3130   -0.7350 h1        1 NMI      0.036700
     17 H2         -0.2110    0.0360    1.0540 h1        1 NMI      0.036700
     18 H3         -0.0290    1.3820   -0.1660 h1        1 NMI      0.036700
     19 H4          2.1120    0.3410    2.0320 h4        1 NMI      0.170000
     20 H5          0.8180   -0.3440   -2.8200 ha        1 NMI      0.118000
     21 H6          2.5670   -0.5380   -4.5860 ha        1 NMI      0.112000
     22 H7          4.9720   -0.4180   -4.0230 ha        1 NMI      0.117000
     23 H8          5.7240   -0.0910   -1.6590 ha        1 NMI      0.140000
     24 H9          5.8920    0.4020    0.6510 hc        1 NMI      0.060700
     25 H10         5.1720   -0.6630    1.9220 hc        1 NMI      0.060700
     26 H11         4.0210    1.4570    2.8750 hc        1 NMI      0.021700
     27 H12         5.0960    2.4150    1.7800 hc        1 NMI      0.021700
@<TRIPOS>BOND
     1    1    2 1   
     2    1   16 1   
     3    1   17 1   
     4    1   18 1   
     5    2    3 1   
     6    2    4 1   
     7    3   10 2   
     8    3   19 1   
     9    4    5 ar  
    10    4    9 ar  
    11    5    6 ar  
    12    5   20 1   
    13    6    7 ar  
    14    6   21 1   
    15    7    8 ar  
    16    7   22 1   
    17    8    9 ar  
    18    8   23 1   
    19    9   10 1   
    20   10   11 1   
    21   11   12 1   
    22   11   24 1   
    23   11   25 1   
    24   12   13 1   
    25   12   26 1   
    26   12   27 1   
    27   13   14 1   
    28   13   15 1   
@<TRIPOS>SUBSTRUCTURE
     1 NMI         1 TEMP              0 ****  ****    0 ROOT
