@<TRIPOS>MOLECULE
NMI
   27    28     1     0     0
SMALL
bcc


@<TRIPOS>ATOM
      1 CAA         0.1700    0.2870    0.0500 c3        1 NMI      0.037600
      2 NAN         1.5570   -0.0170   -0.0310 na        1 NMI     -0.089400
      3 CAH         2.4790    0.2100    1.0160 cc        1 NMI     -0.131100
      4 CAM         2.2880   -0.1080   -1.2250 ca        1 NMI     -0.046200
      5 CAG         1.8680   -0.3010   -2.5490 ca        1 NMI     -0.157000
      6 CAE         2.8440   -0.4120   -3.5310 ca        1 NMI     -0.126000
      7 CAD         4.2100   -0.3390   -3.2210 ca        1 NMI     -0.176000
      8 CAF         4.6430   -0.1490   -1.9140 ca        1 NMI     -0.073000
      9 CAL         3.6970   -0.0270   -0.8990 ca        1 NMI     -0.088800
     10 CAK         3.7840    0.1790    0.5380 cd        1 NMI     -0.077400
     11 CAJ         5.0200    0.2990    1.3270 c3        1 NMI     -0.017200
     12 CAI         5.0030    1.4510    2.3070 c3        1 NMI     -0.191400
     13 CAC         6.1400    1.3270    3.3390 c         1 NMI      0.906600
     14 OAB         6.4420    0.1780    3.7730 o         1 NMI     -0.850300
     15 O1          6.7020    2.3940    3.7190 o         1 NMI     -0.850300
     16 H1         -0.3910   -0.3220   -0.7090 h1        1 NMI      0.036700
     17 H2         -0.2040    0.0350    1.0780 h1        1 NMI      0.036700
     18 H3         -0.0310    1.3760   -0.1490 h1        1 NMI      0.036700
     19 H4          2.1260    0.3490    2.0390 h4        1 NMI      0.170000
     20 H5          0.8020   -0.3610   -2.8000 ha        1 NMI      0.118000
     21 H6          2.5390   -0.5600   -4.5770 ha        1 NMI      0.112000
     22 H7          4.9480   -0.4330   -4.0300 ha        1 NMI      0.117000
     23 H8          5.7150   -0.0930   -1.6730 ha        1 NMI      0.140000
     24 H9          5.8960    0.4170    0.6330 hc        1 NMI      0.060700
     25 H10         5.1900   -0.6520    1.9100 hc        1 NMI      0.060700
     26 H11         4.0360    1.4620    2.8720 hc        1 NMI      0.021700
     27 H12         5.0970    2.4260    1.7680 hc        1 NMI      0.021700
@<TRIPOS>BOND
     1    1    2 1   
     2    1   16 1   
     3    1   17 1   
     4    1   18 1   
     5    2    3 1   
     6    2    4 1   
     7    3   10 2   
     8    3   19 1   
     9    4    5 ar  
    10    4    9 ar  
    11    5    6 ar  
    12    5   20 1   
    13    6    7 ar  
    14    6   21 1   
    15    7    8 ar  
    16    7   22 1   
    17    8    9 ar  
    18    8   23 1   
    19    9   10 1   
    20   10   11 1   
    21   11   12 1   
    22   11   24 1   
    23   11   25 1   
    24   12   13 1   
    25   12   26 1   
    26   12   27 1   
    27   13   14 1   
    28   13   15 1   
@<TRIPOS>SUBSTRUCTURE
     1 NMI         1 TEMP              0 ****  ****    0 ROOT
