@<TRIPOS>MOLECULE
NML
   12    11     1     0     0
SMALL
bcc


@<TRIPOS>ATOM
      1 C1          0.9870   -0.2220    0.4580 c3        1 NML     -0.175100
      2 C2          0.9990   -0.9620    1.7740 c         1 NML      0.657100
      3 O2          0.9490   -2.2080    1.8220 o         1 NML     -0.610100
      4 N3          1.0680   -0.2040    2.9260 n         1 NML     -0.582900
      5 C3          1.0860   -0.7720    4.2340 c3        1 NML      0.080300
      6 HN3         1.1060    0.7830    2.8510 hn        1 NML      0.306500
      7 H11         0.9300   -0.9680   -0.3710 hc        1 NML      0.064700
      8 H12         0.1020    0.4560    0.3980 hc        1 NML      0.064700
      9 H13         1.9190    0.3810    0.3400 hc        1 NML      0.064700
     10 H31         0.2080   -0.4030    4.8300 h1        1 NML      0.043367
     11 H32         2.0290   -0.4790    4.7710 h1        1 NML      0.043367
     12 H33         1.0370   -1.8930    4.1700 h1        1 NML      0.043367
@<TRIPOS>BOND
     1    1    2 1   
     2    1    7 1   
     3    1    8 1   
     4    1    9 1   
     5    2    3 2   
     6    2    4 1   
     7    4    5 1   
     8    4    6 1   
     9    5   10 1   
    10    5   11 1   
    11    5   12 1   
@<TRIPOS>SUBSTRUCTURE
     1 NML         1 TEMP              0 ****  ****    0 ROOT
