@<TRIPOS>MOLECULE
NML
   13    12     1     0     0
SMALL
bcc


@<TRIPOS>ATOM
      1 C1          0.2830    0.3670    0.1000 c3        1 NML     -0.187100
      2 C2          1.4320   -0.5710   -0.0050 c         1 NML      0.553100
      3 O2          1.9080   -1.3110    0.8360 o         1 NML     -0.384100
      4 N3          2.1090   -0.6400   -1.3730 ny        1 NML     -0.685800
      5 C3          3.1370    0.4160   -1.5180 c3        1 NML      0.080100
      6 HN3         1.4010   -0.5380   -2.1070 hn        1 NML      0.463300
      7 H11         0.5350    1.3810   -0.3020 hc        1 NML      0.119033
      8 H12         0.0040    0.4670    1.1850 hc        1 NML      0.119033
      9 H13        -0.6010   -0.0420   -0.4550 hc        1 NML      0.119033
     10 H31         3.6290    0.3240   -2.5250 hx        1 NML      0.113700
     11 H32         2.6550    1.4270   -1.4290 hx        1 NML      0.113700
     12 H33         3.9110    0.2950   -0.7110 hx        1 NML      0.113700
     13 H321        2.5590   -1.5610   -1.4760 hn        1 NML      0.463300
@<TRIPOS>BOND
     1    1    2 1   
     2    1    7 1   
     3    1    8 1   
     4    1    9 1   
     5    2    3 2   
     6    2    4 1   
     7    4    5 1   
     8    4    6 1   
     9    4   13 1   
    10    5   10 1   
    11    5   11 1   
    12    5   12 1   
@<TRIPOS>SUBSTRUCTURE
     1 NML         1 TEMP              0 ****  ****    0 ROOT
