@<TRIPOS>MOLECULE
NML
   12    11     1     0     0
SMALL
bcc


@<TRIPOS>ATOM
      1 C1         -1.7310   -0.5300    0.7510 c3        1 NML     -0.175100
      2 C2         -0.2950   -0.0430    0.6320 c         1 NML      0.657100
      3 O2          0.2980    0.3710    1.6220 o         1 NML     -0.610100
      4 N3          0.3360    0.0170   -0.6690 n         1 NML     -0.582900
      5 C3          1.6860    0.4850   -0.7860 c3        1 NML      0.080300
      6 HN3        -0.1540   -0.1700   -1.4280 hn        1 NML      0.306500
      7 H11        -2.0180   -0.4980    1.6950 hc        1 NML      0.064700
      8 H12        -1.7890   -1.4610    0.4210 hc        1 NML      0.064700
      9 H13        -2.3240    0.0540    0.2030 hc        1 NML      0.064700
     10 H31         1.9520    0.4990   -1.7440 h1        1 NML      0.043367
     11 H32         1.7510    1.3950   -0.4140 h1        1 NML      0.043367
     12 H33         2.2890   -0.1200   -0.2840 h1        1 NML      0.043367
@<TRIPOS>BOND
     1    1    2 1   
     2    1    7 1   
     3    1    8 1   
     4    1    9 1   
     5    2    3 2   
     6    2    4 1   
     7    4    5 1   
     8    4    6 1   
     9    5   10 1   
    10    5   11 1   
    11    5   12 1   
@<TRIPOS>SUBSTRUCTURE
     1 NML         1 TEMP              0 ****  ****    0 ROOT
