@<TRIPOS>MOLECULE
NML
   13    12     1     0     0
SMALL
bcc


@<TRIPOS>ATOM
      1 C1          0.2720    0.3310    0.0970 c3        1 NML     -0.187100
      2 C2          1.4410   -0.5820   -0.0100 c         1 NML      0.553100
      3 O2          1.9300   -1.3170    0.8300 o         1 NML     -0.384100
      4 N3          2.1250   -0.6290   -1.3750 n4        1 NML     -0.685800
      5 C3          3.1300    0.4490   -1.5110 c3        1 NML      0.080100
      6 HN3         2.5940   -1.5400   -1.4820 hn        1 NML      0.463300
      7 H11         0.5040    1.3510   -0.3010 hc        1 NML      0.119033
      8 H12        -0.0110    0.4210    1.1810 hc        1 NML      0.119033
      9 H13        -0.6010   -0.0940   -0.4630 hc        1 NML      0.119033
     10 H31         3.9040    0.3390   -0.7020 hx        1 NML      0.113700
     11 H32         2.6270    1.4490   -1.4170 hx        1 NML      0.113700
     12 H33         3.6280    0.3730   -2.5160 hx        1 NML      0.113700
     13 H321        1.4170   -0.5380   -2.1110 hn        1 NML      0.463300
@<TRIPOS>BOND
     1    1    2 1   
     2    1    7 1   
     3    1    8 1   
     4    1    9 1   
     5    2    3 2   
     6    2    4 1   
     7    4    5 1   
     8    4    6 1   
     9    4   13 1   
    10    5   10 1   
    11    5   11 1   
    12    5   12 1   
@<TRIPOS>SUBSTRUCTURE
     1 NML         1 TEMP              0 ****  ****    0 ROOT
