@<TRIPOS>MOLECULE
NML
   13    12     1     0     0
SMALL
bcc


@<TRIPOS>ATOM
      1 C1         -0.0360    0.0000    0.0590 c3        1 NML     -0.192100
      2 C2          1.4520   -0.0010   -0.0020 c         1 NML      0.548100
      3 O2          2.2580   -0.0030    0.9090 o         1 NML     -0.379100
      4 N3          2.0320    0.0000   -1.4170 n4        1 NML     -0.682800
      5 C3          3.5110    0.0040   -1.4460 c3        1 NML      0.079100
      6 HN3         1.6770    0.8300   -1.9070 hn        1 NML      0.460800
      7 H11        -0.4590    0.9160   -0.4290 hc        1 NML      0.118700
      8 H12        -0.3450   -0.0020    1.1400 hc        1 NML      0.118700
      9 H13        -0.4610   -0.9120   -0.4330 hc        1 NML      0.118700
     10 H31         3.8600    0.0040   -2.5140 hx        1 NML      0.116367
     11 H32         3.8950    0.9180   -0.9170 hx        1 NML      0.116367
     12 H33         3.8990   -0.9090   -0.9160 hx        1 NML      0.116367
     13 H321        1.6810   -0.8310   -1.9060 hn        1 NML      0.460800
@<TRIPOS>BOND
     1    1    2 1   
     2    1    7 1   
     3    1    8 1   
     4    1    9 1   
     5    2    3 2   
     6    2    4 1   
     7    4    5 1   
     8    4    6 1   
     9    4   13 1   
    10    5   10 1   
    11    5   11 1   
    12    5   12 1   
@<TRIPOS>SUBSTRUCTURE
     1 NML         1 TEMP              0 ****  ****    0 ROOT
