@<TRIPOS>MOLECULE
NMM
   28    27     1     0     0
SMALL
bcc


@<TRIPOS>ATOM
      1 CAA         5.8680    0.1770    0.2160 c3        1 NMM      0.178100
      2 NH2         4.5680    0.6250   -0.2050 nh        1 NMM     -0.796200
      3 CZ          3.4640   -0.2990   -0.0520 c2        1 NMM      0.747100
      4 NH1         3.6530   -1.4550    0.5360 n2        1 NMM     -0.890100
      5 NE          2.2320    0.1640   -0.6250 nh        1 NMM     -0.842200
      6 CD          1.0030   -0.3800   -0.0830 c3        1 NMM      0.169800
      7 CG         -0.2310    0.4440   -0.4530 c3        1 NMM     -0.083400
      8 CB         -1.4700   -0.1880    0.1420 c3        1 NMM     -0.063400
      9 CA         -2.7460    0.5510   -0.2650 c3        1 NMM      0.016500
     10 C          -3.9710   -0.3500    0.1100 c         1 NMM      0.888600
     11 O          -4.9160    0.1770    0.7630 o         1 NMM     -0.841800
     12 OXT        -3.9520   -1.5490   -0.2820 o         1 NMM     -0.841800
     13 N          -2.8160    1.9100    0.2590 n3        1 NMM     -0.893800
     14 HAA1        5.8410   -0.0750    1.3080 h1        1 NMM      0.036033
     15 HAA2        6.2400   -0.7240   -0.3430 h1        1 NMM      0.036033
     16 HAA3        6.5880    1.0240    0.0550 h1        1 NMM      0.036033
     17 HH2         4.5940    0.9970   -1.1370 hn        1 NMM      0.381800
     18 HH1         2.8320   -1.9990    0.6860 hn        1 NMM      0.396400
     19 HE          2.1850    1.1550   -0.7540 hn        1 NMM      0.396800
     20 HD3         0.8820   -1.4220   -0.4960 h1        1 NMM      0.038700
     21 HD2         1.0490   -0.4640    1.0430 h1        1 NMM      0.038700
     22 HG3        -0.1190    1.4940   -0.0740 hc        1 NMM      0.044700
     23 HG2        -0.3360    0.4980   -1.5670 hc        1 NMM      0.044700
     24 HB3        -1.5760   -1.2470   -0.2160 hc        1 NMM      0.050200
     25 HB2        -1.3820   -0.2170    1.2590 hc        1 NMM      0.050200
     26 HA         -2.7550    0.6420   -1.3900 h1        1 NMM      0.040700
     27 H          -3.7590    2.2330    0.1160 hn        1 NMM      0.331300
     28 H2         -2.6820    1.8730    1.2540 hn        1 NMM      0.331300
@<TRIPOS>BOND
     1    1    2 1   
     2    1   14 1   
     3    1   15 1   
     4    1   16 1   
     5    2    3 1   
     6    2   17 1   
     7    3    4 2   
     8    3    5 1   
     9    4   18 1   
    10    5    6 1   
    11    5   19 1   
    12    6    7 1   
    13    6   20 1   
    14    6   21 1   
    15    7    8 1   
    16    7   22 1   
    17    7   23 1   
    18    8    9 1   
    19    8   24 1   
    20    8   25 1   
    21    9   10 1   
    22    9   13 1   
    23    9   26 1   
    24   10   11 1   
    25   10   12 1   
    26   13   27 1   
    27   13   28 1   
@<TRIPOS>SUBSTRUCTURE
     1 NMM         1 TEMP              0 ****  ****    0 ROOT
