@<TRIPOS>MOLECULE
NMP
   59    58     1     0     0
SMALL
bcc


@<TRIPOS>ATOM
      1 S27        -7.0150    5.9160   -6.3760 sh        1 NMP     -0.376900
      2 C26        -5.4110    5.1790   -6.3310 c3        1 NMP      0.010700
      3 C25        -5.1510    4.6010   -4.9350 c3        1 NMP     -0.098400
      4 C24        -3.8310    3.8380   -4.9390 c3        1 NMP      0.087000
      5 N23        -3.4080    3.6100   -3.5880 n         1 NMP     -0.561900
      6 C20        -2.2530    2.7720   -3.3220 c         1 NMP      0.633100
      7 O21        -1.8800    1.9710   -4.1550 o         1 NMP     -0.615100
      8 C19        -1.5780    2.8160   -1.9470 c3        1 NMP      0.033700
      9 C22        -0.7750    4.0780   -1.8210 c3        1 NMP     -0.106100
     10 N18        -0.7120    1.6850   -1.8020 n         1 NMP     -0.544900
     11 C16        -0.5730    1.0370   -0.5040 c         1 NMP      0.634100
     12 O17        -1.4430    1.1550    0.3270 o         1 NMP     -0.613100
     13 C15         0.7230    0.2830   -0.1570 c3        1 NMP      0.011000
     14 N14         0.4460   -0.7160    0.8470 n         1 NMP     -0.536900
     15 C6          1.3640   -0.9260    1.9120 c         1 NMP      0.655100
     16 O7          1.9590    0.0320    2.4060 o         1 NMP     -0.598100
     17 C5          1.4790   -2.3510    2.5780 c3        1 NMP      0.129500
     18 N4          0.6480   -2.3890    3.7890 nh        1 NMP     -0.769000
     19 C2         -0.3520   -3.4220    3.9490 c2        1 NMP      0.315000
     20 N3         -0.7240   -3.8530    5.2510 nh        1 NMP     -0.826600
     21 N1         -0.9210   -3.9680    2.8800 n1        1 NMP     -0.314000
     22 C8          2.7810   -2.5940    2.9120 c3        1 NMP     -0.087700
     23 C9          2.9720   -4.0300    3.5430 c3        1 NMP     -0.074400
     24 C10         4.4240   -4.3390    3.9010 c3        1 NMP     -0.073900
     25 C11         5.2750   -3.5300    3.2480 c3        1 NMP     -0.077400
     26 C12         5.1400   -3.1280    1.9630 c3        1 NMP     -0.073900
     27 C13         3.6930   -2.8340    1.6220 c3        1 NMP     -0.074400
     28 H27        -7.1710    6.4580   -7.4170 hs        1 NMP      0.202800
     29 H261       -4.7340    5.8580   -6.5350 h1        1 NMP      0.063200
     30 H262       -5.3640    4.4600   -6.9960 h1        1 NMP      0.063200
     31 H251       -5.8850    3.9870   -4.6900 hc        1 NMP      0.062200
     32 H252       -5.1040    5.3390   -4.2750 hc        1 NMP      0.062200
     33 H241       -3.9530    2.9780   -5.3930 h1        1 NMP      0.063700
     34 H242       -3.1560    4.3590   -5.4070 h1        1 NMP      0.063700
     35 H23        -3.8860    3.9510   -2.9030 hn        1 NMP      0.312500
     36 H19        -2.2700    2.7940   -1.2400 h1        1 NMP      0.101700
     37 H221       -0.1110    3.9740   -1.0940 hc        1 NMP      0.052700
     38 H222       -0.3110    4.2570   -2.6650 hc        1 NMP      0.052700
     39 H223       -1.3740    4.8260   -1.6120 hc        1 NMP      0.052700
     40 H18        -0.2830    1.3380   -2.5360 hn        1 NMP      0.328500
     41 H151        1.3900    0.9190    0.1890 h1        1 NMP      0.087200
     42 H152        1.0710   -0.1500   -0.9570 h1        1 NMP      0.087200
     43 H14        -0.2850   -1.2320    0.7780 hn        1 NMP      0.326500
     44 H5          1.1710   -3.0330    1.9490 h1        1 NMP      0.076700
     45 H4          0.7180   -1.7120    4.4180 hn        1 NMP      0.409800
     46 H31        -1.4360   -4.4150    5.3610 hn        1 NMP      0.393300
     47 H32        -0.2550   -3.5670    5.9760 hn        1 NMP      0.393300
     48 H1         -0.6810   -3.6900    2.0420 DU        1 NMP      0.157000
     49 H8          3.1540   -1.8850    3.4970 hc        1 NMP      0.082700
     50 H91         2.4300   -4.0920    4.3510 hc        1 NMP      0.040200
     51 H92         2.6570   -4.6980    2.9020 hc        1 NMP      0.040200
     52 H101        4.6200   -5.2590    3.6680 hc        1 NMP      0.042700
     53 H102        4.5470   -4.2190    4.8660 hc        1 NMP      0.042700
     54 H111        5.3290   -2.7000    3.7880 hc        1 NMP      0.042200
     55 H112        6.1620   -3.9650    3.3040 hc        1 NMP      0.042200
     56 H121        5.6710   -2.3190    1.8260 hc        1 NMP      0.042700
     57 H122        5.4700   -3.8280    1.3740 hc        1 NMP      0.042700
     58 H131        3.3300   -3.5900    1.1200 hc        1 NMP      0.040200
     59 H132        3.6580   -2.0350    1.0580 hc        1 NMP      0.040200
@<TRIPOS>BOND
     1    1    2 1   
     2    1   28 1   
     3    2    3 1   
     4    2   29 1   
     5    2   30 1   
     6    3    4 1   
     7    3   31 1   
     8    3   32 1   
     9    4    5 1   
    10    4   33 1   
    11    4   34 1   
    12    5    6 1   
    13    5   35 1   
    14    6    7 2   
    15    6    8 1   
    16    8    9 1   
    17    8   10 1   
    18    8   36 1   
    19    9   37 1   
    20    9   38 1   
    21    9   39 1   
    22   10   11 1   
    23   10   40 1   
    24   11   12 2   
    25   11   13 1   
    26   13   14 1   
    27   13   41 1   
    28   13   42 1   
    29   14   15 1   
    30   14   43 1   
    31   15   16 2   
    32   15   17 1   
    33   17   18 1   
    34   17   22 1   
    35   17   44 1   
    36   18   19 1   
    37   18   45 1   
    38   19   20 1   
    39   19   21 2   
    40   20   46 1   
    41   20   47 1   
    42   22   23 1   
    43   22   27 1   
    44   22   49 1   
    45   23   24 1   
    46   23   50 1   
    47   23   51 1   
    48   24   25 1   
    49   24   52 1   
    50   24   53 1   
    51   25   26 1   
    52   25   54 1   
    53   25   55 1   
    54   26   27 1   
    55   26   56 1   
    56   26   57 1   
    57   27   58 1   
    58   27   59 1   
@<TRIPOS>SUBSTRUCTURE
     1 NMP         1 TEMP              0 ****  ****    0 ROOT
