@<TRIPOS>MOLECULE
NMP
   59    59     1     0     0
SMALL
bcc


@<TRIPOS>ATOM
      1 S27        -1.4270   -0.9170   -8.8730 sh        1 NMP     -0.376900
      2 C26        -1.4770   -1.3350   -7.1510 c3        1 NMP      0.010700
      3 C25        -0.7710   -0.2280   -6.4120 c3        1 NMP     -0.098400
      4 C24        -0.8660   -0.4760   -4.9020 c3        1 NMP      0.087000
      5 N23        -0.2280    0.5320   -4.1010 n         1 NMP     -0.560900
      6 C20         0.8980    0.2830   -3.3500 c         1 NMP      0.634100
      7 O21         1.3830   -0.8610   -3.2410 o         1 NMP     -0.612100
      8 C19         1.5410    1.4980   -2.6300 c3        1 NMP      0.031700
      9 C22         2.5590    2.0960   -3.6030 c3        1 NMP     -0.105100
     10 N18         2.1310    1.1010   -1.3740 n         1 NMP     -0.546900
     11 C16         1.6470    1.5600   -0.1650 c         1 NMP      0.634100
     12 O17         0.7910    2.4660   -0.1000 o         1 NMP     -0.616100
     13 C15         2.2930    0.9630    1.0980 c3        1 NMP      0.013000
     14 N14         1.5570    1.2450    2.2950 n         1 NMP     -0.538900
     15 C6          1.0100    0.2400    3.0690 c         1 NMP      0.657100
     16 O7          1.3290   -0.9540    2.8970 o         1 NMP     -0.622100
     17 C5          0.0520    0.6740    4.2040 c3        1 NMP      0.123500
     18 N4          0.7960    0.8840    5.4340 nh        1 NMP     -0.788200
     19 C2          1.4060   -0.2990    6.0300 c2        1 NMP      0.726100
     20 N3          2.6330   -0.7430    5.4310 nh        1 NMP     -0.897800
     21 N1          0.8950   -0.7970    7.1240 n2        1 NMP     -0.849100
     22 C8         -1.1290   -0.3200    4.2490 c3        1 NMP     -0.086700
     23 C9         -2.1170    0.0690    5.3400 c3        1 NMP     -0.080400
     24 C10        -3.3190   -0.8540    5.3480 c3        1 NMP     -0.073400
     25 C11        -4.0020   -0.8960    3.9980 c3        1 NMP     -0.079400
     26 C12        -3.0220   -1.2770    2.9090 c3        1 NMP     -0.073400
     27 C13        -1.8270   -0.3460    2.8950 c3        1 NMP     -0.080400
     28 H27        -2.0080   -1.9970   -9.3660 hs        1 NMP      0.203800
     29 H261       -0.9700   -2.3130   -6.9700 h1        1 NMP      0.063200
     30 H262       -2.5350   -1.4290   -6.8070 h1        1 NMP      0.063200
     31 H251       -1.2380    0.7590   -6.6710 hc        1 NMP      0.062200
     32 H252        0.3050   -0.1870   -6.7280 hc        1 NMP      0.062200
     33 H241       -0.4040   -1.4770   -4.6630 h1        1 NMP      0.064700
     34 H242       -1.9560   -0.5130   -4.6120 h1        1 NMP      0.064700
     35 H23        -0.5280    1.4690   -4.2260 hn        1 NMP      0.312500
     36 H19         0.7510    2.2790   -2.4070 h1        1 NMP      0.099700
     37 H221        3.3450    1.3490   -3.8700 hc        1 NMP      0.052700
     38 H222        2.0300    2.4120   -4.5330 hc        1 NMP      0.052700
     39 H223        3.0520    2.9890   -3.1490 hc        1 NMP      0.052700
     40 H18         2.6740    0.2660   -1.3950 hn        1 NMP      0.329500
     41 H151        2.4120   -0.1540    0.9850 h1        1 NMP      0.089700
     42 H152        3.3180    1.4280    1.1900 h1        1 NMP      0.089700
     43 H14         1.1790    2.1650    2.3670 hn        1 NMP      0.329500
     44 H5         -0.3860    1.6900    3.9490 h1        1 NMP      0.072700
     45 H4          0.2090    1.3520    6.1050 hn        1 NMP      0.403800
     46 H31         2.5720   -1.6980    5.1360 hn        1 NMP      0.389300
     47 H32         2.9430   -0.1660    4.6760 hn        1 NMP      0.389300
     48 H1          1.4030   -1.5440    7.5450 hn        1 NMP      0.403400
     49 H8         -0.7230   -1.3470    4.4670 hc        1 NMP      0.078700
     50 H91        -1.6250    0.0200    6.3470 hc        1 NMP      0.046450
     51 H92        -2.4560    1.1260    5.1740 hc        1 NMP      0.046450
     52 H101       -2.9900   -1.8880    5.6330 hc        1 NMP      0.043450
     53 H102       -4.0460   -0.5050    6.1280 hc        1 NMP      0.043450
     54 H111       -4.8430   -1.6360    4.0240 hc        1 NMP      0.039700
     55 H112       -4.4440    0.1090    3.7690 hc        1 NMP      0.039700
     56 H121       -2.6720   -2.3300    3.0710 hc        1 NMP      0.043450
     57 H122       -3.5320   -1.2410    1.9110 hc        1 NMP      0.043450
     58 H131       -2.1650    0.6900    2.6270 hc        1 NMP      0.046450
     59 H132       -1.1040   -0.6860    2.1070 hc        1 NMP      0.046450
@<TRIPOS>BOND
     1    1    2 1   
     2    1   28 1   
     3    2    3 1   
     4    2   29 1   
     5    2   30 1   
     6    3    4 1   
     7    3   31 1   
     8    3   32 1   
     9    4    5 1   
    10    4   33 1   
    11    4   34 1   
    12    5    6 1   
    13    5   35 1   
    14    6    7 2   
    15    6    8 1   
    16    8    9 1   
    17    8   10 1   
    18    8   36 1   
    19    9   37 1   
    20    9   38 1   
    21    9   39 1   
    22   10   11 1   
    23   10   40 1   
    24   11   12 2   
    25   11   13 1   
    26   13   14 1   
    27   13   41 1   
    28   13   42 1   
    29   14   15 1   
    30   14   43 1   
    31   15   16 2   
    32   15   17 1   
    33   17   18 1   
    34   17   22 1   
    35   17   44 1   
    36   18   19 1   
    37   18   45 1   
    38   19   20 1   
    39   19   21 2   
    40   20   46 1   
    41   20   47 1   
    42   21   48 1   
    43   22   23 1   
    44   22   27 1   
    45   22   49 1   
    46   23   24 1   
    47   23   50 1   
    48   23   51 1   
    49   24   25 1   
    50   24   52 1   
    51   24   53 1   
    52   25   26 1   
    53   25   54 1   
    54   25   55 1   
    55   26   27 1   
    56   26   56 1   
    57   26   57 1   
    58   27   58 1   
    59   27   59 1   
@<TRIPOS>SUBSTRUCTURE
     1 NMP         1 TEMP              0 ****  ****    0 ROOT
