@<TRIPOS>MOLECULE
NMP
   59    59     1     0     0
SMALL
bcc


@<TRIPOS>ATOM
      1 S27         0.7040   -0.6380    0.3950 sh        1 NMP     -0.376900
      2 C26         2.1990   -1.3950    0.9710 c3        1 NMP      0.010700
      3 C25         2.8250   -0.4380    1.9520 c3        1 NMP     -0.098400
      4 C24         4.0710   -1.0780    2.5730 c3        1 NMP      0.087000
      5 N23         4.7430   -0.2450    3.5310 n         1 NMP     -0.561900
      6 C20         5.9990    0.2740    3.3150 c         1 NMP      0.634100
      7 O21         6.6750   -0.0210    2.3090 o         1 NMP     -0.611100
      8 C19         6.5480    1.2500    4.3900 c3        1 NMP      0.032700
      9 C22         6.1360    2.6570    3.9550 c3        1 NMP     -0.105100
     10 N18         7.9760    1.1040    4.5390 n         1 NMP     -0.548900
     11 C16         8.5420    0.6360    5.7100 c         1 NMP      0.635100
     12 O17         7.8660    0.4710    6.7450 o         1 NMP     -0.617100
     13 C15        10.0670    0.4290    5.6930 c3        1 NMP      0.020000
     14 N14        10.5310   -0.3890    6.7710 n         1 NMP     -0.541900
     15 C6         11.2270   -1.5600    6.5590 c         1 NMP      0.657100
     16 O7         11.6370   -1.8790    5.4270 o         1 NMP     -0.608100
     17 C5         11.5020   -2.4340    7.8090 c3        1 NMP      0.125500
     18 N4         12.3410   -1.7260    8.7530 nh        1 NMP     -0.829200
     19 C2         13.7270   -1.4800    8.4150 c2        1 NMP      0.729100
     20 N3         14.5770   -1.2930    9.5660 nh        1 NMP     -0.881800
     21 N1         14.2450   -1.3890    7.2220 n2        1 NMP     -0.865100
     22 C8         11.9570   -3.8410    7.3620 c3        1 NMP     -0.087700
     23 C9         12.4990   -4.6470    8.5330 c3        1 NMP     -0.077900
     24 C10        12.8710   -6.0530    8.1070 c3        1 NMP     -0.073900
     25 C11        11.7070   -6.7680    7.4540 c3        1 NMP     -0.079400
     26 C12        11.1640   -5.9650    6.2910 c3        1 NMP     -0.073900
     27 C13        10.7780   -4.5670    6.7240 c3        1 NMP     -0.077900
     28 H27         0.3360   -1.5500   -0.4880 hs        1 NMP      0.203800
     29 H261        2.8930   -1.5920    0.1190 h1        1 NMP      0.063200
     30 H262        1.9720   -2.3720    1.4620 h1        1 NMP      0.063200
     31 H251        3.1020    0.5150    1.4280 hc        1 NMP      0.061700
     32 H252        2.0830   -0.1790    2.7550 hc        1 NMP      0.061700
     33 H241        4.7960   -1.3450    1.7510 h1        1 NMP      0.064700
     34 H242        3.7640   -2.0320    3.0930 h1        1 NMP      0.064700
     35 H23         4.2120    0.0790    4.3030 hn        1 NMP      0.312500
     36 H19         6.0730    1.0280    5.3950 h1        1 NMP      0.099700
     37 H221        6.5630    2.9090    2.9550 hc        1 NMP      0.052367
     38 H222        6.4880    3.4130    4.6970 hc        1 NMP      0.052367
     39 H223        5.0220    2.7060    3.8930 hc        1 NMP      0.052367
     40 H18         8.4980    1.0560    3.6930 hn        1 NMP      0.329500
     41 H151       10.3940   -0.0250    4.7120 h1        1 NMP      0.088200
     42 H152       10.5310    1.4560    5.7850 h1        1 NMP      0.088200
     43 H14        10.1410   -0.2080    7.6690 hn        1 NMP      0.333500
     44 H5         10.5050   -2.5690    8.3390 h1        1 NMP      0.075700
     45 H4         12.2370   -2.1210    9.6700 hn        1 NMP      0.402800
     46 H31        15.5190   -1.0760    9.3020 hn        1 NMP      0.388800
     47 H32        14.2150   -0.5980   10.1860 hn        1 NMP      0.388800
     48 H1         13.6680   -1.6330    6.4480 hn        1 NMP      0.420400
     49 H8         12.7660   -3.7340    6.5850 hc        1 NMP      0.083700
     50 H91        13.4140   -4.1510    8.9530 hc        1 NMP      0.044450
     51 H92        11.7270   -4.6910    9.3450 hc        1 NMP      0.044450
     52 H101       13.7310   -6.0070    7.3880 hc        1 NMP      0.043950
     53 H102       13.2130   -6.6320    9.0050 hc        1 NMP      0.043950
     54 H111       10.8950   -6.9310    8.2100 hc        1 NMP      0.039700
     55 H112       12.0390   -7.7770    7.0950 hc        1 NMP      0.039700
     56 H121       11.9380   -5.9060    5.4810 hc        1 NMP      0.043950
     57 H122       10.2670   -6.4820    5.8620 hc        1 NMP      0.043950
     58 H131       10.4250   -3.9830    5.8320 hc        1 NMP      0.044450
     59 H132        9.9300   -4.6250    7.4560 hc        1 NMP      0.044450
@<TRIPOS>BOND
     1    1    2 1   
     2    1   28 1   
     3    2    3 1   
     4    2   29 1   
     5    2   30 1   
     6    3    4 1   
     7    3   31 1   
     8    3   32 1   
     9    4    5 1   
    10    4   33 1   
    11    4   34 1   
    12    5    6 1   
    13    5   35 1   
    14    6    7 2   
    15    6    8 1   
    16    8    9 1   
    17    8   10 1   
    18    8   36 1   
    19    9   37 1   
    20    9   38 1   
    21    9   39 1   
    22   10   11 1   
    23   10   40 1   
    24   11   12 2   
    25   11   13 1   
    26   13   14 1   
    27   13   41 1   
    28   13   42 1   
    29   14   15 1   
    30   14   43 1   
    31   15   16 2   
    32   15   17 1   
    33   17   18 1   
    34   17   22 1   
    35   17   44 1   
    36   18   19 1   
    37   18   45 1   
    38   19   20 1   
    39   19   21 2   
    40   20   46 1   
    41   20   47 1   
    42   21   48 1   
    43   22   23 1   
    44   22   27 1   
    45   22   49 1   
    46   23   24 1   
    47   23   50 1   
    48   23   51 1   
    49   24   25 1   
    50   24   52 1   
    51   24   53 1   
    52   25   26 1   
    53   25   54 1   
    54   25   55 1   
    55   26   27 1   
    56   26   56 1   
    57   26   57 1   
    58   27   58 1   
    59   27   59 1   
@<TRIPOS>SUBSTRUCTURE
     1 NMP         1 TEMP              0 ****  ****    0 ROOT
