@<TRIPOS>MOLECULE
NMP
   64    64     1     0     0
SMALL
bcc


@<TRIPOS>ATOM
      1 S27         0.0000    0.0000    0.0000 sh        1 NMP     -0.032900
      2 C26         1.8140    0.0000    0.0000 c3        1 NMP      0.052700
      3 C25         2.3240    0.0000    1.4430 c3        1 NMP     -0.004400
      4 C24         3.8530   -0.0020    1.4440 c3        1 NMP     -0.025200
      5 N23         4.3410   -0.0020    2.8240 ny        1 NMP      0.162200
      6 C20         5.6660   -0.0020    3.0710 c         1 NMP      0.367100
      7 O21         6.4540   -0.0020    2.1500 o         1 NMP     -0.385100
      8 C19         6.1680   -0.0030    4.4920 c3        1 NMP     -0.134500
      9 C22         5.6580    1.2460    5.2130 c3        1 NMP     -0.005100
     10 N18         7.6330   -0.0030    4.4920 ny        1 NMP      0.177200
     11 C16         8.3060   -0.5880    5.5040 c         1 NMP      0.311100
     12 O17         7.7000   -1.1120    6.4120 o         1 NMP     -0.406100
     13 C15         9.8130   -0.5870    5.5040 c3        1 NMP     -0.064200
     14 N14        10.3000   -1.2780    6.7000 ny        1 NMP      0.183200
     15 C6         11.6260   -1.4020    6.9140 c         1 NMP      0.256100
     16 O7         12.4130   -0.9410    6.1160 o         1 NMP     -0.499100
     17 C5         12.1270   -2.1130    8.1440 c3        1 NMP     -0.103500
     18 N4         13.4180   -1.5460    8.5430 ny        1 NMP      0.099000
     19 C2         14.4840   -1.5880    7.6780 c2        1 NMP     -0.029900
     20 N3         15.6950   -1.0560    8.0520 nz        1 NMP      0.196400
     21 N1         14.3470   -2.1320    6.5020 n2        1 NMP     -0.245100
     22 C8         12.2970   -3.6020    7.8390 c3        1 NMP     -0.101700
     23 C9         12.8070   -4.3230    9.0880 c3        1 NMP     -0.011400
     24 C10        12.9760   -5.8130    8.7830 c3        1 NMP     -0.012400
     25 C11        11.6290   -6.4040    8.3660 c3        1 NMP     -0.023400
     26 C12        11.1190   -5.6830    7.1170 c3        1 NMP     -0.012400
     27 C13        10.9500   -4.1930    7.4210 c3        1 NMP     -0.011400
     28 H27        -0.4430    0.0550   -1.2500 hs        1 NMP      0.262800
     29 H261        2.1750    0.8850   -0.5110 h1        1 NMP      0.069700
     30 H262        2.1750   -0.8850   -0.5110 h1        1 NMP      0.069700
     31 H251        1.9610   -0.8840    1.9540 hc        1 NMP      0.054700
     32 H252        1.9630    0.8850    1.9540 hc        1 NMP      0.054700
     33 H241        4.2140   -0.8870    0.9330 hx        1 NMP      0.104200
     34 H242        4.2160    0.8820    0.9330 hx        1 NMP      0.104200
     35 H23         3.9630    0.8110    3.2670 hn        1 NMP      0.281300
     36 H19         5.8070   -0.8880    5.0030 hx        1 NMP      0.138700
     37 H221        5.7080    2.0960    4.5430 hc        1 NMP      0.068367
     38 H222        4.6320    1.0900    5.5230 hc        1 NMP      0.068367
     39 H223        6.2730    1.4370    6.0850 hc        1 NMP      0.068367
     40 H18         7.9250    0.9540    4.4630 hn        1 NMP      0.286300
     41 H151       10.1730    0.4340    5.5050 hx        1 NMP      0.126700
     42 H152       10.1740   -1.0970    4.6190 hx        1 NMP      0.126700
     43 H14         9.9220   -0.7950    7.4900 hn        1 NMP      0.283300
     44 H5         11.4130   -1.9880    8.9490 hx        1 NMP      0.132700
     45 H4         13.2570   -0.5830    8.7610 hn        1 NMP      0.271800
     46 H31        15.5750   -0.0940    8.3000 hn        1 NMP      0.260800
     47 H32        16.3410   -1.1260    7.2900 hn        1 NMP      0.260800
     48 H1         13.4670   -2.5200    6.2260 hn        1 NMP      0.396400
     49 H8         13.0110   -3.7310    7.0340 hc        1 NMP      0.055700
     50 H91        13.7620   -3.9050    9.3800 hc        1 NMP      0.009450
     51 H92        12.0910   -4.1990    9.8920 hc        1 NMP      0.009450
     52 H101       13.6890   -5.9360    7.9760 hc        1 NMP      0.052950
     53 H102       13.3340   -6.3230    9.6690 hc        1 NMP      0.052950
     54 H111       11.7500   -7.4580    8.1470 hc        1 NMP      0.062700
     55 H112       10.9150   -6.2770    9.1710 hc        1 NMP      0.062700
     56 H121       10.1630   -6.1010    6.8250 hc        1 NMP      0.052950
     57 H122       11.8340   -5.8070    6.3130 hc        1 NMP      0.052950
     58 H131       10.2360   -4.0690    8.2270 hc        1 NMP      0.009450
     59 H132       10.5930   -3.6840    6.5340 hc        1 NMP      0.009450
     60 H232        3.9630   -0.8170    3.2660 hn        1 NMP      0.281300
     61 H182        7.9250   -0.4520    3.6470 hn        1 NMP      0.286300
     62 H142        9.9180   -2.2030    6.6770 hn        1 NMP      0.283300
     63 H42        13.7020   -2.0250    9.3740 hn        1 NMP      0.271800
     64 H33        16.0530   -1.5600    8.8390 hn        1 NMP      0.260800
@<TRIPOS>BOND
     1    1    2 1   
     2    1   28 1   
     3    2    3 1   
     4    2   29 1   
     5    2   30 1   
     6    3    4 1   
     7    3   31 1   
     8    3   32 1   
     9    4    5 1   
    10    4   33 1   
    11    4   34 1   
    12    5    6 1   
    13    5   35 1   
    14    5   60 1   
    15    6    7 2   
    16    6    8 1   
    17    8    9 1   
    18    8   10 1   
    19    8   36 1   
    20    9   37 1   
    21    9   38 1   
    22    9   39 1   
    23   10   11 1   
    24   10   40 1   
    25   10   61 1   
    26   11   12 2   
    27   11   13 1   
    28   13   14 1   
    29   13   41 1   
    30   13   42 1   
    31   14   15 1   
    32   14   43 1   
    33   14   62 1   
    34   15   16 2   
    35   15   17 1   
    36   17   18 1   
    37   17   22 1   
    38   17   44 1   
    39   18   19 1   
    40   18   45 1   
    41   18   63 1   
    42   19   20 1   
    43   19   21 2   
    44   20   46 1   
    45   20   47 1   
    46   20   64 1   
    47   21   48 1   
    48   22   23 1   
    49   22   27 1   
    50   22   49 1   
    51   23   24 1   
    52   23   50 1   
    53   23   51 1   
    54   24   25 1   
    55   24   52 1   
    56   24   53 1   
    57   25   26 1   
    58   25   54 1   
    59   25   55 1   
    60   26   27 1   
    61   26   56 1   
    62   26   57 1   
    63   27   58 1   
    64   27   59 1   
@<TRIPOS>SUBSTRUCTURE
     1 NMP         1 TEMP              0 ****  ****    0 ROOT
