@<TRIPOS>MOLECULE
NMS
   45    45     1     0     0
SMALL
bcc


@<TRIPOS>ATOM
      1 P           0.5400    5.3950    1.0210 p4        1 NMS      1.714200
      2 OP2         2.0520    5.3290    0.9760 os        1 NMS     -1.267000
      3 OP1         0.0830    5.4850    2.4590 o         1 NMS     -0.909500
      4 O5'        -0.0690    4.0810    0.3500 os        1 NMS     -0.570200
      5 N1          0.4940    0.5260   -1.6960 n         1 NMS     -0.371000
      6 C6          1.4910   -0.4930   -1.6620 cc        1 NMS      0.049600
      7 C2          0.6220    1.6430   -2.6320 c         1 NMS      0.797500
      8 O2         -0.2990    2.4280   -2.7700 o         1 NMS     -0.700500
      9 N3          1.8080    1.7420   -3.5040 n         1 NMS     -0.598500
     10 C4          2.7440    0.6760   -3.5520 c         1 NMS      0.717700
     11 O4          3.6220    0.6750   -4.3920 o         1 NMS     -0.682500
     12 C5          2.6220   -0.4490   -2.6160 cd        1 NMS     -0.286400
     13 C5M         3.5790   -1.6300   -2.7170 c3        1 NMS     -0.044900
     14 C2'        -0.3250   -0.3650    0.4980 c3        1 NMS      0.100100
     15 C5'         0.5300    2.8250    0.6540 c3        1 NMS      0.222400
     16 C4'        -0.4560    1.8660    0.7990 c3        1 NMS      0.065100
     17 O4'        -1.1190    1.5630   -0.5640 os        1 NMS     -0.430600
     18 C1'        -0.6790    0.4000   -0.8920 c3        1 NMS      0.303500
     19 C3'         0.1670    0.5200    1.2750 c3        1 NMS      0.081100
     20 O3'        -0.2230    0.2390    2.6990 oh        1 NMS     -0.680800
     21 O6'        -1.5470   -0.9310    1.0880 os        1 NMS     -0.419600
     22 C7'        -1.6520   -2.3330    0.9510 c3        1 NMS      0.071400
     23 C8'        -2.5780   -2.8730    2.0090 c         1 NMS      0.658100
     24 O8'        -2.7600   -2.2470    3.0290 o         1 NMS     -0.679100
     25 N9'        -3.3020   -4.0790    1.7750 n         1 NMS     -0.546900
     26 C10        -3.7890   -4.8330    2.8680 c3        1 NMS      0.088300
     27 OP3         0.0660    6.6150    0.2650 o         1 NMS     -0.958300
     28 H6          1.4060   -1.2430   -1.0340 h4        1 NMS      0.297000
     29 HN3         1.8850    2.4390   -4.0870 hn        1 NMS      0.322500
     30 H71         3.2110   -2.3930   -2.2210 hc        1 NMS      0.059033
     31 H72         4.4480   -1.3810   -2.3360 hc        1 NMS      0.059033
     32 H73         3.6950   -1.8780   -3.6590 hc        1 NMS      0.059033
     33 H2'         0.3310   -1.0740    0.3360 h1        1 NMS      0.058700
     34 H5'         1.1340    2.5660   -0.0740 h1        1 NMS      0.002700
     35 H5''        1.0370    2.8990    1.4870 h1        1 NMS      0.002700
     36 H4'        -1.1340    2.1720    1.4440 h1        1 NMS      0.045700
     37 H1'        -1.3720   -0.0960   -1.3830 h2        1 NMS      0.113700
     38 H3'         1.1370    0.5460    1.1880 h1        1 NMS      0.155700
     39 HO3'        0.4800    0.3860    3.2350 ho        1 NMS      0.507000
     40 H7'1       -2.0100   -2.5510    0.0590 h1        1 NMS      0.071700
     41 H7'2       -0.7640   -2.7390    1.0560 h1        1 NMS      0.071700
     42 H9'        -3.4060   -4.3960    0.9130 hn        1 NMS      0.363500
     43 H101       -3.0340   -5.1500    3.4090 h1        1 NMS      0.028367
     44 H102       -4.3700   -4.2730    3.4160 h1        1 NMS      0.028367
     45 H103       -4.3000   -5.6070    2.5320 h1        1 NMS      0.028367
@<TRIPOS>BOND
     1    1    3 1   
     2    1    4 1   
     3    1   27 2   
     4    4   15 1   
     5    5    6 1   
     6    5    7 1   
     7    5   18 1   
     8    6   12 2   
     9    6   28 1   
    10    7    8 2   
    11    7    9 1   
    12    9   10 1   
    13    9   29 1   
    14   10   11 2   
    15   10   12 1   
    16   12   13 1   
    17   13   30 1   
    18   13   31 1   
    19   13   32 1   
    20   14   18 1   
    21   14   19 1   
    22   14   21 1   
    23   14   33 1   
    24   15   16 1   
    25   15   34 1   
    26   15   35 1   
    27   16   17 1   
    28   16   19 1   
    29   16   36 1   
    30   17   18 1   
    31   18   37 1   
    32   19   20 1   
    33   19   38 1   
    34   20   39 1   
    35   21   22 1   
    36   22   23 1   
    37   22   40 1   
    38   22   41 1   
    39   23   24 2   
    40   23   25 1   
    41   25   26 1   
    42   25   42 1   
    43   26   43 1   
    44   26   44 1   
    45   26   45 1   
@<TRIPOS>SUBSTRUCTURE
     1 NMS         1 TEMP              0 ****  ****    0 ROOT
