@<TRIPOS>MOLECULE
NMS
   45    46     1     0     0
SMALL
bcc


@<TRIPOS>ATOM
      1 P           3.7680   -1.6000   -2.6150 p5        1 NMS      1.429800
      2 OP2         3.3110   -1.2470   -4.1460 oh        1 NMS     -0.781400
      3 OP1         5.1380   -2.1280   -2.7930 o         1 NMS     -0.842500
      4 O5'         3.8950   -0.0530   -2.0540 os        1 NMS     -0.583200
      5 N1         -0.1660    2.8870    0.2940 n         1 NMS     -0.323400
      6 C6         -1.1660    2.3230   -0.4620 c1        1 NMS     -0.099900
      7 C2         -0.1010    4.2840    0.5400 c         1 NMS      0.724100
      8 O2          0.7560    4.8270    1.2900 o         1 NMS     -0.703100
      9 N3         -1.0850    5.0900   -0.0490 n         1 NMS     -0.595500
     10 C4         -2.1330    4.5650   -0.8480 c         1 NMS      0.677300
     11 O4         -2.9410    5.4070   -1.3160 o         1 NMS     -0.717100
     12 C5         -2.1470    3.1280   -1.0150 ce        1 NMS     -0.492500
     13 C5M        -3.2420    2.5410   -1.8070 c3        1 NMS      0.042100
     14 C2'         0.5280    0.5520    0.9480 c3        1 NMS      0.061100
     15 C5'         2.7100    0.6010   -1.7160 c3        1 NMS      0.186400
     16 C4'         2.6570    0.8480   -0.1980 c3        1 NMS      0.090100
     17 O4'         2.1010    2.1480    0.0500 os        1 NMS     -0.431600
     18 C1'         0.8940    2.0640    0.8410 c3        1 NMS      0.319500
     19 C3'         1.8180   -0.1970    0.5550 c3        1 NMS      0.082100
     20 O3'         2.4940   -0.6990    1.6950 oh        1 NMS     -0.600800
     21 O6'         0.2300    0.2890    2.3210 os        1 NMS     -0.424600
     22 C7'        -1.0560   -0.2500    2.5600 c3        1 NMS      0.071400
     23 C8'        -1.0670   -1.7720    2.7060 c         1 NMS      0.627100
     24 O8'        -2.0860   -2.3270    3.1850 o         1 NMS     -0.674100
     25 N9'         0.0280   -2.4930    2.3120 n         1 NMS     -0.555900
     26 C10         0.0710   -3.9180    2.3330 c3        1 NMS      0.086300
     27 OP3         2.6490   -2.2390   -1.8920 o         1 NMS     -0.842500
     28 H6          4.0610   -1.1600   -4.7220 ho        1 NMS      0.420000
     29 HN3        -1.0250    6.0690    0.1030 hn        1 NMS      0.302500
     30 H71        -3.0510    1.4570   -1.9950 hc        1 NMS      0.002033
     31 H72        -3.3440    3.0650   -2.7910 hc        1 NMS      0.002033
     32 H73        -4.2220    2.6410   -1.2720 hc        1 NMS      0.002033
     33 H2'        -0.3210    0.2920    0.2570 h1        1 NMS      0.139700
     34 H5'         2.7050    1.6040   -2.2300 h1        1 NMS      0.044700
     35 H5''        1.8210    0.0010   -2.0510 h1        1 NMS      0.044700
     36 H4'         3.7050    0.8800    0.2090 h1        1 NMS      0.068700
     37 H1'         1.1730    2.4810    1.8570 h2        1 NMS      0.069700
     38 H3'         1.6210   -1.1090   -0.0810 h1        1 NMS      0.152700
     39 HO3'        2.5800    0.0320    2.3190 ho        1 NMS      0.396000
     40 H7'1       -1.7940    0.0330    1.7620 h1        1 NMS      0.083200
     41 H7'2       -1.3740    0.1880    3.5460 h1        1 NMS      0.083200
     42 H9'         0.8310   -2.0080    1.9680 hn        1 NMS      0.356500
     43 H101        0.5240   -4.2960    1.3770 h1        1 NMS      0.034367
     44 H102       -0.9630   -4.3400    2.4490 h1        1 NMS      0.034367
     45 H103        0.7020   -4.2780    3.1930 h1        1 NMS      0.034367
@<TRIPOS>BOND
     1    1    2 1   
     2    1    3 1   
     3    1    4 1   
     4    1   27 1   
     5    2   28 1   
     6    4   15 1   
     7    5    6 2   
     8    5    7 1   
     9    5   18 1   
    10    6   12 2   
    11    7    8 2   
    12    7    9 1   
    13    9   10 1   
    14    9   29 1   
    15   10   11 2   
    16   10   12 1   
    17   12   13 1   
    18   13   30 1   
    19   13   31 1   
    20   13   32 1   
    21   14   18 1   
    22   14   19 1   
    23   14   21 1   
    24   14   33 1   
    25   15   16 1   
    26   15   34 1   
    27   15   35 1   
    28   16   17 1   
    29   16   19 1   
    30   16   36 1   
    31   17   18 1   
    32   18   37 1   
    33   19   20 1   
    34   19   38 1   
    35   20   39 1   
    36   21   22 1   
    37   22   23 1   
    38   22   40 1   
    39   22   41 1   
    40   23   24 2   
    41   23   25 1   
    42   25   26 1   
    43   25   42 1   
    44   26   43 1   
    45   26   44 1   
    46   26   45 1   
@<TRIPOS>SUBSTRUCTURE
     1 NMS         1 TEMP              0 ****  ****    0 ROOT
