@<TRIPOS>MOLECULE
NMT
   44    45     1     0     0
SMALL
bcc


@<TRIPOS>ATOM
      1 P           4.5740   -0.4220   -3.7130 p5        1 NMT      1.426800
      2 OP3         4.2000    0.4920   -5.0190 oh        1 NMT     -0.782400
      3 OP2         3.4830   -1.3830   -3.4510 o         1 NMT     -0.840500
      4 O5'         4.4750    0.7700   -2.5760 os        1 NMT     -0.581200
      5 N1          0.0230    2.3530    0.4070 n         1 NMT     -0.317400
      6 C6         -1.1540    1.8970   -0.1300 c1        1 NMT     -0.121900
      7 C2          0.1600    3.6800    0.8930 c         1 NMT      0.730100
      8 O2          1.1630    4.1030    1.5240 o         1 NMT     -0.681100
      9 N3         -0.9200    4.5570    0.6880 n         1 NMT     -0.598500
     10 C4         -2.1460    4.1470    0.1130 c         1 NMT      0.677300
     11 O4         -3.0330    5.0310    0.0060 o         1 NMT     -0.718100
     12 C5         -2.2330    2.7530   -0.2680 ce        1 NMT     -0.496500
     13 C5M        -3.5080    2.2710   -0.8260 c3        1 NMT      0.041100
     14 C2'         0.9010   -0.0030    0.0700 c3        1 NMT      0.099100
     15 C5'         3.2000    1.1270   -2.1380 c3        1 NMT      0.184400
     16 C4'         3.0590    0.8380   -0.6350 c3        1 NMT      0.081100
     17 O4'         2.3390    1.9210   -0.0200 os        1 NMT     -0.425600
     18 C1'         1.1320    1.4400    0.6150 c3        1 NMT      0.305500
     19 C3'         2.3130   -0.4780   -0.3360 c3        1 NMT      0.105100
     20 O3'         2.9470   -1.2130    0.6930 oh        1 NMT     -0.590800
     21 O6'         0.4170   -0.8620    1.0930 os        1 NMT     -0.451600
     22 C7'        -0.9970   -0.7600    1.2940 c3        1 NMT      0.531100
     23 N8'        -1.2540   -0.3020    2.6520 n3        1 NMT     -0.861200
     24 C9'        -2.4940    0.3990    2.8160 c3        1 NMT      0.166100
     25 O7'        -1.4160   -2.1040    1.0790 oh        1 NMT     -0.662800
     26 OP1         6.0060   -0.7250   -3.9230 o         1 NMT     -0.840500
     27 H6          4.9780    0.8700   -5.4120 ho        1 NMT      0.418000
     28 HN3        -0.8060    5.4950    0.9910 hn        1 NMT      0.303500
     29 H71        -3.3770    1.2620   -1.2900 hc        1 NMT      0.002033
     30 H72        -3.8960    2.9780   -1.6010 hc        1 NMT      0.002033
     31 H73        -4.2890    2.1890   -0.0260 hc        1 NMT      0.002033
     32 H2'         0.2110   -0.0020   -0.8170 h1        1 NMT      0.111700
     33 H5'         3.0740    2.2380   -2.2890 h1        1 NMT      0.042200
     34 H5''        2.4140    0.5760   -2.7230 h1        1 NMT      0.042200
     35 H4'         4.0770    0.8320   -0.1560 h1        1 NMT      0.073700
     36 H1'         1.3570    1.4120    1.7240 h2        1 NMT      0.058700
     37 H3'         2.3040   -1.1690   -1.2240 h1        1 NMT      0.144700
     38 HO3'        2.8050   -0.7260    1.5140 ho        1 NMT      0.392000
     39 H7'        -1.5040   -0.0920    0.5190 h3        1 NMT      0.178700
     40 H8'        -1.1380   -1.0360    3.3200 hn        1 NMT      0.349800
     41 H9'1       -2.5750    1.1990    2.0260 h1        1 NMT      0.029700
     42 H9'2       -2.4940    0.8840    3.8280 h1        1 NMT      0.029700
     43 H9'3       -3.4010   -0.2640    2.7450 h1        1 NMT      0.029700
     44 H1         -0.6620   -2.6890    1.2270 ho        1 NMT      0.412000
@<TRIPOS>BOND
     1    1    2 1   
     2    1    3 1   
     3    1    4 1   
     4    1   26 1   
     5    2   27 1   
     6    4   15 1   
     7    5    6 2   
     8    5    7 1   
     9    5   18 1   
    10    6   12 2   
    11    7    8 2   
    12    7    9 1   
    13    9   10 1   
    14    9   28 1   
    15   10   11 2   
    16   10   12 1   
    17   12   13 1   
    18   13   29 1   
    19   13   30 1   
    20   13   31 1   
    21   14   18 1   
    22   14   19 1   
    23   14   21 1   
    24   14   32 1   
    25   15   16 1   
    26   15   33 1   
    27   15   34 1   
    28   16   17 1   
    29   16   19 1   
    30   16   35 1   
    31   17   18 1   
    32   18   36 1   
    33   19   20 1   
    34   19   37 1   
    35   20   38 1   
    36   21   22 1   
    37   22   23 1   
    38   22   25 1   
    39   22   39 1   
    40   23   24 1   
    41   23   40 1   
    42   24   41 1   
    43   24   42 1   
    44   24   43 1   
    45   25   44 1   
@<TRIPOS>SUBSTRUCTURE
     1 NMT         1 TEMP              0 ****  ****    0 ROOT
