@<TRIPOS>MOLECULE
NMT
   44    44     1     0     0
SMALL
bcc


@<TRIPOS>ATOM
      1 P           0.8550   -3.0440    4.2940 p4        1 NMT      1.694200
      2 OP3         0.5610   -4.3170    3.4880 os        1 NMT     -1.232000
      3 OP2         2.3480   -2.8920    4.4700 o         1 NMT     -0.925000
      4 O5'         0.2770   -1.7670    3.5050 os        1 NMT     -0.579200
      5 N1          1.1450   -0.8290   -1.0190 n         1 NMT     -0.372000
      6 C6          0.0680   -0.9490   -1.9530 cc        1 NMT      0.063600
      7 C2          2.1910   -1.8500   -0.9820 c         1 NMT      0.798500
      8 O2          3.1370   -1.7280   -0.2180 o         1 NMT     -0.695500
      9 N3          2.0680   -3.0550   -1.8220 n         1 NMT     -0.598500
     10 C4          1.1110   -3.0910   -2.8720 c         1 NMT      0.718700
     11 O4          1.1010   -4.0410   -3.6700 o         1 NMT     -0.678500
     12 C5          0.0550   -2.0790   -2.9250 cd        1 NMT     -0.293400
     13 C5M        -0.9290   -2.0680   -4.0840 c3        1 NMT     -0.030900
     14 C2'        -0.2050    0.9260    0.1890 c3        1 NMT      0.111100
     15 C5'         0.6990   -1.5600    2.1610 c3        1 NMT      0.205400
     16 C4'         0.7420   -0.2220    1.8910 c3        1 NMT      0.068100
     17 O4'         1.8890    0.0900    0.8530 os        1 NMT     -0.428600
     18 C1'         1.2800    0.3520   -0.2380 c3        1 NMT      0.298500
     19 C3'        -0.5790    0.2360    1.2080 c3        1 NMT      0.089100
     20 O3'        -1.3790    1.0930    2.1520 oh        1 NMT     -0.657800
     21 O6'        -0.1120    2.3500    0.5510 os        1 NMT     -0.471600
     22 C7'        -0.9770    3.1920   -0.1980 c3        1 NMT      0.567100
     23 N8'        -0.8170    4.5530    0.2310 n3        1 NMT     -0.875200
     24 C9'        -2.0970    5.2790    0.0580 c3        1 NMT      0.147100
     25 O7'        -0.6650    3.0950   -1.5340 oh        1 NMT     -0.606800
     26 OP1         0.1940   -3.1450    5.6490 o         1 NMT     -0.973800
     27 H6         -0.6290   -0.2740   -1.9820 h4        1 NMT      0.276000
     28 HN3         2.6050   -3.7680   -1.6730 hn        1 NMT      0.323500
     29 H71        -0.4420   -2.1280   -4.9260 hc        1 NMT      0.054367
     30 H72        -1.4300   -1.2610   -4.0660 hc        1 NMT      0.054367
     31 H73        -1.5260   -2.8190   -4.0040 hc        1 NMT      0.054367
     32 H2'        -0.8330    0.8070   -0.5430 h1        1 NMT      0.052700
     33 H5'         0.0550   -2.0050    1.5380 h1        1 NMT      0.017200
     34 H5''        1.5890   -1.9440    2.0390 h1        1 NMT      0.017200
     35 H4'         0.8880    0.2800    2.7120 h1        1 NMT      0.044700
     36 H1'         1.7760    1.0380   -0.7450 h2        1 NMT      0.107700
     37 H3'        -1.1070   -0.5450    0.9200 h1        1 NMT      0.162700
     38 HO3'       -2.0650    0.6530    2.4300 ho        1 NMT      0.486000
     39 H7'        -1.9440    2.9020   -0.0530 h3        1 NMT      0.072700
     40 H8'        -0.5680    4.5690    1.1330 hn        1 NMT      0.399800
     41 H9'1       -2.4470    5.1070   -0.8310 h1        1 NMT      0.041033
     42 H9'2       -2.7260    4.9780    0.7110 h1        1 NMT      0.041033
     43 H9'3       -1.9460    6.2440    0.1700 h1        1 NMT      0.041033
     44 H1         -1.2110    3.6390   -2.0120 ho        1 NMT      0.414000
@<TRIPOS>BOND
     1    1    3 1   
     2    1    4 1   
     3    1   26 2   
     4    4   15 1   
     5    5    6 1   
     6    5    7 1   
     7    5   18 1   
     8    6   12 2   
     9    6   27 1   
    10    7    8 2   
    11    7    9 1   
    12    9   10 1   
    13    9   28 1   
    14   10   11 2   
    15   10   12 1   
    16   12   13 1   
    17   13   29 1   
    18   13   30 1   
    19   13   31 1   
    20   14   18 1   
    21   14   19 1   
    22   14   21 1   
    23   14   32 1   
    24   15   16 1   
    25   15   33 1   
    26   15   34 1   
    27   16   17 1   
    28   16   19 1   
    29   16   35 1   
    30   17   18 1   
    31   18   36 1   
    32   19   20 1   
    33   19   37 1   
    34   20   38 1   
    35   21   22 1   
    36   22   23 1   
    37   22   25 1   
    38   22   39 1   
    39   23   24 1   
    40   23   40 1   
    41   24   41 1   
    42   24   42 1   
    43   24   43 1   
    44   25   44 1   
@<TRIPOS>SUBSTRUCTURE
     1 NMT         1 TEMP              0 ****  ****    0 ROOT
