@<TRIPOS>MOLECULE
NMU
   13    12     1     0     0
SMALL
bcc


@<TRIPOS>ATOM
      1 C1          0.0360   -0.0000   -0.0230 c         1 NMU      0.479100
      2 O2          1.2530   -0.0040   -0.0400 o         1 NMU     -0.234100
      3 N3         -0.6730    0.0110    1.2960 nz        1 NMU     -0.734400
      4 N4         -0.7810   -0.0060   -1.2740 ny        1 NMU     -0.633800
      5 C5          0.0990   -0.0080   -2.4940 c3        1 NMU      0.082100
      6 HN31       -1.2630   -0.8300    1.4260 hn        1 NMU      0.523133
      7 HN32       -1.2550    0.8590    1.4160 hn        1 NMU      0.523133
      8 HN4        -1.3860    0.8360   -1.3070 hn        1 NMU      0.504800
      9 H51        -0.5830   -0.0130   -3.3950 hx        1 NMU      0.153700
     10 H52         0.7450    0.9150   -2.5030 hx        1 NMU      0.153700
     11 H53         0.7500   -0.9270   -2.4960 hx        1 NMU      0.153700
     12 H33         0.0540    0.0120    2.0490 hn        1 NMU      0.523133
     13 H42        -1.3820   -0.8500   -1.3020 hn        1 NMU      0.504800
@<TRIPOS>BOND
     1    1    2 2   
     2    1    3 1   
     3    1    4 1   
     4    3    6 1   
     5    3    7 1   
     6    3   12 1   
     7    4    5 1   
     8    4    8 1   
     9    4   13 1   
    10    5    9 1   
    11    5   10 1   
    12    5   11 1   
@<TRIPOS>SUBSTRUCTURE
     1 NMU         1 TEMP              0 ****  ****    0 ROOT
