@<TRIPOS>MOLECULE
NMU
   11     9     1     0     0
SMALL
bcc


@<TRIPOS>ATOM
      1 C1          0.3710    0.1060    0.7640 c1        1 NMU      0.354000
      2 O2          1.4090   -0.4480    0.8170 o         1 NMU     -0.395000
      3 N3         -0.2010    0.6810    1.9620 n2        1 NMU     -0.403000
      4 N4         -0.3780    0.1170   -0.4730 n3        1 NMU     -0.352000
      5 C5          0.1140   -0.5760   -1.5970 c3        1 NMU     -0.089000
      6 HN31        0.2400    0.6300    2.7340 hn        1 NMU      0.211500
      7 HN32       -1.0410    1.1390    1.9210 hn        1 NMU      0.211500
      8 HN4        -1.2020    0.4990   -0.5020 hn        1 NMU      0.204000
      9 H51         1.0090   -0.1700   -1.8850 h1        1 NMU      0.086000
     10 H52         0.2360   -1.4800   -1.3770 h1        1 NMU      0.086000
     11 H53        -0.5560   -0.5000   -2.3640 h1        1 NMU      0.086000
@<TRIPOS>BOND
     1    1    2 1   
     2    1    4 1   
     3    3    6 1   
     4    3    7 1   
     5    4    5 1   
     6    4    8 1   
     7    5    9 1   
     8    5   10 1   
     9    5   11 1   
@<TRIPOS>SUBSTRUCTURE
     1 NMU         1 TEMP              0 ****  ****    0 ROOT
