@<TRIPOS>MOLECULE
NMU
   11    10     1     0     0
SMALL
bcc


@<TRIPOS>ATOM
      1 C1         -0.4790   -0.0450   -0.0930 c         1 NMU      0.727100
      2 O2         -0.4450   -1.2770   -0.3310 o         1 NMU     -0.634100
      3 N3         -1.7160    0.5760    0.1420 n         1 NMU     -0.643000
      4 N4          0.7000    0.7300   -0.0680 n         1 NMU     -0.542900
      5 C5          1.9570    0.0430    0.0070 c3        1 NMU      0.066300
      6 HN31       -1.8020    1.5480   -0.0300 hn        1 NMU      0.298000
      7 HN32       -2.5020    0.0230   -0.1130 hn        1 NMU      0.298000
      8 HN4         0.6610    1.5880    0.4340 hn        1 NMU      0.290500
      9 H51         2.7510    0.7270   -0.3940 h1        1 NMU      0.046700
     10 H52         2.2220   -0.2450    1.0610 h1        1 NMU      0.046700
     11 H53         1.9170   -0.8890   -0.6170 h1        1 NMU      0.046700
@<TRIPOS>BOND
     1    1    2 2   
     2    1    3 1   
     3    1    4 1   
     4    3    6 1   
     5    3    7 1   
     6    4    5 1   
     7    4    8 1   
     8    5    9 1   
     9    5   10 1   
    10    5   11 1   
@<TRIPOS>SUBSTRUCTURE
     1 NMU         1 TEMP              0 ****  ****    0 ROOT
