@<TRIPOS>MOLECULE
NMU
   13    12     1     0     0
SMALL
bcc


@<TRIPOS>ATOM
      1 C1          0.0330    0.0010   -0.0210 c         1 NMU      0.479100
      2 O2          1.2500   -0.0010   -0.0330 o         1 NMU     -0.234100
      3 N3         -0.6810    0.0110    1.2950 n4        1 NMU     -0.734400
      4 N4         -0.7790   -0.0080   -1.2750 n4        1 NMU     -0.633800
      5 C5          0.1060   -0.0060   -2.4920 c3        1 NMU      0.082100
      6 HN31        0.0430    0.0130    2.0500 hn        1 NMU      0.523133
      7 HN32       -1.2710   -0.8300    1.4220 hn        1 NMU      0.523133
      8 HN4        -1.3760   -0.8550   -1.3060 hn        1 NMU      0.504800
      9 H51         0.7600   -0.9230   -2.4920 hx        1 NMU      0.153700
     10 H52         0.7480    0.9200   -2.4980 hx        1 NMU      0.153700
     11 H53        -0.5730   -0.0140   -3.3960 hx        1 NMU      0.153700
     12 H33        -1.2640    0.8590    1.4120 hn        1 NMU      0.523133
     13 H42        -1.3870    0.8310   -1.3110 hn        1 NMU      0.504800
@<TRIPOS>BOND
     1    1    2 2   
     2    1    3 1   
     3    1    4 1   
     4    3    6 1   
     5    3    7 1   
     6    3   12 1   
     7    4    5 1   
     8    4    8 1   
     9    4   13 1   
    10    5    9 1   
    11    5   10 1   
    12    5   11 1   
@<TRIPOS>SUBSTRUCTURE
     1 NMU         1 TEMP              0 ****  ****    0 ROOT
