@<TRIPOS>MOLECULE
NMU
   13    12     1     0     0
SMALL
bcc


@<TRIPOS>ATOM
      1 C1          0.0350   -0.0010   -0.0220 c         1 NMU      0.479100
      2 O2          1.2520   -0.0010   -0.0370 o         1 NMU     -0.234100
      3 N3         -0.6760   -0.0020    1.2960 n4        1 NMU     -0.734400
      4 N4         -0.7800   -0.0000   -1.2740 n4        1 NMU     -0.633800
      5 C5          0.1020    0.0010   -2.4930 c3        1 NMU      0.082100
      6 HN31       -1.2620   -0.8460    1.4190 hn        1 NMU      0.523133
      7 HN32       -1.2620    0.8430    1.4200 hn        1 NMU      0.523133
      8 HN4        -1.3830    0.8430   -1.3060 hn        1 NMU      0.504800
      9 H51        -0.5790    0.0010   -3.3960 hx        1 NMU      0.153700
     10 H52         0.7500    0.9220   -2.4980 hx        1 NMU      0.153700
     11 H53         0.7500   -0.9210   -2.4990 hx        1 NMU      0.153700
     12 H33         0.0500   -0.0020    2.0490 hn        1 NMU      0.523133
     13 H42        -1.3830   -0.8430   -1.3060 hn        1 NMU      0.504800
@<TRIPOS>BOND
     1    1    2 2   
     2    1    3 1   
     3    1    4 1   
     4    3    6 1   
     5    3    7 1   
     6    3   12 1   
     7    4    5 1   
     8    4    8 1   
     9    4   13 1   
    10    5    9 1   
    11    5   10 1   
    12    5   11 1   
@<TRIPOS>SUBSTRUCTURE
     1 NMU         1 TEMP              0 ****  ****    0 ROOT
