@<TRIPOS>MOLECULE
NN1
   56    56     1     0     0
SMALL
bcc


@<TRIPOS>ATOM
      1 C4          2.9610    0.0420    3.2400 c1        1 NN1      0.052000
      2 C5         -0.4540    0.4620   -5.5140 c3        1 NN1     -0.944000
      3 C6          4.2830   -0.3770    3.1010 c2        1 NN1     -0.050000
      4 C7          2.5830    0.8120    4.3540 c1        1 NN1     -0.137000
      5 C8          3.5260    1.1540    5.3140 c1        1 NN1     -0.145000
      6 C10         4.8640    0.7290    5.1740 c1        1 NN1      0.086000
      7 C15        -2.0550   -0.0270   -0.0750 c3        1 NN1      0.028000
      8 C17        -3.6110   -0.5210   -1.8230 c3        1 NN1     -0.150000
      9 C20        -2.0920    1.3610   -0.4480 c3        1 NN1     -0.105000
     10 C21        -0.8740    1.5380   -1.4200 c3        1 NN1     -0.131000
     11 C22        -1.1500    0.5690   -2.6730 c3        1 NN1     -0.707000
     12 C24        -1.2810   -0.9220   -2.1410 c3        1 NN1     -0.131000
     13 C1          1.1200   -1.8110    3.4590 c3        1 NN1     -0.220500
     14 C2          1.1340   -1.1750    2.0490 c3        1 NN1      0.072000
     15 C3          1.5990   -2.2240    1.0110 c3        1 NN1     -0.220500
     16 O3          2.0580   -0.0310    2.0350 o         1 NN1     -0.214000
     17 C14        -0.2420   -0.7110    1.7020 c2        1 NN1      0.277000
     18 O1         -1.0880   -0.6880    2.5380 o         1 NN1     -0.373000
     19 N4         -0.5790   -0.3960    0.3120 n         1 NN1     -0.364000
     20 C16        -2.4820   -0.9200   -1.0770 c3        1 NN1     -0.105000
     21 C18        -3.6340    0.8620   -2.1950 c3        1 NN1     -0.096000
     22 C19        -3.2230    1.7700   -1.2150 c3        1 NN1     -0.150000
     23 C23        -2.5270    0.9870   -3.3400 c3        1 NN1     -0.123000
     24 S1          0.1690    0.6890   -3.8480 s6        1 NN1      2.792000
     25 O2          1.2060   -0.2410   -3.5560 o         1 NN1     -0.929000
     26 O4          0.8540    1.9110   -3.7220 o         1 NN1     -0.929000
     27 C9          5.2390   -0.0280    4.0810 c1        1 NN1     -0.152000
     28 CL1         4.7860   -1.1550    1.6580 cl        1 NN1      0.016000
     29 F1          5.8370    1.0590    6.0560 f         1 NN1     -0.100000
     30 H51        -1.0600    1.1560   -5.7200 h1        1 NN1      0.158000
     31 H52         0.3030    0.4820   -6.1540 h1        1 NN1      0.158000
     32 H53        -0.9090   -0.3970   -5.5770 h1        1 NN1      0.158000
     33 H7          1.6240    1.1180    4.4560 ha        1 NN1      0.159000
     34 H8          3.2640    1.6860    6.0840 ha        1 NN1      0.156000
     35 H15        -2.6190   -0.1500    0.7100 h1        1 NN1      0.131000
     36 H171       -4.4120   -0.7090   -1.2920 hc        1 NN1      0.088750
     37 H172       -3.6480   -1.0670   -2.6490 hc        1 NN1      0.088750
     38 H20        -1.9810    1.9560    0.3740 hc        1 NN1      0.103500
     39 H211       -0.8150    2.4720   -1.7210 hc        1 NN1      0.098750
     40 H212       -0.0230    1.2700   -0.9570 hc        1 NN1      0.098750
     41 H241       -0.4570   -1.1950   -1.7110 hc        1 NN1      0.098750
     42 H242       -1.4990   -1.5540   -2.9190 hc        1 NN1      0.098750
     43 H11         0.6930   -1.1650    4.1160 hc        1 NN1      0.098667
     44 H12         2.0470   -2.0040    3.7430 hc        1 NN1      0.098667
     45 H13         0.5830   -2.6760    3.4350 hc        1 NN1      0.098667
     46 H31         1.9370   -1.7550    0.1910 hc        1 NN1      0.098667
     47 H32         0.8370   -2.8080    0.7670 hc        1 NN1      0.098667
     48 H33         2.3180   -2.7690    1.3950 hc        1 NN1      0.098667
     49 HN4         0.0680   -0.4050   -0.3260 hn        1 NN1      0.239000
     50 H16        -2.6140   -1.8260   -0.7030 hc        1 NN1      0.103500
     51 H18        -4.5530    1.1190   -2.5600 hc        1 NN1      0.097000
     52 H191       -3.9810    1.9200   -0.5930 hc        1 NN1      0.088750
     53 H192       -3.0050    2.6320   -1.6600 hc        1 NN1      0.088750
     54 H231       -2.4800    1.9060   -3.6620 hc        1 NN1      0.091500
     55 H232       -2.7400    0.3760   -4.0880 hc        1 NN1      0.091500
     56 H9          6.1940   -0.3300    3.9830 ha        1 NN1      0.166000
@<TRIPOS>BOND
     1    1    3 1   
     2    1    4 1   
     3    2   24 1   
     4    2   30 1   
     5    2   31 1   
     6    2   32 1   
     7    3   27 1   
     8    3   28 1   
     9    4   33 1   
    10    5    6 1   
    11    5   34 1   
    12    6   29 1   
    13    7    9 1   
    14    7   19 1   
    15    7   20 1   
    16    7   35 1   
    17    8   20 1   
    18    8   21 1   
    19    8   36 1   
    20    8   37 1   
    21    9   10 1   
    22    9   22 1   
    23    9   38 1   
    24   10   11 1   
    25   10   39 1   
    26   10   40 1   
    27   11   12 1   
    28   11   23 1   
    29   11   24 1   
    30   12   20 1   
    31   12   41 1   
    32   12   42 1   
    33   13   14 1   
    34   13   43 1   
    35   13   44 1   
    36   13   45 1   
    37   14   15 1   
    38   14   16 1   
    39   14   17 1   
    40   15   46 1   
    41   15   47 1   
    42   15   48 1   
    43   17   18 1   
    44   17   19 1   
    45   19   49 1   
    46   20   50 1   
    47   21   22 1   
    48   21   23 1   
    49   21   51 1   
    50   22   52 1   
    51   22   53 1   
    52   23   54 1   
    53   23   55 1   
    54   24   25 1   
    55   24   26 1   
    56   27   56 1   
@<TRIPOS>SUBSTRUCTURE
     1 NN1         1 TEMP              0 ****  ****    0 ROOT
