@<TRIPOS>MOLECULE
NN1
   56    59     1     0     0
SMALL
bcc


@<TRIPOS>ATOM
      1 C4          3.7470   -2.6720    3.0640 ca        1 NN1      0.096100
      2 C5         -1.8390   -2.9660   -4.2790 c3        1 NN1     -0.367300
      3 C6          4.2900   -2.2250    4.2850 ca        1 NN1      0.027400
      4 C7          2.4340   -3.1650    3.0190 ca        1 NN1     -0.137000
      5 C8          1.6590   -3.2100    4.1700 ca        1 NN1     -0.145000
      6 C10         2.1970   -2.7510    5.3870 ca        1 NN1      0.121900
      7 C15         1.9580   -2.4530   -1.4330 c3        1 NN1      0.103700
      8 C17         0.9300   -0.3290   -0.5110 c3        1 NN1     -0.072900
      9 C20         2.2830   -1.6690   -2.7300 c3        1 NN1     -0.066200
     10 C21         1.1070   -1.8330   -3.6870 c3        1 NN1     -0.043900
     11 C22        -0.1690   -1.2520   -3.0810 c3        1 NN1     -0.247200
     12 C24        -0.4610   -1.9690   -1.7650 c3        1 NN1     -0.043900
     13 C1          5.9370   -3.3450    0.2680 c3        1 NN1     -0.102100
     14 C2          4.6600   -3.6400    1.0500 c3        1 NN1      0.093800
     15 C3          4.7860   -4.9450    1.8130 c3        1 NN1     -0.102100
     16 O3          4.4990   -2.4960    1.9160 os        1 NN1     -0.334900
     17 C14         3.4720   -3.7140    0.0610 c         1 NN1      0.631100
     18 O1          2.9360   -4.8080   -0.2090 o         1 NN1     -0.610100
     19 N4          3.0850   -2.5380   -0.5360 n         1 NN1     -0.550900
     20 C16         0.7020   -1.8070   -0.7940 c3        1 NN1     -0.066200
     21 C18         1.2430    0.3970   -1.8140 c3        1 NN1     -0.053700
     22 C19         2.5020   -0.1920   -2.4390 c3        1 NN1     -0.072900
     23 C23         0.0760    0.2340   -2.7770 c3        1 NN1     -0.060400
     24 S1         -1.5140   -1.3110   -4.1860 s6        1 NN1      1.313000
     25 O2         -1.0970   -0.8490   -5.4440 o         1 NN1     -0.649800
     26 O4         -2.6170   -0.6680   -3.5990 o         1 NN1     -0.649800
     27 C9          3.5110   -2.2570    5.4440 ca        1 NN1     -0.152000
     28 CL1         5.8750   -1.6300    4.3950 cl        1 NN1     -0.063400
     29 F1          1.4460   -2.7870    6.5130 f         1 NN1     -0.133900
     30 H51        -0.9340   -3.6160   -4.3580 h1        1 NN1      0.119700
     31 H52        -2.4260   -3.3400   -3.4030 h1        1 NN1      0.119700
     32 H53        -2.4570   -3.1960   -5.1860 h1        1 NN1      0.119700
     33 H7          2.0210   -3.5250    2.0630 ha        1 NN1      0.158000
     34 H8          0.6300   -3.5980    4.1400 ha        1 NN1      0.157000
     35 H15         1.6880   -3.5140   -1.7270 h1        1 NN1      0.085700
     36 H171        1.7720   -0.1930    0.2150 hc        1 NN1      0.047200
     37 H172        0.0090    0.1090   -0.0460 hc        1 NN1      0.047200
     38 H20         3.2040   -2.0980   -3.2090 hc        1 NN1      0.062200
     39 H211        1.3330   -1.3040   -4.6520 hc        1 NN1      0.056450
     40 H212        0.9660   -2.9230   -3.9090 hc        1 NN1      0.056450
     41 H241       -0.6310   -3.0620   -1.9580 hc        1 NN1      0.056450
     42 H242       -1.3920   -1.5410   -1.3070 hc        1 NN1      0.056450
     43 H11         6.0320   -4.0750   -0.5690 hc        1 NN1      0.059700
     44 H12         6.8200   -3.4370    0.9440 hc        1 NN1      0.059700
     45 H13         5.9130   -2.3080   -0.1430 hc        1 NN1      0.059700
     46 H31         3.8210   -5.2030    2.3130 hc        1 NN1      0.059700
     47 H32         5.5890   -4.8560    2.5830 hc        1 NN1      0.059700
     48 H33         5.0400   -5.7660    1.1000 hc        1 NN1      0.059700
     49 HN4         3.4730   -1.6860   -0.2020 hn        1 NN1      0.322500
     50 H16         0.4540   -2.3390    0.1640 hc        1 NN1      0.062200
     51 H18         1.4000    1.4900   -1.6070 hc        1 NN1      0.059700
     52 H191        2.7360    0.3460   -3.3940 hc        1 NN1      0.047200
     53 H192        3.3740   -0.0500   -1.7510 hc        1 NN1      0.047200
     54 H231       -0.8510    0.6770   -2.3260 hc        1 NN1      0.066700
     55 H232        0.3010    0.7730   -3.7360 hc        1 NN1      0.066700
     56 H9          3.9190   -1.9030    6.4040 ha        1 NN1      0.166000
@<TRIPOS>BOND
     1    1    3 ar  
     2    1    4 ar  
     3    1   16 1   
     4    2   24 1   
     5    2   30 1   
     6    2   31 1   
     7    2   32 1   
     8    3   27 ar  
     9    3   28 1   
    10    4    5 ar  
    11    4   33 1   
    12    5    6 ar  
    13    5   34 1   
    14    6   27 ar  
    15    6   29 1   
    16    7    9 1   
    17    7   19 1   
    18    7   20 1   
    19    7   35 1   
    20    8   20 1   
    21    8   21 1   
    22    8   36 1   
    23    8   37 1   
    24    9   10 1   
    25    9   22 1   
    26    9   38 1   
    27   10   11 1   
    28   10   39 1   
    29   10   40 1   
    30   11   12 1   
    31   11   23 1   
    32   11   24 1   
    33   12   20 1   
    34   12   41 1   
    35   12   42 1   
    36   13   14 1   
    37   13   43 1   
    38   13   44 1   
    39   13   45 1   
    40   14   15 1   
    41   14   16 1   
    42   14   17 1   
    43   15   46 1   
    44   15   47 1   
    45   15   48 1   
    46   17   18 2   
    47   17   19 1   
    48   19   49 1   
    49   20   50 1   
    50   21   22 1   
    51   21   23 1   
    52   21   51 1   
    53   22   52 1   
    54   22   53 1   
    55   23   54 1   
    56   23   55 1   
    57   24   25 2   
    58   24   26 2   
    59   27   56 1   
@<TRIPOS>SUBSTRUCTURE
     1 NN1         1 TEMP              0 ****  ****    0 ROOT
