@<TRIPOS>MOLECULE
NN1
   57    60     1     0     0
SMALL
bcc


@<TRIPOS>ATOM
      1 C4         -0.1160    0.1150   -0.0530 ca        1 NN1      0.037100
      2 C5         -9.2290    1.9070    0.4410 c3        1 NN1     -0.384300
      3 C6          1.2660   -0.1280   -0.1540 ca        1 NN1      0.048400
      4 C7         -0.6670    0.6440    1.1230 ca        1 NN1     -0.112000
      5 C8          0.1520    0.9420    2.2030 ca        1 NN1     -0.151000
      6 C10         1.5400    0.7070    2.1070 ca        1 NN1      0.170900
      7 C15        -4.8780    0.9070   -1.2630 c3        1 NN1      0.121500
      8 C17        -3.9130    2.7050    0.2350 c3        1 NN1     -0.088900
      9 C20        -5.4450    2.0190   -2.1730 c3        1 NN1     -0.066700
     10 C21        -6.8520    2.3380   -1.6730 c3        1 NN1     -0.043900
     11 C22        -6.8100    2.8400   -0.2350 c3        1 NN1     -0.247200
     12 C24        -6.1840    1.7700    0.6500 c3        1 NN1     -0.043900
     13 C1         -1.3700   -1.7680   -2.7340 c3        1 NN1     -0.123600
     14 C2         -1.6370   -1.2660   -1.3190 c3        1 NN1      0.118800
     15 C3         -1.2990   -2.3140   -0.2760 c3        1 NN1     -0.123600
     16 O3         -0.9350   -0.0230   -1.1710 os        1 NN1     -0.357900
     17 C14        -3.1480   -0.9480   -1.2250 c         1 NN1      0.515100
     18 O1         -4.0210   -1.6870   -0.8020 o         1 NN1     -0.409100
     19 N4         -3.5640    0.3920   -1.7810 ny        1 NN1     -0.670800
     20 C16        -4.7670    1.4450    0.1790 c3        1 NN1     -0.066700
     21 C18        -4.5170    3.7730   -0.6690 c3        1 NN1     -0.056700
     22 C19        -4.5770    3.2690   -2.1050 c3        1 NN1     -0.088900
     23 C23        -5.9250    4.0940   -0.1890 c3        1 NN1     -0.069400
     24 S1         -8.3940    3.3620    0.3460 s6        1 NN1      1.329000
     25 O2         -8.9510    4.1730   -0.6460 o         1 NN1     -0.631300
     26 O4         -8.2120    3.8820    1.6300 o         1 NN1     -0.631300
     27 C9          2.0960    0.1740    0.9290 ca        1 NN1     -0.150000
     28 Cl1         1.9590   -0.7700   -1.5580 cl        1 NN1     -0.040400
     29 F1          2.3410    0.9950    3.1530 f         1 NN1     -0.105900
     30 H51        -8.9510    1.2950    1.3360 h1        1 NN1      0.127700
     31 H52       -10.3340    2.0910    0.5410 h1        1 NN1      0.127700
     32 H53        -9.1260    1.2410   -0.4500 h1        1 NN1      0.127700
     33 H7         -1.7490    0.8330    1.1830 ha        1 NN1      0.135000
     34 H8         -0.2650    1.3610    3.1320 ha        1 NN1      0.173000
     35 H15        -5.5880    0.0240   -1.2720 hx        1 NN1      0.113700
     36 H171       -3.8870    3.0810    1.2920 hc        1 NN1      0.058450
     37 H172       -2.8540    2.4950   -0.0630 hc        1 NN1      0.058450
     38 H20        -5.5120    1.6550   -3.2350 hc        1 NN1      0.065700
     39 H211       -7.3060    3.1270   -2.3340 hc        1 NN1      0.073950
     40 H212       -7.4870    1.4160   -1.7460 hc        1 NN1      0.073950
     41 H241       -6.8070    0.8370    0.6260 hc        1 NN1      0.073950
     42 H242       -6.1400    2.1370    1.7110 hc        1 NN1      0.073950
     43 H11        -1.5520   -0.9620   -3.4840 hc        1 NN1      0.079867
     44 H12        -2.0160   -2.6510   -2.9580 hc        1 NN1      0.079867
     45 H13        -0.2960   -2.0750   -2.8090 hc        1 NN1      0.079867
     46 H31        -1.5060   -1.9320    0.7530 hc        1 NN1      0.079867
     47 H32        -1.9070   -3.2360   -0.4500 hc        1 NN1      0.079867
     48 H33        -0.2130   -2.5710   -0.3550 hc        1 NN1      0.079867
     49 HN4        -3.6180    0.3090   -2.8020 hn        1 NN1      0.467300
     50 H16        -4.3320    0.6530    0.8470 hc        1 NN1      0.065700
     51 H18        -3.8870    4.7030   -0.6240 hc        1 NN1      0.085700
     52 H191       -5.0240    4.0610   -2.7630 hc        1 NN1      0.058450
     53 H192       -3.5460    3.0630   -2.4890 hc        1 NN1      0.058450
     54 H231       -6.3740    4.8890   -0.8430 hc        1 NN1      0.084700
     55 H232       -5.8850    4.4840    0.8640 hc        1 NN1      0.084700
     56 H9          3.1830    0.0000    0.8700 ha        1 NN1      0.187000
     57 H42        -2.8190    1.0710   -1.5570 hn        1 NN1      0.467300
@<TRIPOS>BOND
     1    1    3 ar  
     2    1    4 ar  
     3    1   16 1   
     4    2   24 1   
     5    2   30 1   
     6    2   31 1   
     7    2   32 1   
     8    3   27 ar  
     9    3   28 1   
    10    4    5 ar  
    11    4   33 1   
    12    5    6 ar  
    13    5   34 1   
    14    6   27 ar  
    15    6   29 1   
    16    7    9 1   
    17    7   19 1   
    18    7   20 1   
    19    7   35 1   
    20    8   20 1   
    21    8   21 1   
    22    8   36 1   
    23    8   37 1   
    24    9   10 1   
    25    9   22 1   
    26    9   38 1   
    27   10   11 1   
    28   10   39 1   
    29   10   40 1   
    30   11   12 1   
    31   11   23 1   
    32   11   24 1   
    33   12   20 1   
    34   12   41 1   
    35   12   42 1   
    36   13   14 1   
    37   13   43 1   
    38   13   44 1   
    39   13   45 1   
    40   14   15 1   
    41   14   16 1   
    42   14   17 1   
    43   15   46 1   
    44   15   47 1   
    45   15   48 1   
    46   17   18 2   
    47   17   19 1   
    48   19   49 1   
    49   19   57 1   
    50   20   50 1   
    51   21   22 1   
    52   21   23 1   
    53   21   51 1   
    54   22   52 1   
    55   22   53 1   
    56   23   54 1   
    57   23   55 1   
    58   24   25 2   
    59   24   26 2   
    60   27   56 1   
@<TRIPOS>SUBSTRUCTURE
     1 NN1         1 TEMP              0 ****  ****    0 ROOT
