@<TRIPOS>MOLECULE
NN1
   57    60     1     0     0
SMALL
bcc


@<TRIPOS>ATOM
      1 C4         -0.1110    0.1150   -0.0650 ca        1 NN1      0.037100
      2 C5         -9.2300    1.9090    0.4530 c3        1 NN1     -0.384300
      3 C6          1.2700   -0.1290   -0.1730 ca        1 NN1      0.048400
      4 C7         -0.6550    0.6480    1.1120 ca        1 NN1     -0.112000
      5 C8          0.1690    0.9500    2.1860 ca        1 NN1     -0.151000
      6 C10         1.5560    0.7130    2.0830 ca        1 NN1      0.170900
      7 C15        -4.8810    0.9060   -1.2570 c3        1 NN1      0.121500
      8 C17        -3.9140    2.7070    0.2360 c3        1 NN1     -0.088900
      9 C20        -5.4490    2.0160   -2.1680 c3        1 NN1     -0.066700
     10 C21        -6.8560    2.3360   -1.6670 c3        1 NN1     -0.043900
     11 C22        -6.8110    2.8410   -0.2290 c3        1 NN1     -0.247200
     12 C24        -6.1840    1.7720    0.6570 c3        1 NN1     -0.043900
     13 C1         -1.3810   -1.7770   -2.7330 c3        1 NN1     -0.123600
     14 C2         -1.6410   -1.2690   -1.3180 c3        1 NN1      0.118800
     15 C3         -1.2990   -2.3140   -0.2730 c3        1 NN1     -0.123600
     16 O3         -0.9370   -0.0260   -1.1780 os        1 NN1     -0.357900
     17 C14        -3.1510   -0.9490   -1.2180 c         1 NN1      0.515100
     18 O1         -4.0230   -1.6860   -0.7890 o         1 NN1     -0.409100
     19 N4         -3.5680    0.3890   -1.7750 n4        1 NN1     -0.670800
     20 C16        -4.7680    1.4470    0.1840 c3        1 NN1     -0.066700
     21 C18        -4.5190    3.7730   -0.6680 c3        1 NN1     -0.056700
     22 C19        -4.5820    3.2660   -2.1040 c3        1 NN1     -0.088900
     23 C23        -5.9260    4.0950   -0.1870 c3        1 NN1     -0.069400
     24 S1         -8.3950    3.3640    0.3530 s6        1 NN1      1.329000
     25 O2         -8.9530    4.1730   -0.6390 o         1 NN1     -0.631300
     26 O4         -8.2100    3.8860    1.6360 o         1 NN1     -0.631300
     27 C9          2.1050    0.1750    0.9040 ca        1 NN1     -0.150000
     28 CL1         1.9540   -0.7770   -1.5790 cl        1 NN1     -0.040400
     29 F1          2.3640    1.0040    3.1240 f         1 NN1     -0.105900
     30 H51        -8.9490    1.2990    1.3480 h1        1 NN1      0.127700
     31 H52       -10.3350    2.0940    0.5540 h1        1 NN1      0.127700
     32 H53        -9.1280    1.2420   -0.4370 h1        1 NN1      0.127700
     33 H7         -1.7380    0.8380    1.1770 ha        1 NN1      0.135000
     34 H8         -0.2420    1.3720    3.1160 ha        1 NN1      0.173000
     35 H15        -5.5910    0.0230   -1.2620 hx        1 NN1      0.113700
     36 H171       -2.8550    2.4960   -0.0630 hc        1 NN1      0.058200
     37 H172       -3.8860    3.0850    1.2930 hc        1 NN1      0.058200
     38 H20        -5.5190    1.6500   -3.2290 hc        1 NN1      0.065700
     39 H211       -7.4910    1.4140   -1.7360 hc        1 NN1      0.073950
     40 H212       -7.3100    3.1240   -2.3280 hc        1 NN1      0.073950
     41 H241       -6.1380    2.1420    1.7170 hc        1 NN1      0.073950
     42 H242       -6.8070    0.8400    0.6360 hc        1 NN1      0.073950
     43 H11        -0.3080   -2.0850   -2.8120 hc        1 NN1      0.079867
     44 H12        -1.5660   -0.9730   -3.4840 hc        1 NN1      0.079867
     45 H13        -2.0290   -2.6590   -2.9500 hc        1 NN1      0.079867
     46 H31        -0.2130   -2.5720   -0.3570 hc        1 NN1      0.079867
     47 H32        -1.9080   -3.2360   -0.4410 hc        1 NN1      0.079867
     48 H33        -1.5000   -1.9270    0.7550 hc        1 NN1      0.079867
     49 HN4        -3.6240    0.3050   -2.7970 hn        1 NN1      0.467300
     50 H16        -4.3310    0.6550    0.8530 hc        1 NN1      0.065700
     51 H18        -3.8890    4.7030   -0.6260 hc        1 NN1      0.085700
     52 H191       -3.5510    3.0590   -2.4890 hc        1 NN1      0.058200
     53 H192       -5.0300    4.0570   -2.7620 hc        1 NN1      0.058200
     54 H231       -5.8850    4.4870    0.8650 hc        1 NN1      0.084700
     55 H232       -6.3760    4.8890   -0.8420 hc        1 NN1      0.084700
     56 H9          3.1930    0.0010    0.8400 ha        1 NN1      0.187000
     57 H42        -2.8230    1.0690   -1.5550 hn        1 NN1      0.467300
@<TRIPOS>BOND
     1    1    3 ar  
     2    1    4 ar  
     3    1   16 1   
     4    2   24 1   
     5    2   30 1   
     6    2   31 1   
     7    2   32 1   
     8    3   27 ar  
     9    3   28 1   
    10    4    5 ar  
    11    4   33 1   
    12    5    6 ar  
    13    5   34 1   
    14    6   27 ar  
    15    6   29 1   
    16    7    9 1   
    17    7   19 1   
    18    7   20 1   
    19    7   35 1   
    20    8   20 1   
    21    8   21 1   
    22    8   36 1   
    23    8   37 1   
    24    9   10 1   
    25    9   22 1   
    26    9   38 1   
    27   10   11 1   
    28   10   39 1   
    29   10   40 1   
    30   11   12 1   
    31   11   23 1   
    32   11   24 1   
    33   12   20 1   
    34   12   41 1   
    35   12   42 1   
    36   13   14 1   
    37   13   43 1   
    38   13   44 1   
    39   13   45 1   
    40   14   15 1   
    41   14   16 1   
    42   14   17 1   
    43   15   46 1   
    44   15   47 1   
    45   15   48 1   
    46   17   18 2   
    47   17   19 1   
    48   19   49 1   
    49   19   57 1   
    50   20   50 1   
    51   21   22 1   
    52   21   23 1   
    53   21   51 1   
    54   22   52 1   
    55   22   53 1   
    56   23   54 1   
    57   23   55 1   
    58   24   25 2   
    59   24   26 2   
    60   27   56 1   
@<TRIPOS>SUBSTRUCTURE
     1 NN1         1 TEMP              0 ****  ****    0 ROOT
