@<TRIPOS>MOLECULE
NN1
   57    60     1     0     0
SMALL
bcc


@<TRIPOS>ATOM
      1 C4         -0.1160    0.1080   -0.0670 ca        1 NN1      0.037100
      2 C5         -9.2220    1.9290    0.4690 c3        1 NN1     -0.384300
      3 C6          1.2640   -0.1380   -0.1740 ca        1 NN1      0.048400
      4 C7         -0.6580    0.6490    1.1090 ca        1 NN1     -0.112000
      5 C8          0.1680    0.9540    2.1810 ca        1 NN1     -0.151000
      6 C10         1.5540    0.7150    2.0780 ca        1 NN1      0.170900
      7 C15        -4.8840    0.9030   -1.2540 c3        1 NN1      0.121500
      8 C17        -3.9050    2.7110    0.2230 c3        1 NN1     -0.088900
      9 C20        -5.4530    2.0090   -2.1700 c3        1 NN1     -0.066700
     10 C21        -6.8570    2.3350   -1.6640 c3        1 NN1     -0.043900
     11 C22        -6.8040    2.8500   -0.2310 c3        1 NN1     -0.247200
     12 C24        -6.1760    1.7850    0.6590 c3        1 NN1     -0.043900
     13 C1         -1.3920   -1.7940   -2.7240 c3        1 NN1     -0.123600
     14 C2         -1.6490   -1.2790   -1.3110 c3        1 NN1      0.118800
     15 C3         -1.3070   -2.3190   -0.2620 c3        1 NN1     -0.123600
     16 O3         -0.9430   -0.0370   -1.1780 os        1 NN1     -0.357900
     17 C14        -3.1580   -0.9560   -1.2100 c         1 NN1      0.515100
     18 O1         -4.0310   -1.6900   -0.7760 o         1 NN1     -0.409100
     19 N4         -3.5750    0.3800   -1.7750 n4        1 NN1     -0.670800
     20 C16        -4.7630    1.4530    0.1830 c3        1 NN1     -0.066700
     21 C18        -4.5110    3.7730   -0.6860 c3        1 NN1     -0.056700
     22 C19        -4.5820    3.2560   -2.1180 c3        1 NN1     -0.088900
     23 C23        -5.9150    4.1020   -0.2000 c3        1 NN1     -0.069400
     24 S1         -8.3840    3.3810    0.3560 s6        1 NN1      1.329000
     25 O2         -8.9440    4.1850   -0.6400 o         1 NN1     -0.631300
     26 O4         -8.1920    3.9110    1.6340 o         1 NN1     -0.631300
     27 C9          2.1010    0.1700    0.9010 ca        1 NN1     -0.150000
     28 CL1         1.9470   -0.7950   -1.5770 cl        1 NN1     -0.040400
     29 F1          2.3630    1.0100    3.1160 f         1 NN1     -0.105900
     30 H51        -9.1260    1.2560   -0.4170 h1        1 NN1      0.127700
     31 H52        -8.9390    1.3240    1.3670 h1        1 NN1      0.127700
     32 H53       -10.3260    2.1180    0.5730 h1        1 NN1      0.127700
     33 H7         -1.7400    0.8410    1.1730 ha        1 NN1      0.135000
     34 H8         -0.2430    1.3820    3.1090 ha        1 NN1      0.173000
     35 H15        -5.5960    0.0220   -1.2510 hx        1 NN1      0.113700
     36 H171       -2.8480    2.4950   -0.0800 hc        1 NN1      0.058450
     37 H172       -3.8710    3.0950    1.2770 hc        1 NN1      0.058450
     38 H20        -5.5280    1.6360   -3.2280 hc        1 NN1      0.065700
     39 H211       -7.4940    1.4150   -1.7250 hc        1 NN1      0.073950
     40 H212       -7.3120    3.1200   -2.3290 hc        1 NN1      0.073950
     41 H241       -6.8020    0.8540    0.6470 hc        1 NN1      0.073950
     42 H242       -6.1240    2.1620    1.7170 hc        1 NN1      0.073950
     43 H11        -0.3190   -2.1040   -2.8030 hc        1 NN1      0.079867
     44 H12        -2.0410   -2.6760   -2.9360 hc        1 NN1      0.079867
     45 H13        -1.5760   -0.9930   -3.4790 hc        1 NN1      0.079867
     46 H31        -0.2220   -2.5790   -0.3450 hc        1 NN1      0.079867
     47 H32        -1.5060   -1.9280    0.7650 hc        1 NN1      0.079867
     48 H33        -1.9180   -3.2410   -0.4240 hc        1 NN1      0.079867
     49 HN4        -2.8270    1.0590   -1.5620 hn        1 NN1      0.467300
     50 H16        -4.3250    0.6650    0.8540 hc        1 NN1      0.065700
     51 H18        -3.8790    4.7010   -0.6530 hc        1 NN1      0.085700
     52 H191       -3.5540    3.0450   -2.5060 hc        1 NN1      0.058450
     53 H192       -5.0310    4.0450   -2.7790 hc        1 NN1      0.058450
     54 H231       -6.3660    4.8930   -0.8590 hc        1 NN1      0.084700
     55 H232       -5.8680    4.5010    0.8490 hc        1 NN1      0.084700
     56 H9          3.1880   -0.0070    0.8370 ha        1 NN1      0.187000
     57 H42        -3.6350    0.2880   -2.7960 hn        1 NN1      0.467300
@<TRIPOS>BOND
     1    1    3 ar  
     2    1    4 ar  
     3    1   16 1   
     4    2   24 1   
     5    2   30 1   
     6    2   31 1   
     7    2   32 1   
     8    3   27 ar  
     9    3   28 1   
    10    4    5 ar  
    11    4   33 1   
    12    5    6 ar  
    13    5   34 1   
    14    6   27 ar  
    15    6   29 1   
    16    7    9 1   
    17    7   19 1   
    18    7   20 1   
    19    7   35 1   
    20    8   20 1   
    21    8   21 1   
    22    8   36 1   
    23    8   37 1   
    24    9   10 1   
    25    9   22 1   
    26    9   38 1   
    27   10   11 1   
    28   10   39 1   
    29   10   40 1   
    30   11   12 1   
    31   11   23 1   
    32   11   24 1   
    33   12   20 1   
    34   12   41 1   
    35   12   42 1   
    36   13   14 1   
    37   13   43 1   
    38   13   44 1   
    39   13   45 1   
    40   14   15 1   
    41   14   16 1   
    42   14   17 1   
    43   15   46 1   
    44   15   47 1   
    45   15   48 1   
    46   17   18 2   
    47   17   19 1   
    48   19   49 1   
    49   19   57 1   
    50   20   50 1   
    51   21   22 1   
    52   21   23 1   
    53   21   51 1   
    54   22   52 1   
    55   22   53 1   
    56   23   54 1   
    57   23   55 1   
    58   24   25 2   
    59   24   26 2   
    60   27   56 1   
@<TRIPOS>SUBSTRUCTURE
     1 NN1         1 TEMP              0 ****  ****    0 ROOT
