@<TRIPOS>MOLECULE
NN2
   48    64     1     0     0
SMALL
bcc


@<TRIPOS>ATOM
      1 C4          0.0000    0.0000    0.0000 c2        1 NN2     -0.544000
      2 C5          1.4010    0.0000    0.0000 c3        1 NN2     -0.107000
      3 C6          2.0700    0.0000    1.2280 c3        1 NN2     -0.268000
      4 C7          1.3490    0.0240    2.4040 c3        1 NN2     -0.123000
      5 C8         -0.0340    0.0430    2.3830 c3        1 NN2     -0.308000
      6 C9         -0.7090    0.0290    1.1730 c2        1 NN2     -0.290000
      7 N3          2.0990   -0.0160   -1.1640 n2        1 NN2     -0.122000
      8 C15         3.6940   -1.2590   -8.0270 c3        1 NN2      0.150000
      9 C20         2.7710   -1.1790   -7.0070 c2        1 NN2     -0.297000
     10 C19         3.1380   -0.6060   -5.7840 c3        1 NN2     -0.334000
     11 C22         2.1670   -0.5040   -4.6900 c2        1 NN2      0.147000
     12 O23         0.9080   -0.9690   -4.8350 oh        1 NN2     -0.119000
     13 C16         4.9830   -0.7710   -7.8470 c3        1 NN2     -0.106000
     14 C17         5.3560   -0.2010   -6.6490 c2        1 NN2     -0.445000
     15 C18         4.4390   -0.1080   -5.6060 c2        1 NN2     -0.067000
     16 N14         4.8110    0.4650   -4.4050 n         1 NN2      0.214000
     17 C24         6.1780    0.9700   -4.2480 DU        1 NN2     -0.162000
     18 C25         7.0740   -0.1470   -3.7080 DU        1 NN2     -0.304000
     19 C26         8.5010    0.3790   -3.5440 DU        1 NN2     -0.480000
     20 C30         9.5290   -0.5540   -2.9030 DU        1 NN2     -0.421000
     21 C29         9.5940   -0.2600   -4.4030 cx        1 NN2     -0.516000
     22 C27         3.9520    0.5710   -3.3770 c2        1 NN2      0.269000
     23 O28         4.3220    1.0830   -2.3350 o         1 NN2     -0.291000
     24 C1          2.5800    0.0800   -3.4920 c2        1 NN2     -0.243000
     25 C2          1.6480    0.2020   -2.3610 c3        1 NN2      0.165000
     26 N11         0.3340    0.5490   -2.6280 n7        1 NN2     -0.738000
     27 S10        -0.8160   -0.0510   -1.5690 s6        1 NN2      2.415000
     28 O13        -0.9810   -1.4250   -1.8900 o         1 NN2     -0.787500
     29 O12        -1.8520    0.9200   -1.5130 o         1 NN2     -0.787500
     30 H6          2.1980   -0.0230    0.1530 DU        1 NN2      0.457000
     31 H7          2.2640    0.0040    1.8240 DU        1 NN2      0.238000
     32 H8          0.9310    0.0390    2.8760 DU        1 NN2      0.221000
     33 H9         -0.6500    0.0460    2.2540 DU        1 NN2      0.258000
     34 H20         2.2460   -1.0380   -6.0700 DU        1 NN2      0.345000
     35 HO23        1.2380   -1.2220   -5.6810 ho        1 NN2      0.216000
     36 H16         4.0190   -0.7180   -7.3550 DU        1 NN2      0.416000
     37 H17         5.5330   -0.5250   -7.6670 DU        1 NN2      0.213000
     38 H241        6.2630    0.6140   -5.2680 ha        1 NN2      0.290500
     39 H242        6.5540    1.3020   -5.2080 ha        1 NN2      0.290500
     40 H251        6.6240    0.8350   -3.6280 DU        1 NN2      0.263000
     41 H252        7.0730   -0.9790   -4.4020 ha        1 NN2      0.144000
     42 H26         7.5940   -0.0530   -3.1400 DU        1 NN2      0.236000
     43 H301        9.1000    0.4180   -3.1110 DU        1 NN2      0.228000
     44 H302       10.2870   -0.0710   -2.2990 ha        1 NN2      0.102000
     45 H291        9.3840   -0.8840   -3.5430 DU        1 NN2      0.242000
     46 H292       10.3910    0.4030   -4.7160 hc        1 NN2      0.058000
     47 HN11        1.2850    0.3770   -2.8860 DU        1 NN2      0.314000
     48 F21         3.3460   -1.8160   -9.2080 f         1 NN2     -0.030000
@<TRIPOS>BOND
     1    1    2 1   
     2    1    6 1   
     3    1   27 1   
     4    2    3 1   
     5    2    7 1   
     6    2   30 1   
     7    3    4 1   
     8    3   30 1   
     9    3   31 1   
    10    4    5 1   
    11    4   31 1   
    12    4   32 1   
    13    5    6 1   
    14    5   32 1   
    15    5   33 1   
    16    6   33 1   
    17    7   25 1   
    18    8    9 1   
    19    8   13 1   
    20    8   36 1   
    21    8   48 1   
    22    9   10 1   
    23    9   34 1   
    24   10   11 1   
    25   10   15 1   
    26   10   34 1   
    27   11   12 1   
    28   11   24 1   
    29   12   35 1   
    30   13   14 1   
    31   13   36 1   
    32   13   37 1   
    33   14   15 1   
    34   14   37 1   
    35   15   16 1   
    36   16   17 1   
    37   16   22 1   
    38   17   18 1   
    39   17   38 1   
    40   17   39 1   
    41   17   40 1   
    42   18   19 1   
    43   18   40 1   
    44   18   41 1   
    45   18   42 1   
    46   19   20 1   
    47   19   21 1   
    48   19   42 1   
    49   19   43 1   
    50   20   21 1   
    51   20   43 1   
    52   20   44 1   
    53   20   45 1   
    54   21   45 1   
    55   21   46 1   
    56   22   23 1   
    57   22   24 1   
    58   24   25 1   
    59   25   26 1   
    60   25   47 1   
    61   26   27 1   
    62   26   47 1   
    63   27   28 1   
    64   27   29 1   
@<TRIPOS>SUBSTRUCTURE
     1 NN2         1 TEMP              0 ****  ****    0 ROOT
