@<TRIPOS>MOLECULE
NN2
   48    52     1     0     0
SMALL
bcc


@<TRIPOS>ATOM
      1 C4          4.3620   -0.6440   -0.4240 ca        1 NN2     -0.435500
      2 C5          3.6990   -0.3480    0.7930 ca        1 NN2      0.271400
      3 C6          4.4420   -0.3180    1.9990 ca        1 NN2     -0.138000
      4 C7          5.8010   -0.5880    1.9860 ca        1 NN2     -0.059000
      5 C8          6.4570   -0.8940    0.7880 ca        1 NN2     -0.161000
      6 C9          5.7380   -0.9210   -0.3960 ca        1 NN2     -0.005000
      7 N3          2.3250   -0.0900    0.8660 ne        1 NN2     -0.710100
      8 C15        -3.6550    2.4960    1.9230 ca        1 NN2      0.080900
      9 C20        -2.2850    2.3070    1.7570 ca        1 NN2     -0.080000
     10 C19        -1.8100    1.2650    0.9430 ca        1 NN2     -0.142800
     11 C22        -0.3810    1.0510    0.7840 cc        1 NN2      0.314900
     12 O23         0.3700    1.9430    1.4780 oh        1 NN2     -0.481100
     13 C16        -4.5680    1.6300    1.2750 ca        1 NN2     -0.096000
     14 C17        -4.1080    0.6060    0.4750 ca        1 NN2     -0.169000
     15 C18        -2.7130    0.3960    0.2730 ca        1 NN2      0.115600
     16 N14        -2.2340   -0.6140   -0.5560 n         1 NN2     -0.343000
     17 C24        -3.1640   -1.4920   -1.2490 c3        1 NN2      0.079000
     18 C25        -3.7660   -2.5960   -0.3760 c3        1 NN2     -0.073400
     19 C26        -4.8060   -3.3390   -1.1490 cx        1 NN2     -0.129700
     20 C30        -5.8480   -4.1290   -0.4020 cx        1 NN2     -0.129900
     21 C29        -6.2390   -2.8730   -1.1210 cx        1 NN2     -0.129900
     22 C27        -0.8490   -0.8440   -0.7150 c         1 NN2      0.729700
     23 O28        -0.4950   -1.7920   -1.4480 o         1 NN2     -0.646500
     24 C1          0.0950    0.0430   -0.0250 cd        1 NN2     -0.393800
     25 C2          1.5480   -0.2200   -0.1990 cf        1 NN2      0.791500
     26 N11         2.0120   -0.5690   -1.4660 nh        1 NN2     -0.833100
     27 S10         3.6030   -0.6650   -1.9150 sy        1 NN2      1.524200
     28 O13         3.9420    0.4800   -2.6470 o         1 NN2     -0.642300
     29 O12         3.8310   -1.8730   -2.5830 o         1 NN2     -0.642300
     30 H6          3.9340   -0.0880    2.9490 ha        1 NN2      0.153000
     31 H7          6.3720   -0.5630    2.9290 ha        1 NN2      0.139000
     32 H8          7.5350   -1.1120    0.7890 ha        1 NN2      0.144000
     33 H9          6.2510   -1.1690   -1.3430 ha        1 NN2      0.148000
     34 H20        -1.5650    2.9720    2.2640 ha        1 NN2      0.175000
     35 HO23        1.3170    1.7250    1.4090 ho        1 NN2      0.471000
     36 H16        -5.6490    1.7840    1.4200 ha        1 NN2      0.157000
     37 H17        -4.8460   -0.0580   -0.0030 ha        1 NN2      0.155000
     38 H241       -3.9900   -0.8640   -1.6880 h1        1 NN2      0.076700
     39 H242       -2.6150   -1.9770   -2.1090 h1        1 NN2      0.076700
     40 H251       -2.9570   -3.3090   -0.0610 hc        1 NN2      0.057200
     41 H252       -4.2110   -2.1610    0.5580 hc        1 NN2      0.057200
     42 H26        -4.4160   -3.7600   -2.0980 hc        1 NN2      0.086700
     43 H301       -6.1680   -5.1050   -0.8090 hc        1 NN2      0.071450
     44 H302       -5.8270   -4.1310    0.7020 hc        1 NN2      0.071450
     45 H291       -6.4970   -1.9760   -0.5290 hc        1 NN2      0.071450
     46 H292       -6.8430   -2.9460   -2.0430 hc        1 NN2      0.071450
     47 HN11        1.2970   -0.8420   -2.1110 hn        1 NN2      0.485800
     48 F21        -4.1220    3.5010    2.7030 f         1 NN2     -0.132900
@<TRIPOS>BOND
     1    1    2 ar  
     2    1    6 ar  
     3    1   27 1   
     4    2    3 ar  
     5    2    7 1   
     6    3    4 ar  
     7    3   30 1   
     8    4    5 ar  
     9    4   31 1   
    10    5    6 ar  
    11    5   32 1   
    12    6   33 1   
    13    7   25 2   
    14    8    9 ar  
    15    8   13 ar  
    16    8   48 1   
    17    9   10 ar  
    18    9   34 1   
    19   10   11 1   
    20   10   15 ar  
    21   11   12 1   
    22   11   24 2   
    23   12   35 1   
    24   13   14 ar  
    25   13   36 1   
    26   14   15 ar  
    27   14   37 1   
    28   15   16 1   
    29   16   17 1   
    30   16   22 1   
    31   17   18 1   
    32   17   38 1   
    33   17   39 1   
    34   18   19 1   
    35   18   40 1   
    36   18   41 1   
    37   19   20 1   
    38   19   21 1   
    39   19   42 1   
    40   20   21 1   
    41   20   43 1   
    42   20   44 1   
    43   21   45 1   
    44   21   46 1   
    45   22   23 2   
    46   22   24 1   
    47   24   25 1   
    48   25   26 1   
    49   26   27 1   
    50   26   47 1   
    51   27   28 2   
    52   27   29 2   
@<TRIPOS>SUBSTRUCTURE
     1 NN2         1 TEMP              0 ****  ****    0 ROOT
