@<TRIPOS>MOLECULE
NN3
   53    55     1     0     0
SMALL
bcc


@<TRIPOS>ATOM
      1 C4          4.0930    1.6810   -1.8710 c3        1 NN3     -0.066700
      2 C5          3.6480    2.6420   -0.7790 c3        1 NN3     -0.072900
      3 C6          2.1410    2.6650   -0.6340 c3        1 NN3     -0.072400
      4 C11        -0.3520   -0.4710    0.8110 cc        1 NN3     -0.039400
      5 C7          5.6010    1.6570   -1.9790 c3        1 NN3     -0.085100
      6 C8          1.7620    0.7420    0.9550 c         1 NN3      0.680100
      7 C10        -0.6240   -1.6710    0.1530 cd        1 NN3     -0.109700
      8 C12        -1.4850    0.4190    0.7520 cc        1 NN3     -0.126000
      9 C13        -2.5440   -0.1340    0.0540 cd        1 NN3     -0.146100
     10 C3          3.5510    0.2890   -1.5750 c3        1 NN3     -0.072900
     11 O27         2.7560    1.0960    1.6250 o         1 NN3     -0.643100
     12 C1          1.5220    1.2860   -0.4540 c3        1 NN3     -0.124700
     13 C2          2.0410    0.2970   -1.4900 c3        1 NN3     -0.072400
     14 N14         0.8320   -0.1380    1.5010 n         1 NN3     -0.351000
     15 C22         1.1580   -0.9570    2.6710 c3        1 NN3      0.119700
     16 C24         2.4330   -1.7850    2.4990 c3        1 NN3     -0.112600
     17 C23         1.2610   -0.1290    3.9530 c3        1 NN3     -0.112600
     18 C15         0.3320   -2.8450    0.0250 c         1 NN3      0.931200
     19 O26         1.1100   -2.8510   -0.9660 o         1 NN3     -0.802800
     20 O25         0.2820   -3.7320    0.9180 o         1 NN3     -0.802800
     21 S9         -2.1550   -1.6860   -0.4850 ss        1 NN3      0.053200
     22 C16        -3.8180    0.4870   -0.1990 ca        1 NN3      0.046000
     23 C21        -4.6670   -0.0180   -1.2010 ca        1 NN3     -0.139500
     24 C20        -5.9010    0.5760   -1.4510 ca        1 NN3     -0.127500
     25 C19        -6.3120    1.6830   -0.7100 ca        1 NN3     -0.158000
     26 C18        -5.4790    2.1920    0.2870 ca        1 NN3     -0.127500
     27 C17        -4.2450    1.6010    0.5430 ca        1 NN3     -0.139500
     28 H4          3.6670    2.0300   -2.8540 hc        1 NN3      0.031700
     29 H51         4.0140    3.6750   -1.0160 hc        1 NN3      0.046700
     30 H52         4.1050    2.3280    0.1980 hc        1 NN3      0.046700
     31 H61         1.6890    3.1290   -1.5510 hc        1 NN3      0.052950
     32 H62         1.8710    3.3070    0.2450 hc        1 NN3      0.052950
     33 H71         6.0560    1.3100   -1.0210 hc        1 NN3      0.025367
     34 H72         5.9210    0.9640   -2.7940 hc        1 NN3      0.025367
     35 H73         5.9920    2.6790   -2.2070 hc        1 NN3      0.025367
     36 H12        -1.4820    1.4130    1.2050 ha        1 NN3      0.142000
     37 H31         3.8730   -0.4220   -2.3780 hc        1 NN3      0.046700
     38 H32         3.9760   -0.0750   -0.6030 hc        1 NN3      0.046700
     39 H1          0.4090    1.3990   -0.6100 hc        1 NN3      0.066700
     40 H21A        1.6710   -0.7430   -1.2490 hc        1 NN3      0.052950
     41 H22A        1.6140    0.5840   -2.4870 hc        1 NN3      0.052950
     42 H22         0.3030   -1.6940    2.7900 h1        1 NN3      0.079700
     43 H241        2.6080   -2.3720    3.4320 hc        1 NN3      0.042200
     44 H242        2.3070   -2.5000    1.6450 hc        1 NN3      0.042200
     45 H243        3.3160   -1.1300    2.3110 hc        1 NN3      0.042200
     46 H231        2.1160    0.5870    3.8880 hc        1 NN3      0.042200
     47 H232        0.3230    0.4450    4.1360 hc        1 NN3      0.042200
     48 H233        1.4290   -0.8200    4.8130 hc        1 NN3      0.042200
     49 H21        -4.3460   -0.8900   -1.7920 ha        1 NN3      0.135000
     50 H20        -6.5520    0.1690   -2.2370 ha        1 NN3      0.119500
     51 H19        -7.2850    2.1510   -0.9090 ha        1 NN3      0.117000
     52 H18        -5.7990    3.0640    0.8760 ha        1 NN3      0.119500
     53 H17        -3.5980    2.0030    1.3360 ha        1 NN3      0.135000
@<TRIPOS>BOND
     1    1    2 1   
     2    1    5 1   
     3    1   10 1   
     4    1   28 1   
     5    2    3 1   
     6    2   29 1   
     7    2   30 1   
     8    3   12 1   
     9    3   31 1   
    10    3   32 1   
    11    4    7 2   
    12    4    8 1   
    13    4   14 1   
    14    5   33 1   
    15    5   34 1   
    16    5   35 1   
    17    6   11 2   
    18    6   12 1   
    19    6   14 1   
    20    7   18 1   
    21    7   21 1   
    22    8    9 2   
    23    8   36 1   
    24    9   21 1   
    25    9   22 1   
    26   10   13 1   
    27   10   37 1   
    28   10   38 1   
    29   12   13 1   
    30   12   39 1   
    31   13   40 1   
    32   13   41 1   
    33   14   15 1   
    34   15   16 1   
    35   15   17 1   
    36   15   42 1   
    37   16   43 1   
    38   16   44 1   
    39   16   45 1   
    40   17   46 1   
    41   17   47 1   
    42   17   48 1   
    43   18   19 1   
    44   18   20 1   
    45   22   23 ar  
    46   22   27 ar  
    47   23   24 ar  
    48   23   49 1   
    49   24   25 ar  
    50   24   50 1   
    51   25   26 ar  
    52   25   51 1   
    53   26   27 ar  
    54   26   52 1   
    55   27   53 1   
@<TRIPOS>SUBSTRUCTURE
     1 NN3         1 TEMP              0 ****  ****    0 ROOT
