@<TRIPOS>MOLECULE
NN3
   53    55     1     0     0
SMALL
bcc


@<TRIPOS>ATOM
      1 C4          0.2160    0.3170    0.0020 c3        1 NN3     -0.066700
      2 C5          1.7280    0.2690    0.1540 c3        1 NN3     -0.072900
      3 C6          2.1380   -0.1300    1.5560 c3        1 NN3     -0.072400
      4 C11         1.6160   -3.9320    3.4030 cc        1 NN3     -0.039400
      5 C7         -0.1660    0.6940   -1.4120 c3        1 NN3     -0.085100
      6 C8          2.1110   -2.6480    1.3870 c         1 NN3      0.680100
      7 C10         0.4010   -4.4890    3.8030 cd        1 NN3     -0.109700
      8 C12         2.3730   -3.4690    4.5400 cc        1 NN3     -0.126000
      9 C13         1.7020   -3.6840    5.7320 cd        1 NN3     -0.146100
     10 C3         -0.3760   -1.0330    0.3800 c3        1 NN3     -0.072900
     11 O27         2.6440   -2.5800    0.2570 o         1 NN3     -0.643100
     12 C1          1.4850   -1.4160    2.0410 c3        1 NN3     -0.124700
     13 C2         -0.0190   -1.4080    1.8010 c3        1 NN3     -0.072400
     14 N14         2.1120   -3.8510    2.0850 n         1 NN3     -0.351000
     15 C22         2.3680   -5.1230    1.4050 c3        1 NN3      0.119700
     16 C24         1.4560   -5.3650    0.2010 c3        1 NN3     -0.112600
     17 C23         3.8280   -5.2710    0.9730 c3        1 NN3     -0.112600
     18 C15        -0.6450   -5.0880    2.8770 c         1 NN3      0.931200
     19 O26        -1.5210   -4.3100    2.4150 o         1 NN3     -0.802800
     20 O25        -0.5630   -6.3210    2.6350 o         1 NN3     -0.802800
     21 S9          0.2170   -4.4370    5.4510 ss        1 NN3      0.053200
     22 C16         2.1670   -3.3350    7.0480 ca        1 NN3      0.046000
     23 C21         1.2660   -3.2790    8.1280 ca        1 NN3     -0.139500
     24 C20         1.7080   -2.9440    9.4040 ca        1 NN3     -0.127500
     25 C19         3.0540   -2.6550    9.6300 ca        1 NN3     -0.158000
     26 C18         3.9560   -2.7080    8.5680 ca        1 NN3     -0.127500
     27 C17         3.5210   -3.0460    7.2890 ca        1 NN3     -0.139500
     28 H4         -0.1920    1.0970    0.7050 hc        1 NN3      0.031700
     29 H51         2.1620    1.2740   -0.0870 hc        1 NN3      0.046700
     30 H52         2.1500   -0.4740   -0.5760 hc        1 NN3      0.046700
     31 H61         3.2520   -0.2490    1.5880 hc        1 NN3      0.052950
     32 H62         1.8570    0.6900    2.2690 hc        1 NN3      0.052950
     33 H71         0.2620    1.6890   -1.6810 hc        1 NN3      0.025367
     34 H72         0.2200   -0.0640   -2.1360 hc        1 NN3      0.025367
     35 H73        -1.2770    0.7440   -1.5130 hc        1 NN3      0.025367
     36 H12         3.3530   -2.9990    4.4470 ha        1 NN3      0.142000
     37 H31         0.0150   -1.8190   -0.3200 hc        1 NN3      0.046700
     38 H32        -1.4900   -1.0030    0.2720 hc        1 NN3      0.046700
     39 H1          1.6570   -1.4750    3.1560 hc        1 NN3      0.066700
     40 H21A       -0.4790   -0.6660    2.5060 hc        1 NN3      0.052950
     41 H22A       -0.4540   -2.4220    2.0440 hc        1 NN3      0.052950
     42 H22         2.1350   -5.9390    2.1600 h1        1 NN3      0.079700
     43 H241        0.3880   -5.4020    0.5370 hc        1 NN3      0.042200
     44 H242        1.7200   -6.3470   -0.2570 hc        1 NN3      0.042200
     45 H243        1.5790   -4.5620   -0.5640 hc        1 NN3      0.042200
     46 H231        4.0870   -4.5050    0.2020 hc        1 NN3      0.042200
     47 H232        3.9710   -6.2890    0.5380 hc        1 NN3      0.042200
     48 H233        4.5180   -5.1550    1.8420 hc        1 NN3      0.042200
     49 H21         0.2010   -3.5030    7.9540 ha        1 NN3      0.135000
     50 H20         0.9910   -2.9050   10.2370 ha        1 NN3      0.119500
     51 H19         3.4000   -2.3890   10.6370 ha        1 NN3      0.117000
     52 H18         5.0190   -2.4830    8.7400 ha        1 NN3      0.119500
     53 H17         4.2410   -3.0920    6.4590 ha        1 NN3      0.135000
@<TRIPOS>BOND
     1    1    2 1   
     2    1    5 1   
     3    1   10 1   
     4    1   28 1   
     5    2    3 1   
     6    2   29 1   
     7    2   30 1   
     8    3   12 1   
     9    3   31 1   
    10    3   32 1   
    11    4    7 2   
    12    4    8 1   
    13    4   14 1   
    14    5   33 1   
    15    5   34 1   
    16    5   35 1   
    17    6   11 2   
    18    6   12 1   
    19    6   14 1   
    20    7   18 1   
    21    7   21 1   
    22    8    9 2   
    23    8   36 1   
    24    9   21 1   
    25    9   22 1   
    26   10   13 1   
    27   10   37 1   
    28   10   38 1   
    29   12   13 1   
    30   12   39 1   
    31   13   40 1   
    32   13   41 1   
    33   14   15 1   
    34   15   16 1   
    35   15   17 1   
    36   15   42 1   
    37   16   43 1   
    38   16   44 1   
    39   16   45 1   
    40   17   46 1   
    41   17   47 1   
    42   17   48 1   
    43   18   19 1   
    44   18   20 1   
    45   22   23 ar  
    46   22   27 ar  
    47   23   24 ar  
    48   23   49 1   
    49   24   25 ar  
    50   24   50 1   
    51   25   26 ar  
    52   25   51 1   
    53   26   27 ar  
    54   26   52 1   
    55   27   53 1   
@<TRIPOS>SUBSTRUCTURE
     1 NN3         1 TEMP              0 ****  ****    0 ROOT
