@<TRIPOS>MOLECULE
NN3
   53    55     1     0     0
SMALL
bcc


@<TRIPOS>ATOM
      1 C4          0.2120    0.3150    0.0030 c3        1 NN3     -0.066700
      2 C5          1.7240    0.2730    0.1570 c3        1 NN3     -0.072900
      3 C6          2.1320   -0.1270    1.5600 c3        1 NN3     -0.072400
      4 C11         1.6190   -3.9330    3.4020 cc        1 NN3     -0.039400
      5 C7         -0.1690    0.6920   -1.4120 c3        1 NN3     -0.085100
      6 C8          2.1150   -2.6440    1.3880 c         1 NN3      0.680100
      7 C10         0.4050   -4.4940    3.7990 cd        1 NN3     -0.109700
      8 C12         2.3710   -3.4690    4.5410 cc        1 NN3     -0.126000
      9 C13         1.6990   -3.6870    5.7310 cd        1 NN3     -0.146100
     10 C3         -0.3760   -1.0380    0.3780 c3        1 NN3     -0.072900
     11 O27         2.6500   -2.5730    0.2600 o         1 NN3     -0.643100
     12 C1          1.4830   -1.4160    2.0430 c3        1 NN3     -0.124700
     13 C2         -0.0210   -1.4130    1.8000 c3        1 NN3     -0.072400
     14 N14         2.1180   -3.8490    2.0850 n         1 NN3     -0.351000
     15 C22         2.3790   -5.1190    1.4040 c3        1 NN3      0.119700
     16 C24         1.4710   -5.3620    0.1980 c3        1 NN3     -0.112600
     17 C23         3.8410   -5.2620    0.9750 c3        1 NN3     -0.112600
     18 C15        -0.6360   -5.0960    2.8690 c         1 NN3      0.931200
     19 O26        -1.5150   -4.3200    2.4060 o         1 NN3     -0.802800
     20 O25        -0.5500   -6.3290    2.6260 o         1 NN3     -0.802800
     21 S9          0.2170   -4.4450    5.4460 ss        1 NN3      0.053200
     22 C16         2.1590   -3.3380    7.0490 ca        1 NN3      0.046000
     23 C21         1.2560   -3.2870    8.1270 ca        1 NN3     -0.139500
     24 C20         1.6930   -2.9520    9.4040 ca        1 NN3     -0.127500
     25 C19         3.0380   -2.6590    9.6330 ca        1 NN3     -0.158000
     26 C18         3.9430   -2.7070    8.5740 ca        1 NN3     -0.127500
     27 C17         3.5110   -3.0450    7.2940 ca        1 NN3     -0.139500
     28 H4         -0.2000    1.0930    0.7060 hc        1 NN3      0.031700
     29 H51         2.1550    1.2800   -0.0820 hc        1 NN3      0.046700
     30 H52         2.1500   -0.4680   -0.5720 hc        1 NN3      0.046700
     31 H61         1.8480    0.6910    2.2740 hc        1 NN3      0.052950
     32 H62         3.2470   -0.2420    1.5940 hc        1 NN3      0.052950
     33 H71        -1.2800    0.7390   -1.5150 hc        1 NN3      0.025367
     34 H72         0.2220   -0.0630   -2.1360 hc        1 NN3      0.025367
     35 H73         0.2560    1.6900   -1.6780 hc        1 NN3      0.025367
     36 H12         3.3510   -2.9950    4.4510 ha        1 NN3      0.142000
     37 H31        -1.4900   -1.0110    0.2680 hc        1 NN3      0.046700
     38 H32         0.0200   -1.8210   -0.3220 hc        1 NN3      0.046700
     39 H1          1.6530   -1.4760    3.1570 hc        1 NN3      0.066700
     40 H21A       -0.4530   -2.4280    2.0400 hc        1 NN3      0.052950
     41 H22A       -0.4850   -0.6730    2.5050 hc        1 NN3      0.052950
     42 H22         2.1480   -5.9360    2.1570 h1        1 NN3      0.079700
     43 H241        1.7390   -6.3430   -0.2610 hc        1 NN3      0.042200
     44 H242        1.5940   -4.5580   -0.5670 hc        1 NN3      0.042200
     45 H243        0.4020   -5.4030    0.5310 hc        1 NN3      0.042200
     46 H231        4.0990   -4.4950    0.2060 hc        1 NN3      0.042200
     47 H232        3.9880   -6.2780    0.5390 hc        1 NN3      0.042200
     48 H233        4.5280   -5.1450    1.8460 hc        1 NN3      0.042200
     49 H21         0.1930   -3.5140    7.9500 ha        1 NN3      0.135000
     50 H20         0.9750   -2.9170   10.2350 ha        1 NN3      0.119500
     51 H19         3.3810   -2.3940   10.6420 ha        1 NN3      0.117000
     52 H18         5.0040   -2.4790    8.7490 ha        1 NN3      0.119500
     53 H17         4.2340   -3.0870    6.4650 ha        1 NN3      0.135000
@<TRIPOS>BOND
     1    1    2 1   
     2    1    5 1   
     3    1   10 1   
     4    1   28 1   
     5    2    3 1   
     6    2   29 1   
     7    2   30 1   
     8    3   12 1   
     9    3   31 1   
    10    3   32 1   
    11    4    7 2   
    12    4    8 1   
    13    4   14 1   
    14    5   33 1   
    15    5   34 1   
    16    5   35 1   
    17    6   11 2   
    18    6   12 1   
    19    6   14 1   
    20    7   18 1   
    21    7   21 1   
    22    8    9 2   
    23    8   36 1   
    24    9   21 1   
    25    9   22 1   
    26   10   13 1   
    27   10   37 1   
    28   10   38 1   
    29   12   13 1   
    30   12   39 1   
    31   13   40 1   
    32   13   41 1   
    33   14   15 1   
    34   15   16 1   
    35   15   17 1   
    36   15   42 1   
    37   16   43 1   
    38   16   44 1   
    39   16   45 1   
    40   17   46 1   
    41   17   47 1   
    42   17   48 1   
    43   18   19 1   
    44   18   20 1   
    45   22   23 ar  
    46   22   27 ar  
    47   23   24 ar  
    48   23   49 1   
    49   24   25 ar  
    50   24   50 1   
    51   25   26 ar  
    52   25   51 1   
    53   26   27 ar  
    54   26   52 1   
    55   27   53 1   
@<TRIPOS>SUBSTRUCTURE
     1 NN3         1 TEMP              0 ****  ****    0 ROOT
