@<TRIPOS>MOLECULE
NN3
   54    56     1     0     0
SMALL
bcc


@<TRIPOS>ATOM
      1 C4          0.0360   -0.5220   -1.6680 c3        1 NN3     -0.065700
      2 C5          1.0420   -1.1720   -0.7300 c3        1 NN3     -0.080900
      3 C6          1.0150   -0.5300    0.6400 c3        1 NN3     -0.072900
      4 C11         2.5520   -2.9150    4.4230 cc        1 NN3      0.117600
      5 C7          0.0720   -1.1820   -3.0290 c3        1 NN3     -0.089100
      6 C8         -0.7420   -1.9310    1.7060 c         1 NN3      0.667100
      7 C10         1.2100   -2.6760    4.7470 cd        1 NN3     -0.176700
      8 C12         3.2060   -3.6240    5.4900 cc        1 NN3     -0.191000
      9 C13         2.3460   -3.8870    6.5430 cd        1 NN3     -0.050100
     10 C3         -1.3590   -0.6060   -1.0690 c3        1 NN3     -0.080900
     11 O27        -1.5890   -2.6990    1.2650 o         1 NN3     -0.464000
     12 C1         -0.3760   -0.5430    1.2630 c3        1 NN3     -0.135700
     13 C2         -1.4140    0.0270    0.3050 c3        1 NN3     -0.072900
     14 N14         3.1710   -2.4520    3.2400 nh        1 NN3     -0.695600
     15 C22         3.5460   -3.5140    2.2940 c3        1 NN3      0.179500
     16 C24         2.3290   -4.2000    1.6800 c3        1 NN3     -0.094600
     17 C23         4.4200   -2.9550    1.1700 c3        1 NN3     -0.094600
     18 C15         0.2670   -1.9450    3.9120 c         1 NN3      0.726700
     19 O26        -0.3560   -0.9170    4.1840 o         1 NN3     -0.536000
     20 O25         0.0290   -2.5490    2.7040 os        1 NN3     -0.473200
     21 S9          0.8110   -3.2920    6.2440 ss        1 NN3      0.139200
     22 C16         2.6850   -4.5890    7.7600 ca        1 NN3     -0.019000
     23 C21         2.0090   -4.3010    8.9570 ca        1 NN3     -0.116000
     24 C20         2.3330   -4.9790   10.1280 ca        1 NN3     -0.126000
     25 C19         3.3350   -5.9510   10.1220 ca        1 NN3     -0.121000
     26 C18         4.0110   -6.2420    8.9380 ca        1 NN3     -0.126000
     27 C17         3.6900   -5.5680    7.7620 ca        1 NN3     -0.116000
     28 H4          0.3100    0.5650   -1.7860 hc        1 NN3      0.044700
     29 H51         2.0740   -1.0810   -1.1600 hc        1 NN3      0.049450
     30 H52         0.8090   -2.2660   -0.6370 hc        1 NN3      0.049450
     31 H61         1.3480    0.5380    0.5590 hc        1 NN3      0.056200
     32 H62         1.7320   -1.0650    1.3190 hc        1 NN3      0.056200
     33 H71         1.0940   -1.1020   -3.4720 hc        1 NN3      0.034700
     34 H72        -0.1960   -2.2630   -2.9490 hc        1 NN3      0.034700
     35 H73        -0.6540   -0.6870   -3.7180 hc        1 NN3      0.034700
     36 H12         4.2610   -3.9070    5.4600 ha        1 NN3      0.160000
     37 H31        -1.6700   -1.6830   -0.9930 hc        1 NN3      0.049450
     38 H32        -2.0880   -0.0880   -1.7440 hc        1 NN3      0.049450
     39 H1         -0.3580    0.1030    2.1910 hc        1 NN3      0.102700
     40 H21A       -2.4370   -0.1200    0.7400 hc        1 NN3      0.056200
     41 H22A       -1.2320    1.1310    0.2170 hc        1 NN3      0.056200
     42 H22         4.1500   -4.3100    2.8340 h1        1 NN3      0.018700
     43 H241        2.6740   -5.0290    1.0180 hc        1 NN3      0.043867
     44 H242        1.7280   -3.4750    1.0770 hc        1 NN3      0.043867
     45 H243        1.6630   -4.6180    2.4730 hc        1 NN3      0.043867
     46 H231        4.7020   -3.7900    0.4850 hc        1 NN3      0.043867
     47 H232        5.3540   -2.4950    1.5730 hc        1 NN3      0.043867
     48 H233        3.8640   -2.1840    0.5830 hc        1 NN3      0.043867
     49 H21         1.2220   -3.5300    8.9680 ha        1 NN3      0.136000
     50 H20         1.7990   -4.7460   11.0610 ha        1 NN3      0.136500
     51 H19         3.5900   -6.4850   11.0490 ha        1 NN3      0.135000
     52 H18         4.8000   -7.0090    8.9300 ha        1 NN3      0.136500
     53 H17         4.2210   -5.8050    6.8280 ha        1 NN3      0.136000
     54 H141        3.9890   -1.9180    3.4820 hn        1 NN3      0.374800
@<TRIPOS>BOND
     1    1    2 1   
     2    1    5 1   
     3    1   10 1   
     4    1   28 1   
     5    2    3 1   
     6    2   29 1   
     7    2   30 1   
     8    3   12 1   
     9    3   31 1   
    10    3   32 1   
    11    4    7 2   
    12    4    8 1   
    13    4   14 1   
    14    5   33 1   
    15    5   34 1   
    16    5   35 1   
    17    6   11 2   
    18    6   12 1   
    19    6   20 1   
    20    7   18 1   
    21    7   21 1   
    22    8    9 2   
    23    8   36 1   
    24    9   21 1   
    25    9   22 1   
    26   10   13 1   
    27   10   37 1   
    28   10   38 1   
    29   12   13 1   
    30   12   39 1   
    31   13   40 1   
    32   13   41 1   
    33   14   15 1   
    34   14   54 1   
    35   15   16 1   
    36   15   17 1   
    37   15   42 1   
    38   16   43 1   
    39   16   44 1   
    40   16   45 1   
    41   17   46 1   
    42   17   47 1   
    43   17   48 1   
    44   18   19 2   
    45   18   20 1   
    46   22   23 ar  
    47   22   27 ar  
    48   23   24 ar  
    49   23   49 1   
    50   24   25 ar  
    51   24   50 1   
    52   25   26 ar  
    53   25   51 1   
    54   26   27 ar  
    55   26   52 1   
    56   27   53 1   
@<TRIPOS>SUBSTRUCTURE
     1 NN3         1 TEMP              0 ****  ****    0 ROOT
