@<TRIPOS>MOLECULE
NN3
   53    48     1     0     0
SMALL
bcc


@<TRIPOS>ATOM
      1 C4         -2.4730    2.8770   -2.6520 c3        1 NN3     -0.105000
      2 C5         -1.0990    2.5960   -3.1790 c3        1 NN3     -0.153500
      3 C6         -0.0040    2.9510   -2.1930 c3        1 NN3     -0.142500
      4 C11         1.4980   -1.1280   -0.0970 c1        1 NN3     -0.011000
      5 C7         -3.5210    2.3040   -3.6600 c3        1 NN3     -0.202000
      6 C8          0.0870    0.8040   -0.8270 c1        1 NN3      0.336000
      7 C10         1.5980   -2.3110   -0.9420 c1        1 NN3     -0.357000
      8 C12         1.0430   -1.5880    1.3600 c1        1 NN3     -0.101000
      9 C13         0.8800   -3.0380    1.3540 c2        1 NN3     -0.425000
     10 C3         -2.7220    2.2750   -1.3130 c3        1 NN3     -0.153500
     11 O27        -0.7310    0.0300   -1.3020 o         1 NN3     -0.369000
     12 C1         -0.2100    2.3070   -0.7980 c2        1 NN3     -0.115000
     13 C2         -1.6490    2.6260   -0.2990 c3        1 NN3     -0.142500
     14 N14         1.2820    0.2890   -0.1780 n2        1 NN3     -0.270000
     15 C22         2.3090    1.2040    0.2830 c3        1 NN3      0.046000
     16 C24         2.1360    1.4500    1.7720 c3        1 NN3     -0.231500
     17 C23         3.6860    0.5960    0.0230 c3        1 NN3     -0.231500
     18 C15         1.8640   -2.3190   -2.4280 c1        1 NN3      0.378000
     19 O26         3.0160   -2.0640   -2.8610 o         1 NN3     -0.546000
     20 O25         0.9420   -2.6160   -3.2310 o         1 NN3     -0.546000
     21 S9          1.2170   -3.5500   -0.0750 ss        1 NN3      0.594000
     22 C16         0.2240   -3.5660    2.4620 c1        1 NN3      0.051000
     23 C21         0.9010   -3.7110    3.6630 c1        1 NN3     -0.138000
     24 C20         0.2230   -4.1380    4.7960 c1        1 NN3     -0.138000
     25 C19        -1.1330   -4.4200    4.7280 c1        1 NN3     -0.138000
     26 C18        -1.8110   -4.2750    3.5270 c1        1 NN3     -0.138000
     27 C17        -1.1320   -3.8480    2.3940 c1        1 NN3     -0.148000
     28 H4         -2.5930    3.8460   -2.5890 hc        1 NN3      0.064000
     29 H51        -0.9640    3.1130   -3.9970 hc        1 NN3      0.096000
     30 H52        -1.0320    1.6430   -3.3940 hc        1 NN3      0.096000
     31 H61         0.8560    2.6510   -2.5550 hc        1 NN3      0.083500
     32 H62         0.0210    3.9270   -2.0880 hc        1 NN3      0.083500
     33 H71        -4.3930    2.2300   -3.2180 hc        1 NN3      0.065667
     34 H72        -3.5950    2.9050   -4.4320 hc        1 NN3      0.065667
     35 H73        -3.2310    1.4150   -3.9640 hc        1 NN3      0.065667
     36 H12         0.8980   -1.0010    2.1250 DU        1 NN3      0.142000
     37 H31        -2.7600    1.3020   -1.4070 hc        1 NN3      0.096000
     38 H32        -3.5870    2.5950   -0.9800 hc        1 NN3      0.096000
     39 H1          0.4540    2.6180   -0.1590 ha        1 NN3      0.085000
     40 H21A       -1.8170    2.1200    0.5240 hc        1 NN3      0.083500
     41 H22A       -1.7080    3.5810   -0.0980 hc        1 NN3      0.083500
     42 H22         2.2310    2.0490   -0.1970 h1        1 NN3      0.085000
     43 H241        1.2610    1.1210    2.0570 hc        1 NN3      0.080833
     44 H242        2.8400    0.9750    2.2660 hc        1 NN3      0.080833
     45 H243        2.2000    2.4100    1.9550 hc        1 NN3      0.080833
     46 H231        4.3800    1.1830    0.3950 hc        1 NN3      0.080833
     47 H232        3.7400   -0.2870    0.4520 hc        1 NN3      0.080833
     48 H233        3.8230    0.4990   -0.9410 hc        1 NN3      0.080833
     49 H21         1.8480   -3.4790    3.7200 ha        1 NN3      0.121750
     50 H20         0.6990   -4.2390    5.6390 ha        1 NN3      0.121750
     51 H19        -1.6220   -4.6650    5.5380 ha        1 NN3      0.121750
     52 H18        -2.7650   -4.4740    3.4790 ha        1 NN3      0.121750
     53 H17        -1.6040   -3.7740    1.5410 ha        1 NN3      0.135000
@<TRIPOS>BOND
     1    1    2 1   
     2    1    5 1   
     3    1   10 1   
     4    1   28 1   
     5    2    3 1   
     6    2   29 1   
     7    2   30 1   
     8    3   12 1   
     9    3   31 1   
    10    3   32 1   
    11    4    7 1   
    12    4    8 1   
    13    5   33 1   
    14    5   34 1   
    15    5   35 1   
    16    6   11 1   
    17    6   14 1   
    18    7   21 1   
    19    8    9 1   
    20    9   21 1   
    21    9   22 1   
    22   10   13 1   
    23   10   37 1   
    24   10   38 1   
    25   12   13 1   
    26   12   39 1   
    27   13   40 1   
    28   13   41 1   
    29   14   15 1   
    30   15   16 1   
    31   15   17 1   
    32   15   42 1   
    33   16   43 1   
    34   16   44 1   
    35   16   45 1   
    36   17   46 1   
    37   17   47 1   
    38   17   48 1   
    39   18   19 1   
    40   18   20 1   
    41   22   27 1   
    42   23   24 1   
    43   23   49 1   
    44   24   50 1   
    45   25   26 1   
    46   25   51 1   
    47   26   52 1   
    48   27   53 1   
@<TRIPOS>SUBSTRUCTURE
     1 NN3         1 TEMP              0 ****  ****    0 ROOT
