@<TRIPOS>MOLECULE
NN4
   60    63     1     0     0
SMALL
bcc


@<TRIPOS>ATOM
      1 C4          0.8680    0.5440    1.0440 c3        1 NN4     -0.096400
      2 C5          2.0060   -0.4170    1.3630 c3        1 NN4     -0.072700
      3 C6          1.7320   -1.1090    2.6950 c3        1 NN4     -0.073400
      4 C7          0.5010   -2.9360    1.4980 c3        1 NN4     -0.073400
      5 C8         -0.3600   -1.2710   -0.1390 c3        1 NN4     -0.096400
      6 C10         0.7720   -2.2440    0.1640 c3        1 NN4     -0.072700
      7 C15         3.2180   -1.9800   -1.9770 c         1 NN4      0.545100
      8 C20         3.1480   -2.1370   -4.4420 c3        1 NN4     -0.132600
      9 C21         3.9420    0.6900   -4.4110 ca        1 NN4     -0.004900
     10 C22         3.0280    0.8730   -5.4610 ca        1 NN4     -0.090000
     11 C24         4.6380    2.3220   -6.5380 ca        1 NN4      0.170100
     12 C26         5.1990    1.3040   -4.4190 ca        1 NN4     -0.090000
     13 C28         6.1390    3.7610   -7.7060 c3        1 NN4      0.104700
     14 O17         3.1870   -3.1480   -1.6320 o         1 NN4     -0.415100
     15 N11         2.6090   -0.9640   -1.0240 n4        1 NN4     -0.668800
     16 C9          2.1290   -1.5140    0.2810 c3        1 NN4      0.119500
     17 C3         -0.4460   -0.2220    0.9620 c3        1 NN4     -0.060700
     18 C2         -0.7310   -0.9060    2.2990 c3        1 NN4     -0.090400
     19 C1          0.4030   -1.8820    2.6160 c3        1 NN4     -0.114000
     20 C12         0.2430   -2.6270    3.9280 c         1 NN4      0.542100
     21 O14         1.0740   -3.3230    4.4860 o         1 NN4     -0.375100
     22 N13        -1.0820   -2.5350    4.6530 n4        1 NN4     -0.758400
     23 C16         3.8220   -1.4230   -3.2820 c3        1 NN4      0.123800
     24 C19         5.3200   -1.6880   -3.2400 c3        1 NN4     -0.132600
     25 O18         3.5340   -0.0130   -3.2750 os        1 NN4     -0.398900
     26 C25         5.5480    2.1270   -5.4870 ca        1 NN4     -0.170000
     27 O27         4.8720    3.1060   -7.6360 os        1 NN4     -0.304900
     28 C23         3.3720    1.6920   -6.5240 ca        1 NN4     -0.170000
     29 H41         0.8070    1.3260    1.8470 hc        1 NN4      0.074700
     30 H42         1.0570    1.0830    0.0800 hc        1 NN4      0.074700
     31 H5          2.9730    0.1520    1.4540 hc        1 NN4      0.099700
     32 H61         1.6760   -0.3320    3.5020 hc        1 NN4      0.085950
     33 H62         2.5660   -1.8150    2.9490 hc        1 NN4      0.085950
     34 H71         1.3230   -3.6640    1.7320 hc        1 NN4      0.085950
     35 H72        -0.4600   -3.5070    1.4200 hc        1 NN4      0.085950
     36 H81        -1.3270   -1.8380   -0.2040 hc        1 NN4      0.074700
     37 H82        -0.2150   -0.7720   -1.1310 hc        1 NN4      0.074700
     38 H10         0.8330   -3.0320   -0.6380 hc        1 NN4      0.099700
     39 H201        2.0530   -1.9220   -4.4600 hc        1 NN4      0.081700
     40 H202        3.5940   -1.7660   -5.4010 hc        1 NN4      0.081700
     41 H203        3.3140   -3.2400   -4.3680 hc        1 NN4      0.081700
     42 H22         2.0470    0.3760   -5.4340 ha        1 NN4      0.141500
     43 H26         5.9010    1.1450   -3.5880 ha        1 NN4      0.141500
     44 H281        6.0800    4.3200   -8.6750 h1        1 NN4      0.061033
     45 H282        6.9660    3.0120   -7.7300 h1        1 NN4      0.061033
     46 H283        6.2630    4.4660   -6.8480 h1        1 NN4      0.061033
     47 HN11        1.8370   -0.5020   -1.5240 hn        1 NN4      0.471300
     48 H9          2.9120   -2.2670    0.6090 hx        1 NN4      0.120700
     49 H3         -1.2840    0.4940    0.7360 hc        1 NN4      0.105700
     50 H21        -0.8090   -0.1230    3.0980 hc        1 NN4      0.060200
     51 H22A       -1.7100   -1.4460    2.2200 hc        1 NN4      0.060200
     52 H131       -1.3090   -1.5540    4.8500 hn        1 NN4      0.476800
     53 H132       -1.0360   -3.0560    5.5420 hn        1 NN4      0.476800
     54 H191        5.7970   -1.1460   -2.3890 hc        1 NN4      0.081700
     55 H192        5.7750   -1.3140   -4.1930 hc        1 NN4      0.081700
     56 H193        5.5190   -2.7830   -3.1490 hc        1 NN4      0.081700
     57 H25         6.5330    2.6170   -5.4960 ha        1 NN4      0.169000
     58 H23         2.6790    1.8630   -7.3620 ha        1 NN4      0.169000
     59 H112        3.3260   -0.2430   -0.8540 hn        1 NN4      0.471300
     60 H133       -1.8280   -2.9340    4.0730 hn        1 NN4      0.476800
@<TRIPOS>BOND
     1    1    2 1   
     2    1   17 1   
     3    1   29 1   
     4    1   30 1   
     5    2    3 1   
     6    2   16 1   
     7    2   31 1   
     8    3   19 1   
     9    3   32 1   
    10    3   33 1   
    11    4    6 1   
    12    4   19 1   
    13    4   34 1   
    14    4   35 1   
    15    5    6 1   
    16    5   17 1   
    17    5   36 1   
    18    5   37 1   
    19    6   16 1   
    20    6   38 1   
    21    7   14 2   
    22    7   15 1   
    23    7   23 1   
    24    8   23 1   
    25    8   39 1   
    26    8   40 1   
    27    8   41 1   
    28    9   10 ar  
    29    9   12 ar  
    30    9   25 1   
    31   10   28 ar  
    32   10   42 1   
    33   11   26 ar  
    34   11   27 1   
    35   11   28 ar  
    36   12   26 ar  
    37   12   43 1   
    38   13   27 1   
    39   13   44 1   
    40   13   45 1   
    41   13   46 1   
    42   15   16 1   
    43   15   47 1   
    44   15   59 1   
    45   16   48 1   
    46   17   18 1   
    47   17   49 1   
    48   18   19 1   
    49   18   50 1   
    50   18   51 1   
    51   19   20 1   
    52   20   21 2   
    53   20   22 1   
    54   22   52 1   
    55   22   53 1   
    56   22   60 1   
    57   23   24 1   
    58   23   25 1   
    59   24   54 1   
    60   24   55 1   
    61   24   56 1   
    62   26   57 1   
    63   28   58 1   
@<TRIPOS>SUBSTRUCTURE
     1 NN4         1 TEMP              0 ****  ****    0 ROOT
