@<TRIPOS>MOLECULE
NN4
   60    63     1     0     0
SMALL
bcc


@<TRIPOS>ATOM
      1 C4          0.8940    0.5390    1.0600 c3        1 NN4     -0.096400
      2 C5          2.0270   -0.4290    1.3730 c3        1 NN4     -0.072700
      3 C6          1.7510   -1.1250    2.7020 c3        1 NN4     -0.073400
      4 C7          0.5120   -2.9410    1.4970 c3        1 NN4     -0.073400
      5 C8         -0.3430   -1.2650   -0.1310 c3        1 NN4     -0.096400
      6 C10         0.7850   -2.2440    0.1670 c3        1 NN4     -0.072700
      7 C15         3.2300   -1.9810   -1.9750 c         1 NN4      0.545100
      8 C20         3.1610   -2.1430   -4.4400 c3        1 NN4     -0.132600
      9 C21         3.9230    0.6900   -4.4160 ca        1 NN4     -0.004900
     10 C22         3.0010    0.8630   -5.4620 ca        1 NN4     -0.090000
     11 C24         4.5930    2.3240   -6.5510 ca        1 NN4      0.170100
     12 C26         5.1740    1.3160   -4.4330 ca        1 NN4     -0.090000
     13 C28         6.0750    3.7740   -7.7300 c3        1 NN4      0.104700
     14 O17         3.2000   -3.1500   -1.6330 o         1 NN4     -0.415100
     15 N11         2.6280   -0.9660   -1.0160 ny        1 NN4     -0.668800
     16 C9          2.1450   -1.5210    0.2860 c3        1 NN4      0.119500
     17 C3         -0.4240   -0.2200    0.9750 c3        1 NN4     -0.060700
     18 C2         -0.7110   -0.9100    2.3090 c3        1 NN4     -0.090400
     19 C1          0.4190   -1.8930    2.6200 c3        1 NN4     -0.114000
     20 C12         0.2560   -2.6430    3.9290 c         1 NN4      0.542100
     21 O14         1.0840   -3.3460    4.4820 o         1 NN4     -0.375100
     22 N13        -1.0680   -2.5480    4.6560 nz        1 NN4     -0.758400
     23 C16         3.8290   -1.4200   -3.2810 c3        1 NN4      0.123800
     24 C19         5.3290   -1.6710   -3.2390 c3        1 NN4     -0.132600
     25 O18         3.5270   -0.0130   -3.2770 os        1 NN4     -0.398900
     26 C25         5.5100    2.1400   -5.5040 ca        1 NN4     -0.170000
     27 O27         4.8140    3.1070   -7.6520 os        1 NN4     -0.304900
     28 C23         3.3330    1.6820   -6.5290 ca        1 NN4     -0.170000
     29 H41         1.0850    1.0810    0.0980 hc        1 NN4      0.074700
     30 H42         0.8360    1.3180    1.8670 hc        1 NN4      0.074700
     31 H5          2.9970    0.1360    1.4680 hc        1 NN4      0.099700
     32 H61         2.5830   -1.8370    2.9530 hc        1 NN4      0.085950
     33 H62         1.6990   -0.3520    3.5140 hc        1 NN4      0.085950
     34 H71         1.3310   -3.6740    1.7280 hc        1 NN4      0.085950
     35 H72        -0.4520   -3.5080    1.4170 hc        1 NN4      0.085950
     36 H81        -0.1960   -0.7620   -1.1210 hc        1 NN4      0.074700
     37 H82        -1.3120   -1.8280   -0.1990 hc        1 NN4      0.074700
     38 H10         0.8430   -3.0290   -0.6390 hc        1 NN4      0.099700
     39 H201        3.6030   -1.7700   -5.3990 hc        1 NN4      0.081867
     40 H202        3.3370   -3.2440   -4.3640 hc        1 NN4      0.081867
     41 H203        2.0640   -1.9380   -4.4580 hc        1 NN4      0.081867
     42 H22         2.0250    0.3570   -5.4290 ha        1 NN4      0.141500
     43 H26         5.8820    1.1650   -3.6050 ha        1 NN4      0.141500
     44 H281        6.1960    4.4820   -6.8750 h1        1 NN4      0.061033
     45 H282        6.9090    3.0320   -7.7570 h1        1 NN4      0.061033
     46 H283        6.0050    4.3300   -8.7010 h1        1 NN4      0.061033
     47 HN11        1.8570   -0.4980   -1.5140 hn        1 NN4      0.471300
     48 H9          2.9260   -2.2780    0.6110 hx        1 NN4      0.120700
     49 H3         -1.2590    0.5000    0.7520 hc        1 NN4      0.105700
     50 H21        -0.7850   -0.1310    3.1120 hc        1 NN4      0.060200
     51 H22A       -1.6920   -1.4450    2.2280 hc        1 NN4      0.060200
     52 H131       -1.8160   -2.9390    4.0740 hn        1 NN4      0.476800
     53 H132       -1.0230   -3.0730    5.5420 hn        1 NN4      0.476800
     54 H191        5.8010   -1.1230   -2.3890 hc        1 NN4      0.081867
     55 H192        5.5390   -2.7640   -3.1470 hc        1 NN4      0.081867
     56 H193        5.7800   -1.2940   -4.1930 hc        1 NN4      0.081867
     57 H25         6.4900    2.6390   -5.5190 ha        1 NN4      0.169000
     58 H23         2.6330    1.8450   -7.3640 ha        1 NN4      0.169000
     59 H112        3.3480   -0.2510   -0.8430 hn        1 NN4      0.471300
     60 H133       -1.2880   -1.5670    4.8580 hn        1 NN4      0.476800
@<TRIPOS>BOND
     1    1    2 1   
     2    1   17 1   
     3    1   29 1   
     4    1   30 1   
     5    2    3 1   
     6    2   16 1   
     7    2   31 1   
     8    3   19 1   
     9    3   32 1   
    10    3   33 1   
    11    4    6 1   
    12    4   19 1   
    13    4   34 1   
    14    4   35 1   
    15    5    6 1   
    16    5   17 1   
    17    5   36 1   
    18    5   37 1   
    19    6   16 1   
    20    6   38 1   
    21    7   14 2   
    22    7   15 1   
    23    7   23 1   
    24    8   23 1   
    25    8   39 1   
    26    8   40 1   
    27    8   41 1   
    28    9   10 ar  
    29    9   12 ar  
    30    9   25 1   
    31   10   28 ar  
    32   10   42 1   
    33   11   26 ar  
    34   11   27 1   
    35   11   28 ar  
    36   12   26 ar  
    37   12   43 1   
    38   13   27 1   
    39   13   44 1   
    40   13   45 1   
    41   13   46 1   
    42   15   16 1   
    43   15   47 1   
    44   15   59 1   
    45   16   48 1   
    46   17   18 1   
    47   17   49 1   
    48   18   19 1   
    49   18   50 1   
    50   18   51 1   
    51   19   20 1   
    52   20   21 2   
    53   20   22 1   
    54   22   52 1   
    55   22   53 1   
    56   22   60 1   
    57   23   24 1   
    58   23   25 1   
    59   24   54 1   
    60   24   55 1   
    61   24   56 1   
    62   26   57 1   
    63   28   58 1   
@<TRIPOS>SUBSTRUCTURE
     1 NN4         1 TEMP              0 ****  ****    0 ROOT
