@<TRIPOS>MOLECULE
NN4
   60    63     1     0     0
SMALL
bcc


@<TRIPOS>ATOM
      1 C4          0.8890    0.5450    1.0540 c3        1 NN4     -0.096400
      2 C5          2.0160   -0.4290    1.3730 c3        1 NN4     -0.072700
      3 C6          1.7290   -1.1250    2.7000 c3        1 NN4     -0.073400
      4 C7          0.4870   -2.9340    1.4860 c3        1 NN4     -0.073400
      5 C8         -0.3510   -1.2520   -0.1450 c3        1 NN4     -0.096400
      6 C10         0.7710   -2.2370    0.1580 c3        1 NN4     -0.072700
      7 C15         3.2290   -1.9850   -1.9700 c         1 NN4      0.545100
      8 C20         3.1730   -2.1470   -4.4360 c3        1 NN4     -0.132600
      9 C21         3.9430    0.6840   -4.4080 ca        1 NN4     -0.004900
     10 C22         3.0270    0.8590   -5.4580 ca        1 NN4     -0.090000
     11 C24         4.6290    2.3150   -6.5400 ca        1 NN4      0.170100
     12 C26         5.1960    1.3050   -4.4190 ca        1 NN4     -0.090000
     13 C28         6.1210    3.7600   -7.7120 c3        1 NN4      0.104700
     14 O17         3.1910   -3.1540   -1.6290 o         1 NN4     -0.415100
     15 N11         2.6260   -0.9680   -1.0140 n4        1 NN4     -0.668800
     16 C9          2.1340   -1.5210    0.2860 c3        1 NN4      0.119500
     17 C3         -0.4320   -0.2080    0.9610 c3        1 NN4     -0.060700
     18 C2         -0.7300   -0.8970    2.2930 c3        1 NN4     -0.090400
     19 C1          0.3930   -1.8850    2.6100 c3        1 NN4     -0.114000
     20 C12         0.2190   -2.6360    3.9170 c         1 NN4      0.542100
     21 O14         1.0410   -3.3440    4.4740 o         1 NN4     -0.375100
     22 N13        -1.1080   -2.5350    4.6370 n4        1 NN4     -0.758400
     23 C16         3.8360   -1.4260   -3.2730 c3        1 NN4      0.123800
     24 C19         5.3350   -1.6810   -3.2220 c3        1 NN4     -0.132600
     25 O18         3.5390   -0.0180   -3.2700 os        1 NN4     -0.398900
     26 C25         5.5400    2.1270   -5.4880 ca        1 NN4     -0.170000
     27 O27         4.8580    3.0970   -7.6400 os        1 NN4     -0.304900
     28 C23         3.3660    1.6770   -6.5240 ca        1 NN4     -0.170000
     29 H41         0.8310    1.3230    1.8610 hc        1 NN4      0.074700
     30 H42         1.0880    1.0870    0.0940 hc        1 NN4      0.074700
     31 H5          2.9870    0.1310    1.4730 hc        1 NN4      0.099700
     32 H61         1.6760   -0.3520    3.5110 hc        1 NN4      0.085950
     33 H62         2.5550   -1.8410    2.9540 hc        1 NN4      0.085950
     34 H71        -0.4800   -3.4950    1.4010 hc        1 NN4      0.085950
     35 H72         1.3010   -3.6710    1.7210 hc        1 NN4      0.085950
     36 H81        -0.1960   -0.7490   -1.1340 hc        1 NN4      0.074700
     37 H82        -1.3230   -1.8100   -0.2190 hc        1 NN4      0.074700
     38 H10         0.8280   -3.0210   -0.6480 hc        1 NN4      0.099700
     39 H201        3.6220   -1.7750   -5.3920 hc        1 NN4      0.081867
     40 H202        2.0770   -1.9380   -4.4600 hc        1 NN4      0.081867
     41 H203        3.3440   -3.2480   -4.3580 hc        1 NN4      0.081867
     42 H22         2.0490    0.3570   -5.4300 ha        1 NN4      0.141500
     43 H26         5.9000    1.1530   -3.5870 ha        1 NN4      0.141500
     44 H281        6.2410    4.4670   -6.8560 h1        1 NN4      0.061033
     45 H282        6.9530    3.0140   -7.7350 h1        1 NN4      0.061033
     46 H283        6.0580    4.3160   -8.6830 h1        1 NN4      0.061033
     47 HN11        1.8610   -0.4950   -1.5150 hn        1 NN4      0.471800
     48 H9          2.9080   -2.2820    0.6140 hx        1 NN4      0.120700
     49 H3         -1.2620    0.5170    0.7350 hc        1 NN4      0.105700
     50 H21        -0.8050   -0.1180    3.0960 hc        1 NN4      0.060200
     51 H22A       -1.7140   -1.4270    2.2060 hc        1 NN4      0.060200
     52 H131       -1.3250   -1.5530    4.8390 hn        1 NN4      0.476800
     53 H132       -1.8550   -2.9220    4.0510 hn        1 NN4      0.476800
     54 H191        5.5410   -2.7750   -3.1290 hc        1 NN4      0.081867
     55 H192        5.7930   -1.3060   -4.1730 hc        1 NN4      0.081867
     56 H193        5.8040   -1.1350   -2.3700 hc        1 NN4      0.081867
     57 H25         6.5220    2.6230   -5.4990 ha        1 NN4      0.169000
     58 H23         2.6720    1.8420   -7.3620 ha        1 NN4      0.169000
     59 H112        3.3490   -0.2560   -0.8360 hn        1 NN4      0.471800
     60 H133       -1.0710   -3.0610    5.5230 hn        1 NN4      0.476800
@<TRIPOS>BOND
     1    1    2 1   
     2    1   17 1   
     3    1   29 1   
     4    1   30 1   
     5    2    3 1   
     6    2   16 1   
     7    2   31 1   
     8    3   19 1   
     9    3   32 1   
    10    3   33 1   
    11    4    6 1   
    12    4   19 1   
    13    4   34 1   
    14    4   35 1   
    15    5    6 1   
    16    5   17 1   
    17    5   36 1   
    18    5   37 1   
    19    6   16 1   
    20    6   38 1   
    21    7   14 2   
    22    7   15 1   
    23    7   23 1   
    24    8   23 1   
    25    8   39 1   
    26    8   40 1   
    27    8   41 1   
    28    9   10 ar  
    29    9   12 ar  
    30    9   25 1   
    31   10   28 ar  
    32   10   42 1   
    33   11   26 ar  
    34   11   27 1   
    35   11   28 ar  
    36   12   26 ar  
    37   12   43 1   
    38   13   27 1   
    39   13   44 1   
    40   13   45 1   
    41   13   46 1   
    42   15   16 1   
    43   15   47 1   
    44   15   59 1   
    45   16   48 1   
    46   17   18 1   
    47   17   49 1   
    48   18   19 1   
    49   18   50 1   
    50   18   51 1   
    51   19   20 1   
    52   20   21 2   
    53   20   22 1   
    54   22   52 1   
    55   22   53 1   
    56   22   60 1   
    57   23   24 1   
    58   23   25 1   
    59   24   54 1   
    60   24   55 1   
    61   24   56 1   
    62   26   57 1   
    63   28   58 1   
@<TRIPOS>SUBSTRUCTURE
     1 NN4         1 TEMP              0 ****  ****    0 ROOT
