@<TRIPOS>MOLECULE
NN4
   58    57     1     0     0
SMALL
bcc


@<TRIPOS>ATOM
      1 C4         -1.3400    0.9380    2.6670 c3        1 NN4     -0.152000
      2 C5         -0.0390    1.1650    2.6320 c3        1 NN4     -0.113500
      3 C6          0.6980    1.2180    4.0430 c3        1 NN4     -0.139500
      4 C7          0.4420   -0.0430    4.9820 c3        1 NN4     -0.139500
      5 C8         -1.1300   -1.1300    2.9080 c3        1 NN4     -0.152000
      6 C10         0.1030   -0.8840    2.9990 c3        1 NN4     -0.113500
      7 C15         0.5400   -0.4210   -0.5600 c1        1 NN4      0.307000
      8 C20        -1.6470   -1.0730   -1.7000 c3        1 NN4     -0.234500
      9 C21         0.1960    0.2790   -4.1380 c1        1 NN4      0.014000
     10 C22        -0.8700    0.0700   -5.0160 c1        1 NN4     -0.107000
     11 C24         0.6640    0.1290   -6.8870 c1        1 NN4      0.077000
     12 C26         1.5030    0.4140   -4.6390 c1        1 NN4     -0.105000
     13 C28         0.8310    1.2110   -8.9910 c3        1 NN4     -0.077000
     14 O17         1.7250   -0.3970   -0.4790 o         1 NN4     -0.371000
     15 N11        -0.2960   -0.1900    0.6570 n3        1 NN4     -0.351000
     16 C9          0.4280    0.0950    2.0990 c3        1 NN4      0.023000
     17 C3         -1.7070   -0.1150    3.4690 c3        1 NN4     -0.103000
     18 C2         -1.1210   -0.1180    4.9070 c3        1 NN4     -0.143000
     19 C1          0.2280    0.2740    5.0160 c3        1 NN4     -0.066000
     20 C12         0.4520    0.8760    6.4360 c2        1 NN4      0.306000
     21 O14        -0.0910    1.9440    6.7470 o         1 NN4     -0.374000
     22 N13         1.3430    0.2210    7.3660 n         1 NN4     -0.438000
     23 C16        -0.1390   -0.6870   -1.9300 c2        1 NN4      0.072000
     24 C19         0.5690   -1.8170   -2.6340 c3        1 NN4     -0.234500
     25 O18        -0.0650    0.5260   -2.7530 os        1 NN4     -0.243000
     26 C25         1.7330    0.3390   -6.0080 c2        1 NN4     -0.148000
     27 O27         0.9040   -0.0060   -8.2700 o         1 NN4     -0.208000
     28 C23        -0.6380   -0.0050   -6.3870 c1        1 NN4     -0.197000
     29 H41        -1.6500    0.7540    1.7490 hc        1 NN4      0.083000
     30 H42        -1.8020    1.7730    3.0050 hc        1 NN4      0.083000
     31 H5          0.1660    1.9300    2.1020 hc        1 NN4      0.103500
     32 H61         1.6940    1.0510    3.8890 hc        1 NN4      0.096000
     33 H62         0.5860    2.1590    4.4260 hc        1 NN4      0.096000
     34 H71         1.3850    0.1850    5.0870 hc        1 NN4      0.096000
     35 H72         0.1770   -0.7010    5.6700 hc        1 NN4      0.096000
     36 H81        -1.3510   -1.9620    3.3900 hc        1 NN4      0.083000
     37 H82        -1.3880   -1.1950    1.9980 hc        1 NN4      0.083000
     38 H10         0.6390   -1.6930    2.8600 hc        1 NN4      0.103500
     39 H201       -2.1830   -0.2310   -1.4410 hc        1 NN4      0.095333
     40 H202       -2.0240   -1.4630   -2.5450 hc        1 NN4      0.095333
     41 H203       -1.7110   -1.7490   -0.9630 hc        1 NN4      0.095333
     42 H22        -1.7820   -0.0270   -4.6660 ha        1 NN4      0.143000
     43 H26         2.2500    0.5610   -4.0250 ha        1 NN4      0.149000
     44 H281        1.2110    1.9230   -8.4590 h1        1 NN4      0.085000
     45 H282        1.3240    1.1250   -9.8120 h1        1 NN4      0.085000
     46 H283       -0.1250    1.4230   -9.1970 h1        1 NN4      0.085000
     47 HN11       -1.2210   -0.1250    0.5810 hn        1 NN4      0.233000
     48 H9          1.4060    0.1560    1.9930 h1        1 NN4      0.131000
     49 H3         -2.6960   -0.2310    3.4820 hc        1 NN4      0.092000
     50 H21        -1.6630    0.4930    5.4610 hc        1 NN4      0.085000
     51 H22A       -1.2100   -1.0380    5.2780 hc        1 NN4      0.085000
     52 H131        1.0130   -0.4470    7.9440 hn        1 NN4      0.224000
     53 H132        2.2170    0.4250    7.3700 hn        1 NN4      0.224000
     54 H191        0.1550   -1.9650   -3.5100 hc        1 NN4      0.095333
     55 H192        0.4970   -2.6390   -2.0910 hc        1 NN4      0.095333
     56 H193        1.5150   -1.5880   -2.7540 hc        1 NN4      0.095333
     57 H25         2.6670    0.4310   -6.3650 ha        1 NN4      0.154000
     58 H23        -1.3740   -0.1490   -6.9920 ha        1 NN4      0.140000
@<TRIPOS>BOND
     1    1    2 1   
     2    1   17 1   
     3    1   29 1   
     4    1   30 1   
     5    2    3 1   
     6    2   16 1   
     7    2   31 1   
     8    3   19 1   
     9    3   32 1   
    10    3   33 1   
    11    4    6 1   
    12    4   19 1   
    13    4   34 1   
    14    4   35 1   
    15    5    6 1   
    16    5   17 1   
    17    5   36 1   
    18    5   37 1   
    19    6   16 1   
    20    6   38 1   
    21    7   14 1   
    22    7   15 1   
    23    8   23 1   
    24    8   39 1   
    25    8   40 1   
    26    8   41 1   
    27    9   10 1   
    28    9   25 1   
    29   10   42 1   
    30   11   26 1   
    31   11   28 1   
    32   12   26 1   
    33   12   43 1   
    34   13   27 1   
    35   13   44 1   
    36   13   45 1   
    37   13   46 1   
    38   15   16 1   
    39   15   47 1   
    40   16   48 1   
    41   17   18 1   
    42   17   49 1   
    43   18   19 1   
    44   18   50 1   
    45   18   51 1   
    46   19   20 1   
    47   20   21 1   
    48   20   22 1   
    49   22   52 1   
    50   22   53 1   
    51   23   24 1   
    52   23   25 1   
    53   24   54 1   
    54   24   55 1   
    55   24   56 1   
    56   26   57 1   
    57   28   58 1   
@<TRIPOS>SUBSTRUCTURE
     1 NN4         1 TEMP              0 ****  ****    0 ROOT
