@<TRIPOS>MOLECULE
NN4
   58    61     1     0     0
SMALL
bcc


@<TRIPOS>ATOM
      1 C4          0.9530   -0.9180   -4.2270 c3        1 NN4     -0.073900
      2 C5          1.9420   -0.0190   -3.4980 c3        1 NN4     -0.074700
      3 C6          1.5440    0.0940   -2.0300 c3        1 NN4     -0.061400
      4 C7          2.9390   -1.9010   -1.4980 c3        1 NN4     -0.061400
      5 C8          2.3450   -2.9110   -3.6910 c3        1 NN4     -0.073900
      6 C10         3.3440   -2.0230   -2.9620 c3        1 NN4     -0.074700
      7 C15         4.8320    0.3930   -5.3100 c         1 NN4      0.632100
      8 C20         6.2050   -0.8780   -6.9640 c3        1 NN4     -0.100600
      9 C21         3.3890    1.1480   -8.0280 ca        1 NN4      0.068100
     10 C22         3.0220    1.1840   -9.3860 ca        1 NN4     -0.124000
     11 C24         1.6390    3.1090   -8.9250 ca        1 NN4      0.109100
     12 C26         2.8840    2.0900   -7.1270 ca        1 NN4     -0.124000
     13 C28         0.2670    5.0270   -8.5950 c3        1 NN4      0.113700
     14 O17         5.2960    1.2480   -4.5300 o         1 NN4     -0.610100
     15 N11         3.9450   -0.5760   -4.8980 n         1 NN4     -0.549900
     16 C9          3.3780   -0.5990   -3.5720 c3        1 NN4      0.102700
     17 C3          0.9500   -2.3040   -3.5930 c3        1 NN4     -0.063700
     18 C2          0.5420   -2.1930   -2.1270 c3        1 NN4     -0.064400
     19 C1          1.5360   -1.2940   -1.3850 c3        1 NN4     -0.116000
     20 C12         1.1620   -1.1990    0.0960 c         1 NN4      0.662100
     21 O14         1.9250   -1.6010    0.9980 o         1 NN4     -0.613100
     22 N13        -0.0540   -0.6590    0.4330 n         1 NN4     -0.677000
     23 C16         5.2950    0.3340   -6.7850 c3        1 NN4      0.091800
     24 C19         6.0270    1.6110   -7.1530 c3        1 NN4     -0.100600
     25 O18         4.1700    0.0680   -7.6460 os        1 NN4     -0.344900
     26 C25         2.0090    3.0780   -7.5770 ca        1 NN4     -0.161000
     27 O27         0.7760    4.0370   -9.4800 os        1 NN4     -0.326900
     28 C23         2.1430    2.1590   -9.8350 ca        1 NN4     -0.161000
     29 H41         1.2190   -0.9950   -5.3120 hc        1 NN4      0.044200
     30 H42        -0.0740   -0.4720   -4.1640 hc        1 NN4      0.044200
     31 H5          1.9300    1.0050   -3.9600 hc        1 NN4      0.062200
     32 H61         2.2650    0.7580   -1.4870 hc        1 NN4      0.056950
     33 H62         0.5270    0.5610   -1.9670 hc        1 NN4      0.056950
     34 H71         2.9460   -2.9120   -1.0140 hc        1 NN4      0.056950
     35 H72         3.6690   -1.2570   -0.9420 hc        1 NN4      0.056950
     36 H81         2.3450   -3.9310   -3.2260 hc        1 NN4      0.044200
     37 H82         2.6330   -3.0320   -4.7660 hc        1 NN4      0.044200
     38 H10         4.3670   -2.4820   -3.0220 hc        1 NN4      0.062200
     39 H201        7.0110   -0.8500   -6.1930 hc        1 NN4      0.057367
     40 H202        6.6640   -0.8560   -7.9810 hc        1 NN4      0.057367
     41 H203        5.6220   -1.8240   -6.8580 hc        1 NN4      0.057367
     42 H22         3.4280    0.4300  -10.0770 ha        1 NN4      0.149500
     43 H26         3.1810    2.0630   -6.0670 ha        1 NN4      0.149500
     44 H281        1.0980    5.6360   -8.1620 h1        1 NN4      0.045033
     45 H282       -0.3380    4.5560   -7.7830 h1        1 NN4      0.045033
     46 H283       -0.3810    5.6570   -9.2560 h1        1 NN4      0.045033
     47 HN11        3.5160   -1.1450   -5.5910 hn        1 NN4      0.319500
     48 H9          4.0420    0.0440   -2.9160 h1        1 NN4      0.090700
     49 H3          0.2160   -2.9620   -4.1310 hc        1 NN4      0.053700
     50 H21        -0.4920   -1.7680   -2.0630 hc        1 NN4      0.046200
     51 H22A        0.5310   -3.2090   -1.6560 hc        1 NN4      0.046200
     52 H131       -0.3100   -0.5880    1.3860 hn        1 NN4      0.310500
     53 H132       -0.6780   -0.3310   -0.2560 hn        1 NN4      0.310500
     54 H191        5.3890    2.5050   -6.9480 hc        1 NN4      0.057367
     55 H192        6.2960    1.5930   -8.2350 hc        1 NN4      0.057367
     56 H193        6.9550    1.6950   -6.5360 hc        1 NN4      0.057367
     57 H25         1.6210    3.8190   -6.8640 ha        1 NN4      0.147000
     58 H23         1.8370    2.2040  -10.8890 ha        1 NN4      0.147000
@<TRIPOS>BOND
     1    1    2 1   
     2    1   17 1   
     3    1   29 1   
     4    1   30 1   
     5    2    3 1   
     6    2   16 1   
     7    2   31 1   
     8    3   19 1   
     9    3   32 1   
    10    3   33 1   
    11    4    6 1   
    12    4   19 1   
    13    4   34 1   
    14    4   35 1   
    15    5    6 1   
    16    5   17 1   
    17    5   36 1   
    18    5   37 1   
    19    6   16 1   
    20    6   38 1   
    21    7   14 2   
    22    7   15 1   
    23    7   23 1   
    24    8   23 1   
    25    8   39 1   
    26    8   40 1   
    27    8   41 1   
    28    9   10 ar  
    29    9   12 ar  
    30    9   25 1   
    31   10   28 ar  
    32   10   42 1   
    33   11   26 ar  
    34   11   27 1   
    35   11   28 ar  
    36   12   26 ar  
    37   12   43 1   
    38   13   27 1   
    39   13   44 1   
    40   13   45 1   
    41   13   46 1   
    42   15   16 1   
    43   15   47 1   
    44   16   48 1   
    45   17   18 1   
    46   17   49 1   
    47   18   19 1   
    48   18   50 1   
    49   18   51 1   
    50   19   20 1   
    51   20   21 2   
    52   20   22 1   
    53   22   52 1   
    54   22   53 1   
    55   23   24 1   
    56   23   25 1   
    57   24   54 1   
    58   24   55 1   
    59   24   56 1   
    60   26   57 1   
    61   28   58 1   
@<TRIPOS>SUBSTRUCTURE
     1 NN4         1 TEMP              0 ****  ****    0 ROOT
