@<TRIPOS>MOLECULE
NN7
   61    64     1     0     0
SMALL
bcc


@<TRIPOS>ATOM
      1 C1         -0.0170   -1.0020    0.1780 c3        1 NN7     -0.131100
      2 C2          1.2710   -0.2110    0.3690 c3        1 NN7      0.116500
      3 C4          1.7420   -0.3720    1.8420 c3        1 NN7      0.160800
      4 N5          2.9640    0.3570    2.0720 nh        1 NN7     -0.761600
      5 C6          3.8400   -0.0840    3.0940 ca        1 NN7      0.157600
      6 C7          3.5650   -1.1160    3.9980 ca        1 NN7     -0.200000
      7 C8          4.5230   -1.5410    4.9370 ca        1 NN7     -0.076000
      8 C9          5.7730   -0.9570    5.0440 ca        1 NN7     -0.138000
      9 C10         6.0640    0.1000    4.1670 ca        1 NN7     -0.015200
     10 N11         7.2090    0.9020    3.9730 na        1 NN7      0.166800
     11 N12         7.0190    1.7880    2.9710 nc        1 NN7     -0.480100
     12 C13         5.7850    1.6030    2.4670 cd        1 NN7      0.332800
     13 C14         5.1050    0.5360    3.1820 ca        1 NN7     -0.240900
     14 C15         8.3760    0.8910    4.7920 ca        1 NN7     -0.004200
     15 C16         9.6500    1.0380    4.2080 ca        1 NN7     -0.102500
     16 C17        10.7880    1.0170    5.0050 ca        1 NN7     -0.153500
     17 C18        10.6690    0.8460    6.3970 ca        1 NN7      0.139900
     18 F19        11.7770    0.8180    7.1710 f         1 NN7     -0.124900
     19 C20         9.3980    0.7090    6.9840 ca        1 NN7     -0.153500
     20 C21         8.2600    0.7390    6.1890 ca        1 NN7     -0.102500
     21 N22         2.3270   -0.6150   -0.6090 n4        1 NN7     -0.699900
     22 S23         2.2950    0.3870   -2.2270 sy        1 NN7      1.483200
     23 O24         1.3310   -0.3030   -2.9410 o         1 NN7     -0.585300
     24 O25         1.9920    1.6650   -1.7920 o         1 NN7     -0.585300
     25 C26         3.8240    0.1200   -2.6400 ca        1 NN7     -0.557500
     26 C27         4.8700    0.9800   -2.1920 ca        1 NN7      0.083200
     27 C28         4.6060    2.0870   -1.2370 c3        1 NN7     -0.107300
     28 C29         6.1740    0.8160   -2.6450 ca        1 NN7     -0.173000
     29 C30         6.5050   -0.2060   -3.5450 ca        1 NN7      0.076700
     30 C31         7.8880   -0.3500   -4.0440 c3        1 NN7     -0.092800
     31 C32         5.4980   -1.0840   -3.9640 ca        1 NN7     -0.173000
     32 C33         4.1870   -0.9390   -3.5220 ca        1 NN7      0.083200
     33 C34         3.1840   -1.9200   -4.0090 c3        1 NN7     -0.107300
     34 H11C       -0.3860   -0.9300   -0.8750 hc        1 NN7      0.076700
     35 H12C        0.1240   -2.0780    0.4410 hc        1 NN7      0.076700
     36 H13C       -0.8000   -0.5730    0.8520 hc        1 NN7      0.076700
     37 H2          1.0650    0.8890    0.1760 hx        1 NN7      0.115700
     38 H41C        1.9020   -1.4680    2.0480 h1        1 NN7      0.074700
     39 H42C        0.8890   -0.0190    2.4910 h1        1 NN7      0.074700
     40 H22         3.2430   -0.5120   -0.1650 hn        1 NN7      0.451300
     41 H5          2.8170    1.3480    2.1200 hn        1 NN7      0.406800
     42 H7          2.5850   -1.6160    4.0060 ha        1 NN7      0.134000
     43 H8          4.2550   -2.3670    5.6160 ha        1 NN7      0.148000
     44 H9          6.5110   -1.3070    5.7790 ha        1 NN7      0.159000
     45 H13         5.3990    2.2010    1.6410 h4        1 NN7      0.045800
     46 H16         9.7580    1.1800    3.1210 ha        1 NN7      0.154500
     47 H21         7.2690    0.6520    6.6640 ha        1 NN7      0.154500
     48 H17        11.7860    1.1330    4.5550 ha        1 NN7      0.162000
     49 H20         9.3120    0.5870    8.0750 ha        1 NN7      0.162000
     50 H281        5.5630    2.5350   -0.8670 hc        1 NN7      0.078367
     51 H282        4.0300    1.7320   -0.3450 hc        1 NN7      0.078367
     52 H283        4.0150    2.9010   -1.7350 hc        1 NN7      0.078367
     53 H29         6.9650    1.5010   -2.2930 ha        1 NN7      0.168500
     54 H311        8.0180    0.2760   -4.9660 hc        1 NN7      0.077700
     55 H312        8.6320   -0.0050   -3.2830 hc        1 NN7      0.077700
     56 H313        8.1150   -1.4130   -4.3100 hc        1 NN7      0.077700
     57 H32         5.7520   -1.9030   -4.6580 ha        1 NN7      0.168500
     58 H341        3.6760   -2.7590   -4.5630 hc        1 NN7      0.078367
     59 H342        2.6030   -2.3630   -3.1610 hc        1 NN7      0.078367
     60 H343        2.4560   -1.4270   -4.7080 hc        1 NN7      0.078367
     61 H222        2.2080   -1.6040   -0.8180 hn        1 NN7      0.451300
@<TRIPOS>BOND
     1    1    2 1   
     2    1   34 1   
     3    1   35 1   
     4    1   36 1   
     5    2    3 1   
     6    2   21 1   
     7    2   37 1   
     8    3    4 1   
     9    3   38 1   
    10    3   39 1   
    11    4    5 1   
    12    4   41 1   
    13    5    6 ar  
    14    5   13 ar  
    15    6    7 ar  
    16    6   42 1   
    17    7    8 ar  
    18    7   43 1   
    19    8    9 ar  
    20    8   44 1   
    21    9   10 1   
    22    9   13 ar  
    23   10   11 1   
    24   10   14 1   
    25   11   12 2   
    26   12   13 1   
    27   12   45 1   
    28   14   15 ar  
    29   14   20 ar  
    30   15   16 ar  
    31   15   46 1   
    32   16   17 ar  
    33   16   48 1   
    34   17   18 1   
    35   17   19 ar  
    36   19   20 ar  
    37   19   49 1   
    38   20   47 1   
    39   21   22 1   
    40   21   40 1   
    41   21   61 1   
    42   22   23 2   
    43   22   24 2   
    44   22   25 1   
    45   25   26 ar  
    46   25   32 ar  
    47   26   27 1   
    48   26   28 ar  
    49   27   50 1   
    50   27   51 1   
    51   27   52 1   
    52   28   29 ar  
    53   28   53 1   
    54   29   30 1   
    55   29   31 ar  
    56   30   54 1   
    57   30   55 1   
    58   30   56 1   
    59   31   32 ar  
    60   31   57 1   
    61   32   33 1   
    62   33   58 1   
    63   33   59 1   
    64   33   60 1   
@<TRIPOS>SUBSTRUCTURE
     1 NN7         1 TEMP              0 ****  ****    0 ROOT
