@<TRIPOS>MOLECULE
NN7
   61    64     1     0     0
SMALL
bcc


@<TRIPOS>ATOM
      1 C1          0.0070   -1.0790    0.1610 c3        1 NN7     -0.131100
      2 C2          1.2820   -0.2700    0.3550 c3        1 NN7      0.116500
      3 C4          1.7470   -0.4160    1.8320 c3        1 NN7      0.160800
      4 N5          2.9580    0.3300    2.0650 nu        1 NN7     -0.761600
      5 C6          3.8320   -0.0940    3.0950 ca        1 NN7      0.157600
      6 C7          3.5640   -1.1240    4.0040 ca        1 NN7     -0.200000
      7 C8          4.5220   -1.5310    4.9510 ca        1 NN7     -0.076000
      8 C9          5.7640   -0.9320    5.0610 ca        1 NN7     -0.138000
      9 C10         6.0480    0.1230    4.1790 ca        1 NN7     -0.015200
     10 N11         7.1850    0.9380    3.9870 na        1 NN7      0.166800
     11 N12         6.9900    1.8150    2.9780 nc        1 NN7     -0.480100
     12 C13         5.7610    1.6120    2.4690 cd        1 NN7      0.332800
     13 C14         5.0890    0.5410    3.1860 ca        1 NN7     -0.240900
     14 C15         8.3470    0.9450    4.8130 ca        1 NN7     -0.004200
     15 C16         9.6230    1.1030    4.2350 ca        1 NN7     -0.102500
     16 C17        10.7560    1.1000    5.0380 ca        1 NN7     -0.153500
     17 C18        10.6310    0.9370    6.4300 ca        1 NN7      0.139900
     18 F19        11.7350    0.9260    7.2110 f         1 NN7     -0.124900
     19 C20         9.3580    0.7880    7.0120 ca        1 NN7     -0.153500
     20 C21         8.2240    0.8010    6.2100 ca        1 NN7     -0.102500
     21 N22         2.3500   -0.6650   -0.6140 ny        1 NN7     -0.699900
     22 S23         2.3130    0.3260   -2.2380 sy        1 NN7      1.483200
     23 O24         1.3630   -0.3810   -2.9540 o         1 NN7     -0.585300
     24 O25         1.9910    1.6030   -1.8120 o         1 NN7     -0.585300
     25 C26         3.8490    0.0780   -2.6410 ca        1 NN7     -0.557500
     26 C27         4.8800    0.9550   -2.1920 ca        1 NN7      0.083200
     27 C28         4.5950    2.0630   -1.2450 c3        1 NN7     -0.107300
     28 C29         6.1890    0.8060   -2.6370 ca        1 NN7     -0.173000
     29 C30         6.5390   -0.2160   -3.5290 ca        1 NN7      0.076700
     30 C31         7.9270   -0.3440   -4.0190 c3        1 NN7     -0.092800
     31 C32         5.5460   -1.1100   -3.9480 ca        1 NN7     -0.173000
     32 C33         4.2310   -0.9810   -3.5140 ca        1 NN7      0.083200
     33 C34         3.2440   -1.9780   -4.0020 c3        1 NN7     -0.107300
     34 H11C       -0.7870   -0.6570    0.8270 hc        1 NN7      0.076700
     35 H12C       -0.3560   -1.0180   -0.8960 hc        1 NN7      0.076700
     36 H13C        0.1600   -2.1520    0.4300 hc        1 NN7      0.076700
     37 H2          1.0630    0.8260    0.1550 hx        1 NN7      0.115700
     38 H41C        0.8840   -0.0710    2.4730 h1        1 NN7      0.074700
     39 H42C        1.9200   -1.5090    2.0450 h1        1 NN7      0.074700
     40 H22         2.2460   -1.6570   -0.8170 hn        1 NN7      0.451300
     41 H5          2.7970    1.3190    2.1070 hn        1 NN7      0.406800
     42 H7          2.5900   -1.6350    4.0100 ha        1 NN7      0.134000
     43 H8          4.2600   -2.3560    5.6350 ha        1 NN7      0.148000
     44 H9          6.5020   -1.2680    5.8040 ha        1 NN7      0.159000
     45 H13         5.3730    2.2000    1.6370 h4        1 NN7      0.045800
     46 H16         9.7350    1.2390    3.1470 ha        1 NN7      0.154500
     47 H21         7.2320    0.7050    6.6800 ha        1 NN7      0.154500
     48 H17        11.7550    1.2250    4.5930 ha        1 NN7      0.162000
     49 H20         9.2680    0.6730    8.1030 ha        1 NN7      0.162000
     50 H281        3.9960    2.8670   -1.7510 hc        1 NN7      0.078367
     51 H282        4.0190    1.7060   -0.3550 hc        1 NN7      0.078367
     52 H283        5.5440    2.5260   -0.8720 hc        1 NN7      0.078367
     53 H29         6.9680    1.5040   -2.2850 ha        1 NN7      0.168500
     54 H311        8.6610    0.0160   -3.2550 hc        1 NN7      0.077700
     55 H312        8.0530    0.2790   -4.9440 hc        1 NN7      0.077700
     56 H313        8.1700   -1.4050   -4.2790 hc        1 NN7      0.077700
     57 H32         5.8160   -1.9300   -4.6370 ha        1 NN7      0.168500
     58 H341        2.5140   -1.5000   -4.7080 hc        1 NN7      0.078367
     59 H342        2.6650   -2.4240   -3.1550 hc        1 NN7      0.078367
     60 H343        3.7510   -2.8140   -4.5480 hc        1 NN7      0.078367
     61 H222        3.2610   -0.5460   -0.1650 hn        1 NN7      0.451300
@<TRIPOS>BOND
     1    1    2 1   
     2    1   34 1   
     3    1   35 1   
     4    1   36 1   
     5    2    3 1   
     6    2   21 1   
     7    2   37 1   
     8    3    4 1   
     9    3   38 1   
    10    3   39 1   
    11    4    5 1   
    12    4   41 1   
    13    5    6 ar  
    14    5   13 ar  
    15    6    7 ar  
    16    6   42 1   
    17    7    8 ar  
    18    7   43 1   
    19    8    9 ar  
    20    8   44 1   
    21    9   10 1   
    22    9   13 ar  
    23   10   11 1   
    24   10   14 1   
    25   11   12 2   
    26   12   13 1   
    27   12   45 1   
    28   14   15 ar  
    29   14   20 ar  
    30   15   16 ar  
    31   15   46 1   
    32   16   17 ar  
    33   16   48 1   
    34   17   18 1   
    35   17   19 ar  
    36   19   20 ar  
    37   19   49 1   
    38   20   47 1   
    39   21   22 1   
    40   21   40 1   
    41   21   61 1   
    42   22   23 2   
    43   22   24 2   
    44   22   25 1   
    45   25   26 ar  
    46   25   32 ar  
    47   26   27 1   
    48   26   28 ar  
    49   27   50 1   
    50   27   51 1   
    51   27   52 1   
    52   28   29 ar  
    53   28   53 1   
    54   29   30 1   
    55   29   31 ar  
    56   30   54 1   
    57   30   55 1   
    58   30   56 1   
    59   31   32 ar  
    60   31   57 1   
    61   32   33 1   
    62   33   58 1   
    63   33   59 1   
    64   33   60 1   
@<TRIPOS>SUBSTRUCTURE
     1 NN7         1 TEMP              0 ****  ****    0 ROOT
