@<TRIPOS>MOLECULE
NN7
   62    64     1     0     0
SMALL
bcc


@<TRIPOS>ATOM
      1 C1          3.7860   -3.8050   -0.6660 c3        1 NN7     -0.134100
      2 C2          3.8150   -2.3080   -0.3510 c3        1 NN7      0.126500
      3 C4          4.3110   -2.1720    1.1070 c3        1 NN7      0.089800
      4 N5          4.1240   -0.8110    1.6920 n4        1 NN7     -0.629400
      5 C6          4.3450   -0.8100    3.1420 ca        1 NN7     -0.028400
      6 C7          3.3960   -1.3380    4.0180 ca        1 NN7     -0.099000
      7 C8          3.6270   -1.3180    5.4060 ca        1 NN7     -0.107000
      8 C9          4.7800   -0.7810    5.9570 ca        1 NN7     -0.045000
      9 C10         5.7350   -0.2380    5.0820 ca        1 NN7     -0.038200
     10 N11         6.9870    0.3760    5.2830 na        1 NN7      0.211800
     11 N12         7.5480    0.7270    4.1180 nc        1 NN7     -0.419100
     12 C13         6.7180    0.3740    3.1090 cd        1 NN7      0.290800
     13 C14         5.5300   -0.2530    3.6470 ca        1 NN7     -0.213900
     14 C15         7.5930    0.6100    6.5600 ca        1 NN7     -0.049200
     15 C16         8.9530    0.3050    6.7600 ca        1 NN7     -0.087500
     16 C17         9.5360    0.5330    8.0010 ca        1 NN7     -0.154000
     17 C18         8.7690    1.0690    9.0530 ca        1 NN7      0.169900
     18 F19         9.3340    1.2860   10.2580 f         1 NN7     -0.106900
     19 C20         7.4100    1.3830    8.8470 ca        1 NN7     -0.154000
     20 C21         6.8270    1.1610    7.6070 ca        1 NN7     -0.087500
     21 N22         4.6000   -1.5180   -1.3080 n3        1 NN7     -1.013800
     22 S23         4.0670    0.8610   -1.3480 s4        1 NN7      1.686300
     23 O24         2.9540    0.5960   -0.5940 o         1 NN7     -0.481900
     24 O25         5.1970    1.0600   -0.6030 o         1 NN7     -0.481900
     25 C26         4.0050    1.1290   -2.8470 ca        1 NN7     -0.662500
     26 C27         5.1680    1.5370   -3.5970 ca        1 NN7      0.107700
     27 C28         6.4930    1.6280   -2.9340 c3        1 NN7     -0.121800
     28 C29         5.0800    1.8620   -4.9370 ca        1 NN7     -0.177000
     29 C30         3.8570    1.7990   -5.6300 ca        1 NN7      0.146700
     30 C31         3.7740    2.1760   -7.0510 c3        1 NN7     -0.114800
     31 C32         2.7130    1.3710   -4.9290 ca        1 NN7     -0.177000
     32 C33         2.7700    1.0400   -3.5890 ca        1 NN7      0.107700
     33 C34         1.5220    0.5980   -2.9170 c3        1 NN7     -0.121800
     34 H11C        3.0870   -4.3260    0.0340 hc        1 NN7      0.079367
     35 H12C        3.4210   -3.9810   -1.7080 hc        1 NN7      0.079367
     36 H13C        4.8010   -4.2610   -0.5600 hc        1 NN7      0.079367
     37 H2          2.7530   -1.9130   -0.4190 h1        1 NN7      0.097700
     38 H41C        5.4030   -2.4440    1.1930 hx        1 NN7      0.128200
     39 H42C        3.7230   -2.8990    1.7440 hx        1 NN7      0.128200
     40 H22         5.5850   -1.6040   -1.1100 hn        1 NN7      0.403800
     41 H5          3.1670   -0.4790    1.4960 hn        1 NN7      0.461300
     42 H7          2.4530   -1.7730    3.6490 ha        1 NN7      0.153000
     43 H8          2.8570   -1.7480    6.0710 ha        1 NN7      0.178000
     44 H9          4.9470   -0.7800    7.0480 ha        1 NN7      0.185000
     45 H13         6.9760    0.5780    2.0700 h4        1 NN7      0.057800
     46 H16         9.5690   -0.1070    5.9440 ha        1 NN7      0.155000
     47 H21         5.7700    1.4310    7.4550 ha        1 NN7      0.155000
     48 H17        10.6000    0.2990    8.1680 ha        1 NN7      0.175000
     49 H20         6.8200    1.8120    9.6730 ha        1 NN7      0.175000
     50 H281        6.5030    2.4460   -2.1660 hc        1 NN7      0.089033
     51 H282        7.3010    1.8590   -3.6770 hc        1 NN7      0.089033
     52 H283        6.7630    0.6650   -2.4300 hc        1 NN7      0.089033
     53 H29         5.9870    2.1830   -5.4850 ha        1 NN7      0.189000
     54 H311        2.9530    1.6250   -7.5760 hc        1 NN7      0.100033
     55 H312        3.5540    3.2770   -7.1280 hc        1 NN7      0.100033
     56 H313        4.7390    1.9830   -7.5850 hc        1 NN7      0.100033
     57 H32         1.7500    1.3050   -5.4710 ha        1 NN7      0.189000
     58 H341        0.6860    0.4800   -3.6560 hc        1 NN7      0.089033
     59 H342        1.6630   -0.3880   -2.4050 hc        1 NN7      0.089033
     60 H343        1.1900    1.3510   -2.1540 hc        1 NN7      0.089033
     61 H52         4.7910   -0.1500    1.2670 hn        1 NN7      0.461300
     62 H222        4.4390   -1.8820   -2.2350 hn        1 NN7      0.403800
@<TRIPOS>BOND
     1    1    2 1   
     2    1   34 1   
     3    1   35 1   
     4    1   36 1   
     5    2    3 1   
     6    2   21 1   
     7    2   37 1   
     8    3    4 1   
     9    3   38 1   
    10    3   39 1   
    11    4    5 1   
    12    4   41 1   
    13    4   61 1   
    14    5    6 ar  
    15    5   13 ar  
    16    6    7 ar  
    17    6   42 1   
    18    7    8 ar  
    19    7   43 1   
    20    8    9 ar  
    21    8   44 1   
    22    9   10 1   
    23    9   13 ar  
    24   10   11 1   
    25   10   14 1   
    26   11   12 2   
    27   12   13 1   
    28   12   45 1   
    29   14   15 ar  
    30   14   20 ar  
    31   15   16 ar  
    32   15   46 1   
    33   16   17 ar  
    34   16   48 1   
    35   17   18 1   
    36   17   19 ar  
    37   19   20 ar  
    38   19   49 1   
    39   20   47 1   
    40   21   40 1   
    41   21   62 1   
    42   22   23 1   
    43   22   24 1   
    44   22   25 1   
    45   25   26 ar  
    46   25   32 ar  
    47   26   27 1   
    48   26   28 ar  
    49   27   50 1   
    50   27   51 1   
    51   27   52 1   
    52   28   29 ar  
    53   28   53 1   
    54   29   30 1   
    55   29   31 ar  
    56   30   54 1   
    57   30   55 1   
    58   30   56 1   
    59   31   32 ar  
    60   31   57 1   
    61   32   33 1   
    62   33   58 1   
    63   33   59 1   
    64   33   60 1   
@<TRIPOS>SUBSTRUCTURE
     1 NN7         1 TEMP              0 ****  ****    0 ROOT
