@<TRIPOS>MOLECULE
NNB
   37    32     1     0     0
SMALL
bcc


@<TRIPOS>ATOM
      1 C13         1.8350    0.6910    4.8300 c1        1 NNB     -0.155000
      2 C14         1.4320    0.1360    6.0340 c1        1 NNB     -0.076000
      3 C15         0.0970   -0.2610    6.2110 c1        1 NNB     -0.188000
      4 BR2        -0.4230   -1.1320    7.8010 br        1 NNB      0.059000
      5 C16        -0.8130   -0.0980    5.1860 c2        1 NNB     -0.080000
      6 C17        -0.4060    0.4620    3.9750 c1        1 NNB     -0.175000
      7 C12         0.9180    0.8550    3.8000 c1        1 NNB      0.077000
      8 N2          1.2970    1.5220    2.6290 n         1 NNB     -0.285000
      9 C11         2.3680    0.9950    1.8090 c2        1 NNB      0.140000
     10 S1          3.6540    0.1890    2.5250 s         1 NNB     -0.128000
     11 O3          2.3660    1.2230    0.4000 os        1 NNB     -0.214000
     12 C10         1.4680    0.3650   -0.3280 c3        1 NNB     -0.071000
     13 C9          1.7340    0.5190   -1.8780 c3        1 NNB     -0.011000
     14 N1          0.5750    0.1020   -2.6060 n         1 NNB     -0.360000
     15 C8          0.3320   -1.2270   -3.1360 c2        1 NNB      0.362000
     16 O2          1.0250   -2.1850   -2.9720 o         1 NNB     -0.285000
     17 C2         -1.0240   -1.2060   -3.8620 c1        1 NNB     -0.119000
     18 C3         -1.7290   -2.1910   -4.5570 c1        1 NNB     -0.088000
     19 C4         -2.9530   -1.8850   -5.1450 c1        1 NNB     -0.088000
     20 C5         -3.4770   -0.5910   -5.0390 c1        1 NNB     -0.088000
     21 C6         -2.7720    0.3890   -4.3450 c1        1 NNB     -0.088000
     22 C1         -1.5480    0.0830   -3.7580 c1        1 NNB     -0.120000
     23 C7         -0.5470    0.9400   -2.9650 c1        1 NNB      0.359000
     24 O1         -0.6770    2.1260   -2.6840 o         1 NNB     -0.295000
     25 H13         2.7660    0.9680    4.7060 ha        1 NNB      0.193000
     26 H14         2.0700    0.0210    6.7500 ha        1 NNB      0.154000
     27 H16        -1.7490   -0.3760    5.3090 ha        1 NNB      0.149000
     28 H17        -1.0240    0.5730    3.2790 ha        1 NNB      0.136000
     29 H2          0.8990    2.3140    2.4070 hn        1 NNB      0.235000
     30 H101        0.5340    0.6180   -0.1260 h1        1 NNB      0.091500
     31 H102        1.6250   -0.5990   -0.0530 h1        1 NNB      0.091500
     32 H9C1        1.9290    1.4590   -2.0830 h1        1 NNB      0.126500
     33 H9C2        2.4900   -0.0300   -2.1320 h1        1 NNB      0.126500
     34 H6         -3.1360    1.2900   -4.2710 ha        1 NNB      0.153250
     35 H5         -4.3430   -0.3730   -5.4550 ha        1 NNB      0.153250
     36 H4         -3.4400   -2.5630   -5.6230 ha        1 NNB      0.153250
     37 H3         -1.3530   -3.1210   -4.6330 ha        1 NNB      0.153250
@<TRIPOS>BOND
     1    1    7 1   
     2    1   25 1   
     3    2    3 1   
     4    2   26 1   
     5    3    5 1   
     6    5    6 1   
     7    5   27 1   
     8    6   28 1   
     9    7    8 1   
    10    8    9 1   
    11    8   29 1   
    12    9   10 1   
    13    9   11 1   
    14   11   12 1   
    15   12   13 1   
    16   12   30 1   
    17   12   31 1   
    18   13   14 1   
    19   13   32 1   
    20   13   33 1   
    21   14   15 1   
    22   14   23 1   
    23   15   16 1   
    24   15   17 1   
    25   17   22 1   
    26   18   19 1   
    27   18   37 1   
    28   19   36 1   
    29   20   21 1   
    30   20   35 1   
    31   21   34 1   
    32   23   24 1   
@<TRIPOS>SUBSTRUCTURE
     1 NNB         1 TEMP              0 ****  ****    0 ROOT
