@<TRIPOS>MOLECULE
NNB
   37    39     1     0     0
SMALL
bcc


@<TRIPOS>ATOM
      1 C13         0.0950   -0.2740    0.1440 ca        1 NNB     -0.152000
      2 C14         1.4790   -0.2970    0.2940 ca        1 NNB     -0.081000
      3 C15         2.0570   -0.4640    1.5530 ca        1 NNB     -0.046900
      4 Br2         3.9170   -0.4940    1.7450 br        1 NNB     -0.086100
      5 C16         1.2330   -0.6110    2.6740 ca        1 NNB     -0.081000
      6 C17        -0.1490   -0.5840    2.5400 ca        1 NNB     -0.152000
      7 C12        -0.7440   -0.4100    1.2670 ca        1 NNB      0.056600
      8 N2         -2.1490   -0.4240    1.1820 ns        1 NNB     -0.404100
      9 C11        -2.9700    0.1500    0.2450 c         1 NNB      0.591500
     10 S1         -4.5700    0.0230    0.3150 s         1 NNB     -0.541400
     11 O3         -2.2640    0.8260   -0.7280 os        1 NNB     -0.387900
     12 C10        -3.0590    1.4790   -1.7340 c3        1 NNB      0.095400
     13 C9         -2.2140    1.4940   -3.0140 c3        1 NNB      0.099000
     14 N1         -1.1490    2.4500   -3.0390 n         1 NNB     -0.526400
     15 C8          0.2300    2.1310   -2.8820 c         1 NNB      0.727600
     16 O2          0.6780    0.9890   -2.7600 o         1 NNB     -0.572500
     17 C2          0.9770    3.4290   -2.9160 ca        1 NNB     -0.139100
     18 C3          2.3240    3.6990   -2.8220 ca        1 NNB     -0.060500
     19 C4          2.7290    5.0470   -2.8860 ca        1 NNB     -0.116000
     20 C5          1.8020    6.0700   -3.0400 ca        1 NNB     -0.116000
     21 C6          0.4230    5.7960   -3.1370 ca        1 NNB     -0.060500
     22 C1          0.0260    4.4790   -3.0730 ca        1 NNB     -0.139100
     23 C7         -1.3360    3.8590   -3.1400 c         1 NNB      0.727600
     24 O1         -2.4300    4.4130   -3.2660 o         1 NNB     -0.572500
     25 H13        -0.3190   -0.1410   -0.8720 ha        1 NNB      0.156500
     26 H14         2.1050   -0.1820   -0.6070 ha        1 NNB      0.154500
     27 H16         1.6720   -0.7470    3.6750 ha        1 NNB      0.154500
     28 H17        -0.7740   -0.7000    3.4400 ha        1 NNB      0.156500
     29 H2         -2.6330   -0.8600    1.9450 hn        1 NNB      0.352500
     30 H101       -4.0140    0.9090   -1.9120 h1        1 NNB      0.091700
     31 H102       -3.2960    2.5100   -1.3620 h1        1 NNB      0.091700
     32 H9C1       -1.7660    0.4710   -3.1700 h1        1 NNB      0.083200
     33 H9C2       -2.9210    1.7330   -3.8620 h1        1 NNB      0.083200
     34 H6         -0.3080    6.6090   -3.2580 ha        1 NNB      0.160500
     35 H5          2.1420    7.1160   -3.0870 ha        1 NNB      0.146000
     36 H4          3.8020    5.2850   -2.8120 ha        1 NNB      0.146000
     37 H3          3.0630    2.8930   -2.7000 ha        1 NNB      0.160500
@<TRIPOS>BOND
     1    1    2 ar  
     2    1    7 ar  
     3    1   25 1   
     4    2    3 ar  
     5    2   26 1   
     6    3    4 1   
     7    3    5 ar  
     8    5    6 ar  
     9    5   27 1   
    10    6    7 ar  
    11    6   28 1   
    12    7    8 1   
    13    8    9 1   
    14    8   29 1   
    15    9   10 2   
    16    9   11 1   
    17   11   12 1   
    18   12   13 1   
    19   12   30 1   
    20   12   31 1   
    21   13   14 1   
    22   13   32 1   
    23   13   33 1   
    24   14   15 1   
    25   14   23 1   
    26   15   16 2   
    27   15   17 1   
    28   17   18 ar  
    29   17   22 ar  
    30   18   19 ar  
    31   18   37 1   
    32   19   20 ar  
    33   19   36 1   
    34   20   21 ar  
    35   20   35 1   
    36   21   22 ar  
    37   21   34 1   
    38   22   23 1   
    39   23   24 2   
@<TRIPOS>SUBSTRUCTURE
     1 NNB         1 TEMP              0 ****  ****    0 ROOT
