@<TRIPOS>MOLECULE
NNB
   37    39     1     0     0
SMALL
bcc


@<TRIPOS>ATOM
      1 C13         0.1000   -0.2710    0.1460 ca        1 NNB     -0.152000
      2 C14         1.4840   -0.2920    0.2930 ca        1 NNB     -0.081000
      3 C15         2.0640   -0.4550    1.5520 ca        1 NNB     -0.046900
      4 BR2         3.9260   -0.4810    1.7400 br        1 NNB     -0.086100
      5 C16         1.2430   -0.5990    2.6750 ca        1 NNB     -0.081000
      6 C17        -0.1400   -0.5750    2.5440 ca        1 NNB     -0.152000
      7 C12        -0.7370   -0.4050    1.2710 ca        1 NNB      0.056600
      8 N2         -2.1420   -0.4220    1.1900 n         1 NNB     -0.404100
      9 C11        -2.9660    0.1490    0.2530 c         1 NNB      0.591500
     10 S1         -4.5650    0.0200    0.3260 s         1 NNB     -0.541400
     11 O3         -2.2620    0.8240   -0.7220 os        1 NNB     -0.387900
     12 C10        -3.0600    1.4740   -1.7290 c3        1 NNB      0.095400
     13 C9         -2.2180    1.4880   -3.0100 c3        1 NNB      0.099000
     14 N1         -1.1530    2.4450   -3.0380 n         1 NNB     -0.526400
     15 C8          0.2260    2.1280   -2.8840 c         1 NNB      0.727600
     16 O2          0.6750    0.9860   -2.7610 o         1 NNB     -0.572500
     17 C2          0.9720    3.4260   -2.9200 ca        1 NNB     -0.139100
     18 C3          2.3190    3.6970   -2.8300 ca        1 NNB     -0.060500
     19 C4          2.7230    5.0450   -2.8970 ca        1 NNB     -0.116000
     20 C5          1.7940    6.0670   -3.0500 ca        1 NNB     -0.116000
     21 C6          0.4150    5.7920   -3.1430 ca        1 NNB     -0.060500
     22 C1          0.0190    4.4740   -3.0770 ca        1 NNB     -0.139100
     23 C7         -1.3420    3.8540   -3.1410 c         1 NNB      0.727600
     24 O1         -2.4370    4.4060   -3.2660 o         1 NNB     -0.572500
     25 H13        -0.3170   -0.1420   -0.8690 ha        1 NNB      0.156500
     26 H14         2.1080   -0.1780   -0.6090 ha        1 NNB      0.154500
     27 H16         1.6850   -0.7320    3.6750 ha        1 NNB      0.154500
     28 H17        -0.7620   -0.6890    3.4450 ha        1 NNB      0.156500
     29 H2         -2.6240   -0.8570    1.9550 hn        1 NNB      0.352500
     30 H101       -3.2980    2.5060   -1.3580 h1        1 NNB      0.091700
     31 H102       -4.0140    0.9020   -1.9040 h1        1 NNB      0.091700
     32 H9C1       -1.7690    0.4650   -3.1660 h1        1 NNB      0.083200
     33 H9C2       -2.9260    1.7260   -3.8570 h1        1 NNB      0.083200
     34 H6         -0.3160    6.6050   -3.2650 ha        1 NNB      0.160500
     35 H5          2.1330    7.1140   -3.0990 ha        1 NNB      0.146000
     36 H4          3.7950    5.2850   -2.8250 ha        1 NNB      0.146000
     37 H3          3.0590    2.8920   -2.7080 ha        1 NNB      0.160500
@<TRIPOS>BOND
     1    1    2 ar  
     2    1    7 ar  
     3    1   25 1   
     4    2    3 ar  
     5    2   26 1   
     6    3    4 1   
     7    3    5 ar  
     8    5    6 ar  
     9    5   27 1   
    10    6    7 ar  
    11    6   28 1   
    12    7    8 1   
    13    8    9 1   
    14    8   29 1   
    15    9   10 2   
    16    9   11 1   
    17   11   12 1   
    18   12   13 1   
    19   12   30 1   
    20   12   31 1   
    21   13   14 1   
    22   13   32 1   
    23   13   33 1   
    24   14   15 1   
    25   14   23 1   
    26   15   16 2   
    27   15   17 1   
    28   17   18 ar  
    29   17   22 ar  
    30   18   19 ar  
    31   18   37 1   
    32   19   20 ar  
    33   19   36 1   
    34   20   21 ar  
    35   20   35 1   
    36   21   22 ar  
    37   21   34 1   
    38   22   23 1   
    39   23   24 2   
@<TRIPOS>SUBSTRUCTURE
     1 NNB         1 TEMP              0 ****  ****    0 ROOT
