@<TRIPOS>MOLECULE
NNB
   37    39     1     0     0
SMALL
bcc


@<TRIPOS>ATOM
      1 C13        10.3860   65.3080   62.0910 ca        1 NNB     -0.152000
      2 C14         9.7620   66.1410   61.1650 ca        1 NNB     -0.081000
      3 C15         8.4110   66.4660   61.2960 ca        1 NNB     -0.046900
      4 BR2         7.5830   67.5850   60.0460 br        1 NNB     -0.086100
      5 C16         7.6800   65.9490   62.3700 ca        1 NNB     -0.081000
      6 C17         8.2870   65.1130   63.2980 ca        1 NNB     -0.152000
      7 C12         9.6560   64.7740   63.1710 ca        1 NNB      0.056600
      8 N2         10.2310   63.9510   64.1580 n         1 NNB     -0.404100
      9 C11        11.3170   63.1180   64.0710 c         1 NNB      0.591500
     10 S1         11.8310   62.2480   65.3200 s         1 NNB     -0.541400
     11 O3         11.8870   63.1280   62.8160 os        1 NNB     -0.387900
     12 C10        13.0190   62.2570   62.6380 c3        1 NNB      0.095400
     13 C9         13.9070   62.9080   61.5710 c3        1 NNB      0.099000
     14 N1         13.4360   62.7970   60.2240 n         1 NNB     -0.526400
     15 C8         12.8450   63.8590   59.4820 c         1 NNB      0.727600
     16 O2         12.7170   65.0160   59.8890 o         1 NNB     -0.572500
     17 C2         12.4510   63.2870   58.1550 ca        1 NNB     -0.139100
     18 C3         11.8560   63.8730   57.0590 ca        1 NNB     -0.060500
     19 C4         11.6040   63.0590   55.9370 ca        1 NNB     -0.116000
     20 C5         11.9450   61.7120   55.9340 ca        1 NNB     -0.116000
     21 C6         12.5550   61.1120   57.0530 ca        1 NNB     -0.060500
     22 C1         12.8000   61.9050   58.1510 ca        1 NNB     -0.139100
     23 C7         13.4190   61.5840   59.4770 c         1 NNB      0.727600
     24 O1         13.8520   60.5040   59.8840 o         1 NNB     -0.572500
     25 H13        11.4570   65.0790   61.9500 ha        1 NNB      0.156500
     26 H14        10.3640   66.5360   60.3290 ha        1 NNB      0.154500
     27 H16         6.6140   66.1980   62.4890 ha        1 NNB      0.154500
     28 H17         7.6870   64.7190   64.1330 ha        1 NNB      0.156500
     29 H2          9.7480   63.9110   65.0360 hn        1 NNB      0.352500
     30 H101       13.5920   62.1550   63.6030 h1        1 NNB      0.091700
     31 H102       12.6290   61.2550   62.3200 h1        1 NNB      0.091700
     32 H9C1       14.0220   64.0060   61.8090 h1        1 NNB      0.083200
     33 H9C2       14.9130   62.3980   61.6350 h1        1 NNB      0.083200
     34 H6         12.8230   60.0440   57.0460 ha        1 NNB      0.160500
     35 H5         11.7380   61.0960   55.0450 ha        1 NNB      0.146000
     36 H4         11.1280   63.5070   55.0500 ha        1 NNB      0.146000
     37 H3         11.5830   64.9390   57.0560 ha        1 NNB      0.160500
@<TRIPOS>BOND
     1    1    2 ar  
     2    1    7 ar  
     3    1   25 1   
     4    2    3 ar  
     5    2   26 1   
     6    3    4 1   
     7    3    5 ar  
     8    5    6 ar  
     9    5   27 1   
    10    6    7 ar  
    11    6   28 1   
    12    7    8 1   
    13    8    9 1   
    14    8   29 1   
    15    9   10 2   
    16    9   11 1   
    17   11   12 1   
    18   12   13 1   
    19   12   30 1   
    20   12   31 1   
    21   13   14 1   
    22   13   32 1   
    23   13   33 1   
    24   14   15 1   
    25   14   23 1   
    26   15   16 2   
    27   15   17 1   
    28   17   18 ar  
    29   17   22 ar  
    30   18   19 ar  
    31   18   37 1   
    32   19   20 ar  
    33   19   36 1   
    34   20   21 ar  
    35   20   35 1   
    36   21   22 ar  
    37   21   34 1   
    38   22   23 1   
    39   23   24 2   
@<TRIPOS>SUBSTRUCTURE
     1 NNB         1 TEMP              0 ****  ****    0 ROOT
