@<TRIPOS>MOLECULE
NNB
   38    40     1     0     0
SMALL
bcc


@<TRIPOS>ATOM
      1 C13         0.4340   -0.7420   -0.0000 ca        1 NNB     -0.086000
      2 C14         1.7400   -0.3450    0.2790 ca        1 NNB     -0.087500
      3 C15         2.0370    0.3590    1.4510 ca        1 NNB      0.010100
      4 BR2         3.7910    0.8820    1.8130 br        1 NNB     -0.008100
      5 C16         1.0100    0.6730    2.3500 ca        1 NNB     -0.087500
      6 C17        -0.2990    0.2810    2.0920 ca        1 NNB     -0.086000
      7 C12        -0.5850   -0.4430    0.9190 ca        1 NNB     -0.049400
      8 N2         -1.9530   -0.9130    0.6810 n4        1 NNB     -0.488200
      9 C11        -2.6410   -0.3260   -0.5300 c         1 NNB      0.322500
     10 S1         -3.0940   -1.2490   -1.6710 s         1 NNB     -0.105400
     11 O3         -2.7400    1.0050   -0.2740 os        1 NNB     -0.351900
     12 C10        -3.4520    1.8180   -1.2360 c3        1 NNB      0.113400
     13 C9         -2.7130    1.9890   -2.5650 c3        1 NNB      0.070000
     14 N1         -1.4630    2.6730   -2.4910 n         1 NNB     -0.541400
     15 C8         -0.1900    2.0410   -2.5700 c         1 NNB      0.733600
     16 O2         -0.0280    0.8170   -2.5040 o         1 NNB     -0.583000
     17 C2          0.8230    3.1290   -2.7090 ca        1 NNB     -0.144600
     18 C3          2.1930    3.0760   -2.8400 ca        1 NNB     -0.051500
     19 C4          2.8880    4.2970   -2.9640 ca        1 NNB     -0.105500
     20 C5          2.2150    5.5120   -2.9550 ca        1 NNB     -0.105500
     21 C6          0.8120    5.5690   -2.8250 ca        1 NNB     -0.051500
     22 C1          0.1320    4.3780   -2.7050 ca        1 NNB     -0.144600
     23 C7         -1.3290    4.0990   -2.5740 c         1 NNB      0.733600
     24 O1         -2.2830    4.8730   -2.5290 o         1 NNB     -0.583000
     25 H13         0.2230   -1.2580   -0.9530 ha        1 NNB      0.167000
     26 H14         2.5360   -0.5910   -0.4470 ha        1 NNB      0.179500
     27 H16         1.2290    1.2360    3.2750 ha        1 NNB      0.179500
     28 H17        -1.0900    0.5440    2.8140 ha        1 NNB      0.167000
     29 H2         -1.9270   -1.9380    0.5390 hn        1 NNB      0.467800
     30 H101       -4.4610    1.3630   -1.4230 h1        1 NNB      0.105200
     31 H102       -3.5420    2.7890   -0.6700 h1        1 NNB      0.105200
     32 H9C1       -2.5420    0.9700   -3.0240 h1        1 NNB      0.096200
     33 H9C2       -3.4110    2.5800   -3.2330 h1        1 NNB      0.096200
     34 H6          0.2840    6.5360   -2.8250 ha        1 NNB      0.164500
     35 H5          2.7800    6.4540   -3.0550 ha        1 NNB      0.158000
     36 H4          3.9840    4.2770   -3.0730 ha        1 NNB      0.158000
     37 H3          2.7340    2.1190   -2.8570 ha        1 NNB      0.164500
     38 H22        -2.5170   -0.6950    1.5140 hn        1 NNB      0.467800
@<TRIPOS>BOND
     1    1    2 ar  
     2    1    7 ar  
     3    1   25 1   
     4    2    3 ar  
     5    2   26 1   
     6    3    4 1   
     7    3    5 ar  
     8    5    6 ar  
     9    5   27 1   
    10    6    7 ar  
    11    6   28 1   
    12    7    8 1   
    13    8    9 1   
    14    8   29 1   
    15    8   38 1   
    16    9   10 2   
    17    9   11 1   
    18   11   12 1   
    19   12   13 1   
    20   12   30 1   
    21   12   31 1   
    22   13   14 1   
    23   13   32 1   
    24   13   33 1   
    25   14   15 1   
    26   14   23 1   
    27   15   16 2   
    28   15   17 1   
    29   17   18 ar  
    30   17   22 ar  
    31   18   19 ar  
    32   18   37 1   
    33   19   20 ar  
    34   19   36 1   
    35   20   21 ar  
    36   20   35 1   
    37   21   22 ar  
    38   21   34 1   
    39   22   23 1   
    40   23   24 2   
@<TRIPOS>SUBSTRUCTURE
     1 NNB         1 TEMP              0 ****  ****    0 ROOT
