@<TRIPOS>MOLECULE
NNC
   37    39     1     0     0
SMALL
bcc


@<TRIPOS>ATOM
      1 C13        10.3270   13.1500   15.4210 ca        1 NNC     -0.141500
      2 C14         9.6970   12.3250   16.3490 ca        1 NNC     -0.103000
      3 C15         8.3560   11.9760   16.1820 ca        1 NNC     -0.000600
      4 CL2         7.5920   10.9680   17.3170 cl        1 NNC     -0.092400
      5 C16         7.6380   12.4540   15.0810 ca        1 NNC     -0.103000
      6 C17         8.2570   13.2820   14.1540 ca        1 NNC     -0.141500
      7 C12         9.6160   13.6470   14.3120 ca        1 NNC      0.042600
      8 N2         10.2050   14.4590   13.3230 n         1 NNC     -0.403100
      9 C11        11.2560   15.3330   13.4320 c         1 NNC      0.592500
     10 S1         11.7940   16.1860   12.1810 s         1 NNC     -0.546400
     11 O3         11.7680   15.3780   14.7120 os        1 NNC     -0.387900
     12 C10        12.8600   16.2940   14.9150 c3        1 NNC      0.094400
     13 C9         13.7480   15.6810   16.0050 c3        1 NNC      0.099000
     14 N1         13.2430   15.7810   17.3410 n         1 NNC     -0.525400
     15 C7         13.1620   16.9970   18.0800 c         1 NNC      0.727600
     16 O1         13.5610   18.0900   17.6750 o         1 NNC     -0.573000
     17 C1         12.5280   16.6580   19.3930 ca        1 NNC     -0.139100
     18 C6         12.2280   17.4470   20.4820 ca        1 NNC     -0.061000
     19 C5         11.6190   16.8290   21.5910 ca        1 NNC     -0.116000
     20 C4         11.3320   15.4700   21.5900 ca        1 NNC     -0.116000
     21 C3         11.6390   14.6610   20.4780 ca        1 NNC     -0.061000
     22 C2         12.2340   15.2640   19.3910 ca        1 NNC     -0.139100
     23 C8         12.6780   14.7010   18.0760 c         1 NNC      0.727600
     24 O2         12.6040   13.5370   17.6730 o         1 NNC     -0.573000
     25 H13        11.3890   13.4050   15.5840 ha        1 NNC      0.156500
     26 H14        10.2760   11.9550   17.2110 ha        1 NNC      0.155000
     27 H16         6.5800   12.1780   14.9460 ha        1 NNC      0.155000
     28 H17         7.6740   13.6490   13.2950 ha        1 NNC      0.156500
     29 H2          9.7600   14.4540   12.4240 hn        1 NNC      0.352500
     30 H101       13.4520   16.4190   13.9640 h1        1 NNC      0.092200
     31 H102       12.4200   17.2790   15.2210 h1        1 NNC      0.092200
     32 H9C1       13.9100   14.5880   15.7760 h1        1 NNC      0.083200
     33 H9C2       14.7350   16.2290   15.9610 h1        1 NNC      0.083200
     34 H6         12.4530   18.5240   20.4880 ha        1 NNC      0.160500
     35 H5         11.3690   17.4410   22.4720 ha        1 NNC      0.146000
     36 H4         10.8550   15.0080   22.4680 ha        1 NNC      0.146000
     37 H3         11.4100   13.5850   20.4820 ha        1 NNC      0.160500
@<TRIPOS>BOND
     1    1    2 ar  
     2    1    7 ar  
     3    1   25 1   
     4    2    3 ar  
     5    2   26 1   
     6    3    4 1   
     7    3    5 ar  
     8    5    6 ar  
     9    5   27 1   
    10    6    7 ar  
    11    6   28 1   
    12    7    8 1   
    13    8    9 1   
    14    8   29 1   
    15    9   10 2   
    16    9   11 1   
    17   11   12 1   
    18   12   13 1   
    19   12   30 1   
    20   12   31 1   
    21   13   14 1   
    22   13   32 1   
    23   13   33 1   
    24   14   15 1   
    25   14   23 1   
    26   15   16 2   
    27   15   17 1   
    28   17   18 ar  
    29   17   22 ar  
    30   18   19 ar  
    31   18   34 1   
    32   19   20 ar  
    33   19   35 1   
    34   20   21 ar  
    35   20   36 1   
    36   21   22 ar  
    37   21   37 1   
    38   22   23 1   
    39   23   24 2   
@<TRIPOS>SUBSTRUCTURE
     1 NNC         1 TEMP              0 ****  ****    0 ROOT
