@<TRIPOS>MOLECULE
NNC
   37    39     1     0     0
SMALL
bcc


@<TRIPOS>ATOM
      1 C13         0.0830   -0.4920    0.2450 ca        1 NNC     -0.141500
      2 C14         1.4640   -0.5100    0.4150 ca        1 NNC     -0.103000
      3 C15         2.0150   -0.4570    1.6970 ca        1 NNC     -0.000600
      4 Cl2         3.7020   -0.4800    1.9000 cl        1 NNC     -0.092400
      5 C16         1.1810   -0.3850    2.8170 ca        1 NNC     -0.103000
      6 C17        -0.1990   -0.3610    2.6560 ca        1 NNC     -0.141500
      7 C12        -0.7720   -0.4110    1.3620 ca        1 NNC      0.042600
      8 N2         -2.1770   -0.4210    1.2570 ns        1 NNC     -0.403100
      9 C11        -2.9710    0.0150    0.2290 c         1 NNC      0.592500
     10 S1         -4.5750   -0.0740    0.2880 s         1 NNC     -0.546400
     11 O3         -2.2360    0.5200   -0.8240 os        1 NNC     -0.387900
     12 C10        -3.0010    1.0240   -1.9340 c3        1 NNC      0.094400
     13 C9         -2.1560    0.7840   -3.1920 c3        1 NNC      0.099000
     14 N1         -1.0540    1.6800   -3.3740 n         1 NNC     -0.525400
     15 C7         -1.1860    3.0570   -3.7170 c         1 NNC      0.727600
     16 O1         -2.2580    3.6220   -3.9420 o         1 NNC     -0.573000
     17 C1          0.1990    3.6250   -3.7500 ca        1 NNC     -0.139100
     18 C6          0.6470    4.8950   -4.0370 ca        1 NNC     -0.061000
     19 C5          2.0360    5.1280   -3.9820 ca        1 NNC     -0.116000
     20 C4          2.9230    4.1110   -3.6500 ca        1 NNC     -0.116000
     21 C3          2.4660    2.8110   -3.3570 ca        1 NNC     -0.061000
     22 C2          1.1080    2.5820   -3.4090 ca        1 NNC     -0.139100
     23 C8          0.3110    1.3390   -3.1570 c         1 NNC      0.727600
     24 O2          0.7150    0.2180   -2.8370 o         1 NNC     -0.573000
     25 H13        -0.3190   -0.5360   -0.7830 ha        1 NNC      0.156500
     26 H14         2.1100   -0.5690   -0.4760 ha        1 NNC      0.155000
     27 H16         1.6120   -0.3460    3.8300 ha        1 NNC      0.155000
     28 H17        -0.8390   -0.3020    3.5510 ha        1 NNC      0.156500
     29 H2         -2.6790   -0.7270    2.0690 hn        1 NNC      0.352500
     30 H101       -3.1920    2.1120   -1.7440 h1        1 NNC      0.092200
     31 H102       -3.9800    0.4730   -2.0210 h1        1 NNC      0.092200
     32 H9C1       -2.8530    0.9000   -4.0730 h1        1 NNC      0.083200
     33 H9C2       -1.7480   -0.2670   -3.1660 h1        1 NNC      0.083200
     34 H6         -0.0510    5.7040   -4.3000 ha        1 NNC      0.160500
     35 H5          2.4170    6.1360   -4.2070 ha        1 NNC      0.146000
     36 H4          4.0040    4.3170   -3.6120 ha        1 NNC      0.146000
     37 H3          3.1720    2.0100   -3.0940 ha        1 NNC      0.160500
@<TRIPOS>BOND
     1    1    2 ar  
     2    1    7 ar  
     3    1   25 1   
     4    2    3 ar  
     5    2   26 1   
     6    3    4 1   
     7    3    5 ar  
     8    5    6 ar  
     9    5   27 1   
    10    6    7 ar  
    11    6   28 1   
    12    7    8 1   
    13    8    9 1   
    14    8   29 1   
    15    9   10 2   
    16    9   11 1   
    17   11   12 1   
    18   12   13 1   
    19   12   30 1   
    20   12   31 1   
    21   13   14 1   
    22   13   32 1   
    23   13   33 1   
    24   14   15 1   
    25   14   23 1   
    26   15   16 2   
    27   15   17 1   
    28   17   18 ar  
    29   17   22 ar  
    30   18   19 ar  
    31   18   34 1   
    32   19   20 ar  
    33   19   35 1   
    34   20   21 ar  
    35   20   36 1   
    36   21   22 ar  
    37   21   37 1   
    38   22   23 1   
    39   23   24 2   
@<TRIPOS>SUBSTRUCTURE
     1 NNC         1 TEMP              0 ****  ****    0 ROOT
