@<TRIPOS>MOLECULE
NNC
   37    39     1     0     0
SMALL
bcc


@<TRIPOS>ATOM
      1 C13         0.0810   -0.5040    0.2310 ca        1 NNC     -0.141500
      2 C14         1.4620   -0.5200    0.4070 ca        1 NNC     -0.103000
      3 C15         2.0070   -0.4760    1.6910 ca        1 NNC     -0.000600
      4 CL2         3.6930   -0.4960    1.9010 cl        1 NNC     -0.092400
      5 C16         1.1690   -0.4160    2.8090 ca        1 NNC     -0.103000
      6 C17        -0.2100   -0.3930    2.6420 ca        1 NNC     -0.141500
      7 C12        -0.7780   -0.4340    1.3460 ca        1 NNC      0.042600
      8 N2         -2.1820   -0.4470    1.2350 n         1 NNC     -0.403100
      9 C11        -2.9740   -0.0050    0.2070 c         1 NNC      0.592500
     10 S1         -4.5770   -0.0980    0.2590 s         1 NNC     -0.546400
     11 O3         -2.2360    0.5110   -0.8380 os        1 NNC     -0.387900
     12 C10        -2.9980    1.0210   -1.9480 c3        1 NNC      0.094400
     13 C9         -2.1480    0.7940   -3.2040 c3        1 NNC      0.099000
     14 N1         -1.0470    1.6940   -3.3750 n         1 NNC     -0.525400
     15 C7         -1.1810    3.0730   -3.7080 c         1 NNC      0.727600
     16 O1         -2.2530    3.6380   -3.9330 o         1 NNC     -0.573000
     17 C1          0.2020    3.6450   -3.7310 ca        1 NNC     -0.139100
     18 C6          0.6490    4.9180   -4.0070 ca        1 NNC     -0.061000
     19 C5          2.0370    5.1540   -3.9440 ca        1 NNC     -0.116000
     20 C4          2.9250    4.1370   -3.6160 ca        1 NNC     -0.116000
     21 C3          2.4700    2.8340   -3.3350 ca        1 NNC     -0.061000
     22 C2          1.1130    2.6020   -3.3950 ca        1 NNC     -0.139100
     23 C8          0.3180    1.3550   -3.1550 c         1 NNC      0.727600
     24 O2          0.7230    0.2330   -2.8430 o         1 NNC     -0.573000
     25 H13        -0.3160   -0.5410   -0.7990 ha        1 NNC      0.156500
     26 H14         2.1110   -0.5690   -0.4820 ha        1 NNC      0.155000
     27 H16         1.5960   -0.3830    3.8230 ha        1 NNC      0.155000
     28 H17        -0.8540   -0.3440    3.5350 ha        1 NNC      0.156500
     29 H2         -2.6870   -0.7610    2.0420 hn        1 NNC      0.352500
     30 H101       -3.1920    2.1080   -1.7500 h1        1 NNC      0.092200
     31 H102       -3.9750    0.4700   -2.0420 h1        1 NNC      0.092200
     32 H9C1       -1.7370   -0.2570   -3.1840 h1        1 NNC      0.083200
     33 H9C2       -2.8410    0.9150   -4.0870 h1        1 NNC      0.083200
     34 H6         -0.0510    5.7270   -4.2670 ha        1 NNC      0.160500
     35 H5          2.4160    6.1650   -4.1600 ha        1 NNC      0.146000
     36 H4          4.0050    4.3450   -3.5730 ha        1 NNC      0.146000
     37 H3          3.1780    2.0320   -3.0760 ha        1 NNC      0.160500
@<TRIPOS>BOND
     1    1    2 ar  
     2    1    7 ar  
     3    1   25 1   
     4    2    3 ar  
     5    2   26 1   
     6    3    4 1   
     7    3    5 ar  
     8    5    6 ar  
     9    5   27 1   
    10    6    7 ar  
    11    6   28 1   
    12    7    8 1   
    13    8    9 1   
    14    8   29 1   
    15    9   10 2   
    16    9   11 1   
    17   11   12 1   
    18   12   13 1   
    19   12   30 1   
    20   12   31 1   
    21   13   14 1   
    22   13   32 1   
    23   13   33 1   
    24   14   15 1   
    25   14   23 1   
    26   15   16 2   
    27   15   17 1   
    28   17   18 ar  
    29   17   22 ar  
    30   18   19 ar  
    31   18   34 1   
    32   19   20 ar  
    33   19   35 1   
    34   20   21 ar  
    35   20   36 1   
    36   21   22 ar  
    37   21   37 1   
    38   22   23 1   
    39   23   24 2   
@<TRIPOS>SUBSTRUCTURE
     1 NNC         1 TEMP              0 ****  ****    0 ROOT
