@<TRIPOS>MOLECULE
NNC
   37    34     1     0     0
SMALL
bcc


@<TRIPOS>ATOM
      1 C13         1.9580   -4.8840    2.0090 c1        1 NNC     -0.161000
      2 C14         1.3070   -5.9860    2.5430 c1        1 NNC     -0.103000
      3 C15        -0.0760   -6.0650    2.4940 c1        1 NNC     -0.079000
      4 CL2        -0.8970   -7.4260    3.2110 cl        1 NNC     -0.010000
      5 C16        -0.8080   -5.0420    1.9120 c2        1 NNC     -0.100000
      6 C17        -0.1580   -3.9410    1.3780 c1        1 NNC     -0.144000
      7 C12         1.2250   -3.8620    1.4260 c1        1 NNC      0.060000
      8 N2          1.8910   -2.7290    0.8880 n         1 NNC     -0.247000
      9 C11         1.7410   -1.4590    1.5030 c2        1 NNC      0.137000
     10 S1          1.0630   -1.3430    3.0280 s         1 NNC     -0.213000
     11 O3          2.2080   -0.3050    0.8520 os        1 NNC     -0.251000
     12 C10         1.1930    0.6180    0.5270 c3        1 NNC     -0.051000
     13 C9          1.4300    1.1570   -0.8670 c3        1 NNC     -0.035000
     14 N1          0.4430    2.1390   -1.1690 n         1 NNC     -0.354000
     15 C7          0.6910    3.5160   -1.4600 c2        1 NNC      0.360000
     16 O1          1.7750    4.0650   -1.4470 o         1 NNC     -0.297000
     17 C1         -0.6420    4.1760   -1.7920 c2        1 NNC     -0.119000
     18 C6         -0.9750    5.4860   -2.1600 c2        1 NNC     -0.061000
     19 C5         -2.2950    5.8170   -2.4280 c1        1 NNC     -0.117000
     20 C4         -3.2850    4.8510   -2.3320 c1        1 NNC     -0.088500
     21 C3         -2.9560    3.5540   -1.9670 c1        1 NNC     -0.088500
     22 C2         -1.6230    3.2200   -1.6960 c1        1 NNC     -0.118000
     23 C8         -0.9610    1.9050   -1.3000 c2        1 NNC      0.362000
     24 O2         -1.5280    0.8460   -1.1200 o         1 NNC     -0.283000
     25 H13         2.9320   -4.8290    2.0430 ha        1 NNC      0.138000
     26 H14         1.8230   -6.7060    2.9530 ha        1 NNC      0.150000
     27 H16        -1.7820   -5.0980    1.8770 ha        1 NNC      0.155000
     28 H17        -0.6730   -3.2210    0.9680 ha        1 NNC      0.195000
     29 H2          2.4310   -2.8220    0.1590 hn        1 NNC      0.248000
     30 H101        0.3230    0.1700    0.5610 h1        1 NNC      0.137500
     31 H102        1.2060    1.3570    1.1700 h1        1 NNC      0.137500
     32 H9C1        1.3710    0.4250   -1.5150 h1        1 NNC      0.116000
     33 H9C2        2.3200    1.5640   -0.9130 h1        1 NNC      0.116000
     34 H6         -0.2780    6.1660   -2.2270 ha        1 NNC      0.160000
     35 H5         -2.5260    6.7290   -2.6850 ha        1 NNC      0.145000
     36 H4         -4.2140    5.0840   -2.5210 ha        1 NNC      0.153000
     37 H3         -3.6530    2.8740   -1.9000 ha        1 NNC      0.153000
@<TRIPOS>BOND
     1    1    7 1   
     2    1   25 1   
     3    2    3 1   
     4    2   26 1   
     5    3    5 1   
     6    5    6 1   
     7    5   27 1   
     8    6   28 1   
     9    7    8 1   
    10    8    9 1   
    11    8   29 1   
    12    9   10 1   
    13    9   11 1   
    14   11   12 1   
    15   12   13 1   
    16   12   30 1   
    17   12   31 1   
    18   13   14 1   
    19   13   32 1   
    20   13   33 1   
    21   14   15 1   
    22   14   23 1   
    23   15   16 1   
    24   15   17 1   
    25   17   18 1   
    26   17   22 1   
    27   18   19 1   
    28   18   34 1   
    29   19   35 1   
    30   20   21 1   
    31   20   36 1   
    32   21   37 1   
    33   22   23 1   
    34   23   24 1   
@<TRIPOS>SUBSTRUCTURE
     1 NNC         1 TEMP              0 ****  ****    0 ROOT
