@<TRIPOS>MOLECULE
NNC
   38    40     1     0     0
SMALL
bcc


@<TRIPOS>ATOM
      1 C13         0.9940   -0.6170    0.8130 ca        1 NNC     -0.080000
      2 C14         1.8470   -1.5650    1.3690 ca        1 NNC     -0.113000
      3 C15         1.5400   -2.1490    2.6060 ca        1 NNC      0.062400
      4 CL2         2.5770   -3.2990    3.2720 cl        1 NNC     -0.014400
      5 C16         0.3740   -1.7800    3.2910 ca        1 NNC     -0.113000
      6 C17        -0.4880   -0.8340    2.7470 ca        1 NNC     -0.080000
      7 C12        -0.1750   -0.2500    1.5060 ca        1 NNC     -0.058400
      8 N2         -1.0480    0.7730    0.9340 n4        1 NNC     -0.486200
      9 C11        -2.1190    0.2320    0.0200 c         1 NNC      0.310500
     10 S1         -2.6000   -1.2160   -0.0190 s         1 NNC     -0.070400
     11 O3         -2.5180    1.3620   -0.6480 os        1 NNC     -0.386900
     12 C10        -3.1680    1.1790   -1.9220 c3        1 NNC      0.110400
     13 C9         -2.1470    0.8970   -3.0300 c3        1 NNC      0.073000
     14 N1         -1.2170    1.9490   -3.2930 n         1 NNC     -0.534400
     15 C7         -1.3040    2.8240   -4.4340 c         1 NNC      0.746100
     16 O1         -2.2440    2.8110   -5.2250 o         1 NNC     -0.608500
     17 C1         -0.0740    3.6690   -4.4090 ca        1 NNC     -0.147600
     18 C6          0.3500    4.6630   -5.2610 ca        1 NNC     -0.047500
     19 C5          1.5850    5.2860   -4.9780 ca        1 NNC     -0.102500
     20 C4          2.3450    4.9080   -3.8800 ca        1 NNC     -0.102500
     21 C3          1.9120    3.8900   -3.0050 ca        1 NNC     -0.047500
     22 C2          0.7070    3.2820   -3.2780 ca        1 NNC     -0.147600
     23 C8         -0.0250    2.1910   -2.5700 c         1 NNC      0.746100
     24 O2          0.2970    1.5830   -1.5340 o         1 NNC     -0.608500
     25 H13         1.2460   -0.1580   -0.1620 ha        1 NNC      0.169000
     26 H14         2.7660   -1.8530    0.8300 ha        1 NNC      0.179500
     27 H16         0.1330   -2.2400    4.2650 ha        1 NNC      0.179500
     28 H17        -1.4010   -0.5580    3.2990 ha        1 NNC      0.169000
     29 H2         -1.5050    1.2980    1.6910 hn        1 NNC      0.477300
     30 H101       -3.6960    2.1640   -2.0550 h1        1 NNC      0.107200
     31 H102       -3.9060    0.3340   -1.8590 h1        1 NNC      0.107200
     32 H9C1       -1.5720   -0.0350   -2.7590 h1        1 NNC      0.090700
     33 H9C2       -2.7370    0.7030   -3.9760 h1        1 NNC      0.090700
     34 H6         -0.2470    4.9670   -6.1360 ha        1 NNC      0.166000
     35 H5          1.9440    6.0840   -5.6480 ha        1 NNC      0.160500
     36 H4          3.3080    5.4070   -3.6800 ha        1 NNC      0.160500
     37 H3          2.5250    3.5960   -2.1400 ha        1 NNC      0.166000
     38 H22        -0.4680    1.4390    0.3840 hn        1 NNC      0.477300
@<TRIPOS>BOND
     1    1    2 ar  
     2    1    7 ar  
     3    1   25 1   
     4    2    3 ar  
     5    2   26 1   
     6    3    4 1   
     7    3    5 ar  
     8    5    6 ar  
     9    5   27 1   
    10    6    7 ar  
    11    6   28 1   
    12    7    8 1   
    13    8    9 1   
    14    8   29 1   
    15    8   38 1   
    16    9   10 2   
    17    9   11 1   
    18   11   12 1   
    19   12   13 1   
    20   12   30 1   
    21   12   31 1   
    22   13   14 1   
    23   13   32 1   
    24   13   33 1   
    25   14   15 1   
    26   14   23 1   
    27   15   16 2   
    28   15   17 1   
    29   17   18 ar  
    30   17   22 ar  
    31   18   19 ar  
    32   18   34 1   
    33   19   20 ar  
    34   19   35 1   
    35   20   21 ar  
    36   20   36 1   
    37   21   22 ar  
    38   21   37 1   
    39   22   23 1   
    40   23   24 2   
@<TRIPOS>SUBSTRUCTURE
     1 NNC         1 TEMP              0 ****  ****    0 ROOT
