@<TRIPOS>MOLECULE
NND
   51    51     1     0     0
SMALL
bcc


@<TRIPOS>ATOM
      1 O6         -5.3990    0.8740    0.5650 oh        1 NND     -0.600800
      2 C6         -3.9940    0.8520    0.5680 c3        1 NND      0.148400
      3 C5         -3.5020    0.8740    1.9670 c3        1 NND      0.138500
      4 C4         -3.3710    2.3200    2.4180 c3        1 NND      0.116100
      5 O4         -4.6800    2.9030    2.4920 oh        1 NND     -0.611800
      6 O3         -2.4650    3.8350    4.0240 oh        1 NND     -0.610800
      7 C2         -1.4160    1.6960    3.8130 c3        1 NND      0.077100
      8 O2         -0.9400    1.7090    5.1610 oh        1 NND     -0.590800
      9 N1         -2.2090    0.1350    2.0360 n3        1 NND     -0.710600
     10 C8         -1.3140    0.6250    1.0040 c3        1 NND      0.160800
     11 C7         -0.6980   -0.5750    0.2430 c3        1 NND     -0.081400
     12 C1         -1.5550    0.2480    3.3530 c3        1 NND      0.166800
     13 C9          0.5370   -0.0990   -0.5600 c3        1 NND     -0.080400
     14 C10         1.0070   -1.2390   -1.5130 c3        1 NND     -0.078400
     15 C14         2.4120   -0.9060   -2.0630 c3        1 NND     -0.079400
     16 C13         2.8230   -1.9720   -3.1100 c3        1 NND     -0.079400
     17 C12         4.3100   -1.8150   -3.4430 c3        1 NND     -0.079400
     18 C16         6.2000   -2.7620   -4.7550 c3        1 NND     -0.092100
     19 C11         4.7050   -2.8390   -4.5100 c3        1 NND     -0.080400
     20 C31        -2.7140    2.4400    3.7510 c3        1 NND      0.068100
     21 H6         -5.6980    0.6190   -0.2360 ho        1 NND      0.419000
     22 H6C1       -3.6800    0.0380    0.1260 h1        1 NND      0.050200
     23 H6C2       -3.6530    1.6390    0.0880 h1        1 NND      0.050200
     24 H5         -4.1510    0.4260    2.5360 h1        1 NND      0.086700
     25 H4         -2.8410    2.8110    1.7580 h1        1 NND      0.051700
     26 HA         -4.6450    3.7500    2.2070 ho        1 NND      0.426000
     27 H31        -3.3160    2.0850    4.4350 h1        1 NND      0.066700
     28 H3         -2.8790    4.0680    4.7810 ho        1 NND      0.408000
     29 H2         -0.7620    2.1500    3.2410 h1        1 NND      0.050700
     30 HB         -0.1390    2.0950    5.1890 ho        1 NND      0.401000
     31 H1C1       -0.6640   -0.1530    3.2980 h1        1 NND      0.072700
     32 H1C2       -2.0810   -0.2410    4.0090 h1        1 NND      0.072700
     33 H8C1       -0.5990    1.1530    1.4150 h1        1 NND      0.033700
     34 H8C2       -1.8120    1.1830    0.3800 h1        1 NND      0.033700
     35 H7C1       -1.3590   -0.9450   -0.3680 hc        1 NND      0.049700
     36 H7C2       -0.4260   -1.2600    0.8820 hc        1 NND      0.049700
     37 H9C1        0.2990    0.6890   -1.0870 hc        1 NND      0.039700
     38 H9C2        1.2620    0.1290    0.0600 hc        1 NND      0.039700
     39 H101        0.3750   -1.3220   -2.2600 hc        1 NND      0.041200
     40 H102        1.0410   -2.0870   -1.0180 hc        1 NND      0.041200
     41 H141        3.0600   -0.9050   -1.3270 hc        1 NND      0.039700
     42 H142        2.3970   -0.0240   -2.4850 hc        1 NND      0.039700
     43 H131        2.6630   -2.8650   -2.7460 hc        1 NND      0.040200
     44 H132        2.2920   -1.8510   -3.9240 hc        1 NND      0.040200
     45 H121        4.4740   -0.9100   -3.7810 hc        1 NND      0.039200
     46 H122        4.8410   -1.9630   -2.6370 hc        1 NND      0.039200
     47 H111        4.2260   -2.6430   -5.3450 hc        1 NND      0.038700
     48 H112        4.4710   -3.7360   -4.2030 hc        1 NND      0.038700
     49 H161        6.6740   -3.1400   -3.9910 hc        1 NND      0.032700
     50 H162        6.4650   -1.8250   -4.8730 hc        1 NND      0.032700
     51 H163        6.4260   -3.2710   -5.5660 hc        1 NND      0.032700
@<TRIPOS>BOND
     1    1    2 1   
     2    1   21 1   
     3    2    3 1   
     4    2   22 1   
     5    2   23 1   
     6    3    4 1   
     7    3    9 1   
     8    3   24 1   
     9    4    5 1   
    10    4   20 1   
    11    4   25 1   
    12    5   26 1   
    13    6   20 1   
    14    6   28 1   
    15    7    8 1   
    16    7   12 1   
    17    7   20 1   
    18    7   29 1   
    19    8   30 1   
    20    9   10 1   
    21    9   12 1   
    22   10   11 1   
    23   10   33 1   
    24   10   34 1   
    25   11   13 1   
    26   11   35 1   
    27   11   36 1   
    28   12   31 1   
    29   12   32 1   
    30   13   14 1   
    31   13   37 1   
    32   13   38 1   
    33   14   15 1   
    34   14   39 1   
    35   14   40 1   
    36   15   16 1   
    37   15   41 1   
    38   15   42 1   
    39   16   17 1   
    40   16   43 1   
    41   16   44 1   
    42   17   19 1   
    43   17   45 1   
    44   17   46 1   
    45   18   19 1   
    46   18   49 1   
    47   18   50 1   
    48   18   51 1   
    49   19   47 1   
    50   19   48 1   
    51   20   27 1   
@<TRIPOS>SUBSTRUCTURE
     1 NND         1 TEMP              0 ****  ****    0 ROOT
