@<TRIPOS>MOLECULE
NND
   51    51     1     0     0
SMALL
bcc


@<TRIPOS>ATOM
      1 O6         -2.1720    2.9900    0.6960 oh        1 NND     -0.595800
      2 C6         -2.6550    2.5210   -0.5450 c3        1 NND      0.132400
      3 C5         -2.8670    0.9950   -0.6250 c3        1 NND      0.141500
      4 C4         -4.2360    0.6500    0.0150 c3        1 NND      0.148100
      5 O4         -5.2160    1.3800   -0.7070 oh        1 NND     -0.603800
      6 O3         -5.7360   -1.0910    0.5850 oh        1 NND     -0.611800
      7 C2         -3.3640   -1.6430    0.5250 c3        1 NND      0.104100
      8 O2         -3.6280   -3.0120    0.2510 oh        1 NND     -0.607800
      9 N1         -1.7910    0.2110   -0.0030 n3        1 NND     -0.723600
     10 C8         -0.4780    0.6230   -0.4880 c3        1 NND      0.163800
     11 C7          0.6970   -0.2130    0.0140 c3        1 NND     -0.081400
     12 C1         -2.0270   -1.2190   -0.1060 c3        1 NND      0.133800
     13 C9          2.0000    0.4800   -0.3290 c3        1 NND     -0.080400
     14 C10         3.1880   -0.3490    0.1100 c3        1 NND     -0.078400
     15 C14         4.4920    0.3430   -0.2240 c3        1 NND     -0.079400
     16 C13         5.6810   -0.4850    0.2130 c3        1 NND     -0.079400
     17 C12         6.9850    0.2070   -0.1200 c3        1 NND     -0.079400
     18 C16         9.4760    0.0660   -0.0140 c3        1 NND     -0.093100
     19 C11         8.1760   -0.6200    0.3160 c3        1 NND     -0.080400
     20 C31        -4.5180   -0.8550   -0.1020 c3        1 NND      0.111100
     21 H6         -2.6820    2.5540    1.3900 ho        1 NND      0.406000
     22 H6C1       -3.6320    3.0230   -0.7840 h1        1 NND      0.058700
     23 H6C2       -1.8790    2.8450   -1.2900 h1        1 NND      0.058700
     24 H5         -2.9540    0.7500   -1.7300 h1        1 NND      0.045700
     25 H4         -4.2600    0.9590    1.0970 h1        1 NND      0.055700
     26 HA         -6.0750    1.0760   -0.3820 ho        1 NND      0.425000
     27 H31        -4.6370   -1.1460   -1.1830 h1        1 NND      0.063700
     28 H3         -5.8720   -2.0470    0.5820 ho        1 NND      0.425000
     29 H2         -3.3490   -1.4780    1.6390 h1        1 NND      0.061700
     30 HB         -2.9020   -3.5200    0.6320 ho        1 NND      0.410000
     31 H1C1       -1.2040   -1.7500    0.4520 h1        1 NND      0.043200
     32 H1C2       -2.0100   -1.5850   -1.1740 h1        1 NND      0.043200
     33 H8C1       -0.4440    0.6350   -1.6180 h1        1 NND      0.046200
     34 H8C2       -0.3320    1.6830   -0.1240 h1        1 NND      0.046200
     35 H7C1        0.6290   -0.3550    1.1240 hc        1 NND      0.044700
     36 H7C2        0.6810   -1.2280   -0.4620 hc        1 NND      0.044700
     37 H9C1        2.0530    0.6580   -1.4350 hc        1 NND      0.043700
     38 H9C2        2.0370    1.4840    0.1710 hc        1 NND      0.043700
     39 H101        3.1310   -0.5310    1.2160 hc        1 NND      0.039200
     40 H102        3.1550   -1.3510   -0.3930 hc        1 NND      0.039200
     41 H141        4.5480    0.5280   -1.3290 hc        1 NND      0.040700
     42 H142        4.5260    1.3450    0.2800 hc        1 NND      0.040700
     43 H131        5.6250   -0.6690    1.3190 hc        1 NND      0.039200
     44 H132        5.6480   -1.4870   -0.2910 hc        1 NND      0.039200
     45 H121        7.0420    0.3920   -1.2260 hc        1 NND      0.040200
     46 H122        7.0190    1.2090    0.3840 hc        1 NND      0.040200
     47 H111        8.1170   -0.8040    1.4220 hc        1 NND      0.038200
     48 H112        8.1390   -1.6220   -0.1870 hc        1 NND      0.038200
     49 H161        9.5640    0.2360   -1.1140 hc        1 NND      0.032700
     50 H162        9.5420    1.0560    0.4990 hc        1 NND      0.032700
     51 H163       10.3400   -0.5600    0.3160 hc        1 NND      0.032700
@<TRIPOS>BOND
     1    1    2 1   
     2    1   21 1   
     3    2    3 1   
     4    2   22 1   
     5    2   23 1   
     6    3    4 1   
     7    3    9 1   
     8    3   24 1   
     9    4    5 1   
    10    4   20 1   
    11    4   25 1   
    12    5   26 1   
    13    6   20 1   
    14    6   28 1   
    15    7    8 1   
    16    7   12 1   
    17    7   20 1   
    18    7   29 1   
    19    8   30 1   
    20    9   10 1   
    21    9   12 1   
    22   10   11 1   
    23   10   33 1   
    24   10   34 1   
    25   11   13 1   
    26   11   35 1   
    27   11   36 1   
    28   12   31 1   
    29   12   32 1   
    30   13   14 1   
    31   13   37 1   
    32   13   38 1   
    33   14   15 1   
    34   14   39 1   
    35   14   40 1   
    36   15   16 1   
    37   15   41 1   
    38   15   42 1   
    39   16   17 1   
    40   16   43 1   
    41   16   44 1   
    42   17   19 1   
    43   17   45 1   
    44   17   46 1   
    45   18   19 1   
    46   18   49 1   
    47   18   50 1   
    48   18   51 1   
    49   19   47 1   
    50   19   48 1   
    51   20   27 1   
@<TRIPOS>SUBSTRUCTURE
     1 NND         1 TEMP              0 ****  ****    0 ROOT
