@<TRIPOS>MOLECULE
NND
   51    51     1     0     0
SMALL
bcc


@<TRIPOS>ATOM
      1 O6          0.4350    0.4170   -0.5090 oh        1 NND     -0.595800
      2 C6          1.7350    0.0160   -0.1320 c3        1 NND      0.132400
      3 C5          2.0050    0.0340    1.3880 c3        1 NND      0.141500
      4 C4          1.4430   -1.2720    2.0060 c3        1 NND      0.148100
      5 O4          2.0930   -2.3460    1.3450 oh        1 NND     -0.603800
      6 O3          1.1230   -2.4980    4.0060 oh        1 NND     -0.611800
      7 C2          1.1940   -0.0700    4.1910 c3        1 NND      0.104100
      8 O2          1.6390   -0.1250    5.5400 oh        1 NND     -0.607800
      9 N1          1.4580    1.2120    2.0750 n3        1 NND     -0.723600
     10 C8          1.8580    2.4510    1.4170 c3        1 NND      0.163800
     11 C7          1.4350    3.7350    2.1270 c3        1 NND     -0.081400
     12 C1          1.7390    1.1920    3.5010 c3        1 NND      0.133800
     13 C9          1.6610    4.9210    1.2130 c3        1 NND     -0.080400
     14 C10         1.2980    6.2180    1.9050 c3        1 NND     -0.078400
     15 C14         1.5160    7.4060    0.9920 c3        1 NND     -0.079400
     16 C13         1.1550    8.7030    1.6830 c3        1 NND     -0.079400
     17 C12         1.3720    9.8910    0.7710 c3        1 NND     -0.079400
     18 C16         1.2260   12.3750    0.5560 c3        1 NND     -0.093100
     19 C11         1.0120   11.1890    1.4610 c3        1 NND     -0.080400
     20 C31         1.7480   -1.3250    3.5110 c3        1 NND      0.111100
     21 H6         -0.1880   -0.0250    0.0790 ho        1 NND      0.406000
     22 H6C1        2.4180    0.7380   -0.6550 h1        1 NND      0.058700
     23 H6C2        1.9350   -1.0250   -0.5100 h1        1 NND      0.058700
     24 H5          3.1330   -0.0110    1.5040 h1        1 NND      0.045700
     25 H4          0.3330   -1.3460    1.8410 h1        1 NND      0.055700
     26 HA          1.8280   -3.1520    1.8100 ho        1 NND      0.425000
     27 H31         2.8590   -1.3940    3.6800 h1        1 NND      0.063700
     28 H3          1.2450   -2.4900    4.9650 ho        1 NND      0.425000
     29 H2          0.0690   -0.0840    4.1650 h1        1 NND      0.061700
     30 HB          1.3060    0.6660    5.9790 ho        1 NND      0.410000
     31 H1C1        2.8430    1.2690    3.7260 h1        1 NND      0.043200
     32 H1C2        1.2310    2.0820    3.9690 h1        1 NND      0.043200
     33 H8C1        1.3650    2.4350    0.4000 h1        1 NND      0.046200
     34 H8C2        2.9770    2.4890    1.2610 h1        1 NND      0.046200
     35 H7C1        0.3520    3.6830    2.4130 hc        1 NND      0.044700
     36 H7C2        2.0300    3.8730    3.0670 hc        1 NND      0.044700
     37 H9C1        1.0420    4.8060    0.2840 hc        1 NND      0.043700
     38 H9C2        2.7360    4.9530    0.8930 hc        1 NND      0.043700
     39 H101        1.9200    6.3380    2.8310 hc        1 NND      0.039200
     40 H102        0.2250    6.1840    2.2290 hc        1 NND      0.039200
     41 H141        0.8930    7.2870    0.0660 hc        1 NND      0.040700
     42 H142        2.5890    7.4390    0.6660 hc        1 NND      0.040700
     43 H131        1.7780    8.8220    2.6090 hc        1 NND      0.039200
     44 H132        0.0820    8.6700    2.0090 hc        1 NND      0.039200
     45 H121        2.4450    9.9240    0.4450 hc        1 NND      0.040200
     46 H122        0.7490    9.7730   -0.1550 hc        1 NND      0.040200
     47 H111        1.6340   11.3050    2.3880 hc        1 NND      0.038200
     48 H112       -0.0610   11.1530    1.7880 hc        1 NND      0.038200
     49 H161        2.2950   12.4410    0.2400 hc        1 NND      0.032700
     50 H162        0.9550   13.3210    1.0840 hc        1 NND      0.032700
     51 H163        0.5950   12.2900   -0.3620 hc        1 NND      0.032700
@<TRIPOS>BOND
     1    1    2 1   
     2    1   21 1   
     3    2    3 1   
     4    2   22 1   
     5    2   23 1   
     6    3    4 1   
     7    3    9 1   
     8    3   24 1   
     9    4    5 1   
    10    4   20 1   
    11    4   25 1   
    12    5   26 1   
    13    6   20 1   
    14    6   28 1   
    15    7    8 1   
    16    7   12 1   
    17    7   20 1   
    18    7   29 1   
    19    8   30 1   
    20    9   10 1   
    21    9   12 1   
    22   10   11 1   
    23   10   33 1   
    24   10   34 1   
    25   11   13 1   
    26   11   35 1   
    27   11   36 1   
    28   12   31 1   
    29   12   32 1   
    30   13   14 1   
    31   13   37 1   
    32   13   38 1   
    33   14   15 1   
    34   14   39 1   
    35   14   40 1   
    36   15   16 1   
    37   15   41 1   
    38   15   42 1   
    39   16   17 1   
    40   16   43 1   
    41   16   44 1   
    42   17   19 1   
    43   17   45 1   
    44   17   46 1   
    45   18   19 1   
    46   18   49 1   
    47   18   50 1   
    48   18   51 1   
    49   19   47 1   
    50   19   48 1   
    51   20   27 1   
@<TRIPOS>SUBSTRUCTURE
     1 NND         1 TEMP              0 ****  ****    0 ROOT
