@<TRIPOS>MOLECULE
NND
   51    51     1     0     0
SMALL
bcc


@<TRIPOS>ATOM
      1 O6          0.4170    0.4180   -0.5020 oh        1 NND     -0.595800
      2 C6          1.7180    0.0160   -0.1330 c3        1 NND      0.132400
      3 C5          1.9990    0.0340    1.3840 c3        1 NND      0.141500
      4 C4          1.4400   -1.2720    2.0070 c3        1 NND      0.148100
      5 O4          2.0860   -2.3460    1.3410 oh        1 NND     -0.603800
      6 O3          1.1340   -2.4980    4.0090 oh        1 NND     -0.611800
      7 C2          1.2080   -0.0690    4.1930 c3        1 NND      0.104100
      8 O2          1.6620   -0.1250    5.5380 oh        1 NND     -0.607800
      9 N1          1.4570    1.2120    2.0750 n3        1 NND     -0.723600
     10 C8          1.8540    2.4510    1.4150 c3        1 NND      0.163800
     11 C7          1.4360    3.7350    2.1270 c3        1 NND     -0.081400
     12 C1          1.7480    1.1920    3.4990 c3        1 NND      0.133800
     13 C9          1.6570    4.9220    1.2120 c3        1 NND     -0.080400
     14 C10         1.3000    6.2180    1.9060 c3        1 NND     -0.078400
     15 C14         1.5130    7.4060    0.9920 c3        1 NND     -0.079400
     16 C13         1.1560    8.7040    1.6860 c3        1 NND     -0.079400
     17 C12         1.3700    9.8910    0.7720 c3        1 NND     -0.079400
     18 C16         1.2240   12.3750    0.5580 c3        1 NND     -0.093100
     19 C11         1.0130   11.1900    1.4640 c3        1 NND     -0.080400
     20 C31         1.7560   -1.3250    3.5090 c3        1 NND      0.111100
     21 H6         -0.2030   -0.0240    0.0900 ho        1 NND      0.406000
     22 H6C1        2.3980    0.7380   -0.6620 h1        1 NND      0.058700
     23 H6C2        1.9150   -1.0240   -0.5130 h1        1 NND      0.058700
     24 H5          3.1280   -0.0110    1.4930 h1        1 NND      0.045700
     25 H4          0.3290   -1.3450    1.8490 h1        1 NND      0.055700
     26 HA          1.8230   -3.1510    1.8080 ho        1 NND      0.425000
     27 H31         2.8690   -1.3950    3.6710 h1        1 NND      0.062700
     28 H3          1.2630   -2.4900    4.9660 ho        1 NND      0.425000
     29 H2          0.0830   -0.0830    4.1750 h1        1 NND      0.061700
     30 HB          1.3330    0.6660    5.9800 ho        1 NND      0.410000
     31 H1C1        1.2440    2.0820    3.9710 h1        1 NND      0.043200
     32 H1C2        2.8540    1.2680    3.7160 h1        1 NND      0.043200
     33 H8C1        1.3540    2.4360    0.4010 h1        1 NND      0.046200
     34 H8C2        2.9720    2.4880    1.2500 h1        1 NND      0.046200
     35 H7C1        2.0390    3.8730    3.0630 hc        1 NND      0.044700
     36 H7C2        0.3550    3.6840    2.4210 hc        1 NND      0.044700
     37 H9C1        1.0320    4.8060    0.2870 hc        1 NND      0.043700
     38 H9C2        2.7300    4.9530    0.8850 hc        1 NND      0.043700
     39 H101        0.2280    6.1850    2.2370 hc        1 NND      0.039200
     40 H102        1.9270    6.3370    2.8290 hc        1 NND      0.039200
     41 H141        2.5840    7.4390    0.6610 hc        1 NND      0.040700
     42 H142        0.8850    7.2880    0.0700 hc        1 NND      0.040700
     43 H131        1.7830    8.8220    2.6090 hc        1 NND      0.039200
     44 H132        0.0850    8.6710    2.0160 hc        1 NND      0.039200
     45 H121        0.7430    9.7730   -0.1510 hc        1 NND      0.040200
     46 H122        2.4420    9.9240    0.4420 hc        1 NND      0.040200
     47 H111       -0.0590   11.1550    1.7940 hc        1 NND      0.038200
     48 H112        1.6380   11.3050    2.3880 hc        1 NND      0.038200
     49 H161        0.5910   12.2900   -0.3570 hc        1 NND      0.032700
     50 H162        0.9550   13.3210    1.0870 hc        1 NND      0.032700
     51 H163        2.2930   12.4420    0.2390 hc        1 NND      0.032700
@<TRIPOS>BOND
     1    1    2 1   
     2    1   21 1   
     3    2    3 1   
     4    2   22 1   
     5    2   23 1   
     6    3    4 1   
     7    3    9 1   
     8    3   24 1   
     9    4    5 1   
    10    4   20 1   
    11    4   25 1   
    12    5   26 1   
    13    6   20 1   
    14    6   28 1   
    15    7    8 1   
    16    7   12 1   
    17    7   20 1   
    18    7   29 1   
    19    8   30 1   
    20    9   10 1   
    21    9   12 1   
    22   10   11 1   
    23   10   33 1   
    24   10   34 1   
    25   11   13 1   
    26   11   35 1   
    27   11   36 1   
    28   12   31 1   
    29   12   32 1   
    30   13   14 1   
    31   13   37 1   
    32   13   38 1   
    33   14   15 1   
    34   14   39 1   
    35   14   40 1   
    36   15   16 1   
    37   15   41 1   
    38   15   42 1   
    39   16   17 1   
    40   16   43 1   
    41   16   44 1   
    42   17   19 1   
    43   17   45 1   
    44   17   46 1   
    45   18   19 1   
    46   18   49 1   
    47   18   50 1   
    48   18   51 1   
    49   19   47 1   
    50   19   48 1   
    51   20   27 1   
@<TRIPOS>SUBSTRUCTURE
     1 NND         1 TEMP              0 ****  ****    0 ROOT
