@<TRIPOS>MOLECULE
NND
   51    51     1     0     0
SMALL
bcc


@<TRIPOS>ATOM
      1 O6          0.4080    0.4150   -0.4920 oh        1 NND     -0.595800
      2 C6          1.7110    0.0130   -0.1280 c3        1 NND      0.132400
      3 C5          1.9970    0.0330    1.3890 c3        1 NND      0.141500
      4 C4          1.4400   -1.2710    2.0150 c3        1 NND      0.148100
      5 O4          2.0830   -2.3470    1.3490 oh        1 NND     -0.603800
      6 O3          1.1400   -2.4940    4.0210 oh        1 NND     -0.611800
      7 C2          1.2160   -0.0650    4.2010 c3        1 NND      0.104100
      8 O2          1.6750   -0.1190    5.5440 oh        1 NND     -0.607800
      9 N1          1.4580    1.2120    2.0790 n3        1 NND     -0.723600
     10 C8          1.8530    2.4500    1.4160 c3        1 NND      0.163800
     11 C7          1.4380    3.7360    2.1280 c3        1 NND     -0.081400
     12 C1          1.7540    1.1950    3.5030 c3        1 NND      0.133800
     13 C9          1.6550    4.9210    1.2100 c3        1 NND     -0.080400
     14 C10         1.3010    6.2190    1.9030 c3        1 NND     -0.078400
     15 C14         1.5100    7.4050    0.9870 c3        1 NND     -0.079400
     16 C13         1.1570    8.7030    1.6800 c3        1 NND     -0.079400
     17 C12         1.3660    9.8900    0.7630 c3        1 NND     -0.079400
     18 C16         1.2200   12.3730    0.5470 c3        1 NND     -0.093100
     19 C11         1.0130   11.1890    1.4550 c3        1 NND     -0.080400
     20 C31         1.7620   -1.3220    3.5160 c3        1 NND      0.111100
     21 H6         -0.2090   -0.0260    0.1030 ho        1 NND      0.406000
     22 H6C1        2.3890    0.7340   -0.6600 h1        1 NND      0.058700
     23 H6C2        1.9060   -1.0280   -0.5060 h1        1 NND      0.058700
     24 H5          3.1270   -0.0130    1.4930 h1        1 NND      0.045700
     25 H4          0.3280   -1.3450    1.8610 h1        1 NND      0.055700
     26 HA          1.8210   -3.1520    1.8180 ho        1 NND      0.425000
     27 H31         2.8740   -1.3920    3.6740 h1        1 NND      0.063700
     28 H3          1.2730   -2.4840    4.9780 ho        1 NND      0.425000
     29 H2          0.0910   -0.0790    4.1860 h1        1 NND      0.061700
     30 HB          1.3470    0.6730    5.9860 ho        1 NND      0.410000
     31 H1C1        2.8610    1.2710    3.7160 h1        1 NND      0.043200
     32 H1C2        1.2520    2.0860    3.9750 h1        1 NND      0.043200
     33 H8C1        1.3490    2.4340    0.4040 h1        1 NND      0.046200
     34 H8C2        2.9700    2.4870    1.2480 h1        1 NND      0.046200
     35 H7C1        0.3580    3.6860    2.4250 hc        1 NND      0.044700
     36 H7C2        2.0440    3.8740    3.0610 hc        1 NND      0.044700
     37 H9C1        1.0270    4.8040    0.2870 hc        1 NND      0.043700
     38 H9C2        2.7270    4.9510    0.8790 hc        1 NND      0.043700
     39 H101        0.2310    6.1860    2.2380 hc        1 NND      0.039200
     40 H102        1.9320    6.3390    2.8230 hc        1 NND      0.039200
     41 H141        2.5800    7.4370    0.6500 hc        1 NND      0.040700
     42 H142        0.8780    7.2850    0.0670 hc        1 NND      0.040700
     43 H131        0.0870    8.6710    2.0160 hc        1 NND      0.039200
     44 H132        1.7880    8.8230    2.5990 hc        1 NND      0.039200
     45 H121        0.7340    9.7710   -0.1560 hc        1 NND      0.040200
     46 H122        2.4360    9.9220    0.4270 hc        1 NND      0.040200
     47 H111       -0.0570   11.1550    1.7920 hc        1 NND      0.038200
     48 H112        1.6440   11.3060    2.3760 hc        1 NND      0.038200
     49 H161        0.5800   12.2870   -0.3650 hc        1 NND      0.032700
     50 H162        2.2860   12.4390    0.2210 hc        1 NND      0.032700
     51 H163        0.9540   13.3200    1.0760 hc        1 NND      0.032700
@<TRIPOS>BOND
     1    1    2 1   
     2    1   21 1   
     3    2    3 1   
     4    2   22 1   
     5    2   23 1   
     6    3    4 1   
     7    3    9 1   
     8    3   24 1   
     9    4    5 1   
    10    4   20 1   
    11    4   25 1   
    12    5   26 1   
    13    6   20 1   
    14    6   28 1   
    15    7    8 1   
    16    7   12 1   
    17    7   20 1   
    18    7   29 1   
    19    8   30 1   
    20    9   10 1   
    21    9   12 1   
    22   10   11 1   
    23   10   33 1   
    24   10   34 1   
    25   11   13 1   
    26   11   35 1   
    27   11   36 1   
    28   12   31 1   
    29   12   32 1   
    30   13   14 1   
    31   13   37 1   
    32   13   38 1   
    33   14   15 1   
    34   14   39 1   
    35   14   40 1   
    36   15   16 1   
    37   15   41 1   
    38   15   42 1   
    39   16   17 1   
    40   16   43 1   
    41   16   44 1   
    42   17   19 1   
    43   17   45 1   
    44   17   46 1   
    45   18   19 1   
    46   18   49 1   
    47   18   50 1   
    48   18   51 1   
    49   19   47 1   
    50   19   48 1   
    51   20   27 1   
@<TRIPOS>SUBSTRUCTURE
     1 NND         1 TEMP              0 ****  ****    0 ROOT
