@<TRIPOS>MOLECULE
NNF
   38    37     1     0     0
SMALL
bcc


@<TRIPOS>ATOM
      1 CAA         0.9230   -1.5330    0.7460 c3        1 NNF     -0.181000
      2 OAB         2.3370    1.5790    2.7480 o         1 NNF     -0.213000
      3 CAD         5.5310    2.4470   -9.7930 c1        1 NNF     -0.225000
      4 CAE         7.4530    0.3980   -6.0460 c1        1 NNF      0.107000
      5 CAF         5.6590    2.4340  -11.0810 c2        1 NNF     -0.118000
      6 CAG         6.6370    1.1520   -5.4630 c1        1 NNF     -0.699000
      7 CAH         1.8790    0.7440    0.3110 cx        1 NNF     -0.160000
      8 CAI         6.2070    1.2690   -2.6150 c3        1 NNF     -0.062000
      9 CAJ         4.4920    3.0320   -3.0630 c3        1 NNF     -0.138000
     10 CAK         5.8510   -0.2340   -2.6030 c3        1 NNF     -0.042000
     11 CAL         3.2700    3.3150   -3.7730 c1        1 NNF     -0.050000
     12 NAM         2.9540   -1.2680   -0.5920 n2        1 NNF     -0.190000
     13 NAN         3.0690    1.6220    0.3670 ns        1 NNF     -0.308000
     14 CAO         2.0070   -0.7350    0.0940 c2        1 NNF      0.013000
     15 CAP         5.4490    2.4190   -8.4830 c2        1 NNF      0.026000
     16 CAQ         5.7440    1.9920   -4.8900 c2        1 NNF      0.266000
     17 CAR         4.1310   -0.7810   -1.0260 c1        1 NNF     -0.052000
     18 CAS         2.3850    1.3530    1.5570 cu        1 NNF      0.280000
     19 NAT         5.4640    2.0660   -3.5720 n3        1 NNF     -0.259000
     20 NAU         4.4710   -0.5120   -2.2860 n7        1 NNF     -0.250000
     21 HAA        -0.0660   -1.2030    0.3410 hc        1 NNF      0.101333
     22 HAAA        1.0380   -2.6300    0.5690 hc        1 NNF      0.101333
     23 HAAB        0.9420   -1.3440    1.8490 hc        1 NNF      0.101333
     24 HAD         5.1110    1.7250  -11.7200 ha        1 NNF      0.132500
     25 HAE         6.1110    1.7960   -7.8440 h4        1 NNF      0.183000
     26 HAF         6.3290    3.1290  -11.6120 ha        1 NNF      0.132500
     27 HAG         5.1650    2.6930   -5.5420 h4        1 NNF      0.150000
     28 HAH         1.0110    1.1730   -0.2420 h1        1 NNF      0.164000
     29 HAI         6.0540    1.7000   -1.5860 h1        1 NNF      0.116500
     30 HAIA        7.3060    1.3320   -2.8730 h1        1 NNF      0.116500
     31 HAJ         4.1530    2.7020   -2.0250 h1        1 NNF      0.176500
     32 HAJA        5.0150    4.0330   -2.9170 h1        1 NNF      0.176500
     33 HAK         6.0850   -0.6740   -3.6160 h1        1 NNF      0.129500
     34 HAKA        6.5180   -0.7190   -1.8330 h1        1 NNF      0.129500
     35 HAL         3.8480   -0.5530   -3.0670 hn        1 NNF      0.190000
     36 HALA        3.0200    2.8000   -4.7090 ha        1 NNF      0.076000
     37 HNAN        3.9830    1.2620    0.1780 hn        1 NNF      0.212000
     38 FAC         4.5500    3.1450   -7.7740 f         1 NNF     -0.134000
@<TRIPOS>BOND
     1    1   14 1   
     2    1   21 1   
     3    1   22 1   
     4    1   23 1   
     5    2   18 1   
     6    3    5 1   
     7    3   15 1   
     8    4    6 1   
     9    5   24 1   
    10    5   26 1   
    11    6   16 1   
    12    7   13 1   
    13    7   14 1   
    14    7   18 1   
    15    7   28 1   
    16    8   10 1   
    17    8   19 1   
    18    8   29 1   
    19    8   30 1   
    20    9   11 1   
    21    9   19 1   
    22    9   31 1   
    23    9   32 1   
    24   10   20 1   
    25   10   33 1   
    26   10   34 1   
    27   11   36 1   
    28   12   14 1   
    29   12   17 1   
    30   13   18 1   
    31   13   37 1   
    32   15   25 1   
    33   15   38 1   
    34   16   19 1   
    35   16   27 1   
    36   17   20 1   
    37   20   35 1   
@<TRIPOS>SUBSTRUCTURE
     1 NNF         1 TEMP              0 ****  ****    0 ROOT
