@<TRIPOS>MOLECULE
NNF
   38    40     1     0     0
SMALL
bcc


@<TRIPOS>ATOM
      1 CAA         3.5510   -2.0500    2.0560 c3        1 NNF     -0.054900
      2 OAB         5.6810    1.7360   -0.2020 o         1 NNF     -0.628500
      3 CAD        -4.7090   -1.2370   -0.0200 ca        1 NNF     -0.142500
      4 CAE        -4.1130    0.4570    1.6170 ca        1 NNF     -0.142500
      5 CAF        -3.4820   -1.0640   -0.6430 ca        1 NNF     -0.141500
      6 CAG        -2.8810    0.6200    0.9940 ca        1 NNF     -0.141500
      7 CAH         4.7060   -0.1390    0.9600 cc        1 NNF     -0.315200
      8 CAI        -0.5480    1.2360   -0.4880 c3        1 NNF      0.152300
      9 CAJ        -0.5160   -1.1240   -1.0520 c3        1 NNF      0.152300
     10 CAK         0.6300    1.4780   -1.4570 c3        1 NNF      0.173300
     11 CAL         0.6850   -0.8730   -1.9880 c3        1 NNF      0.173300
     12 NAM         2.5020   -0.8110    0.2080 nd        1 NNF     -0.680300
     13 NAN         3.6160    1.0390   -0.8700 n         1 NNF     -0.476400
     14 CAO         3.6060   -0.9550    1.0400 cd        1 NNF      0.199400
     15 CAP        -5.0350   -0.4750    1.1160 ca        1 NNF      0.098900
     16 CAQ        -2.5390   -0.1310   -0.1510 ca        1 NNF      0.118600
     17 CAR         2.5380    0.1530   -0.7270 cc        1 NNF      0.650800
     18 CAS         4.7500    0.9270   -0.0330 c         1 NNF      0.696700
     19 NAT        -1.3300    0.0720   -0.8690 nh        1 NNF     -0.633000
     20 NAU         1.4740    0.3150   -1.6990 nh        1 NNF     -0.686600
     21 HAA         2.6750   -1.9080    2.7360 hc        1 NNF      0.059033
     22 HAAA        3.4470   -3.0430    1.5510 hc        1 NNF      0.059033
     23 HAAB        4.4860   -2.0530    2.6680 hc        1 NNF      0.059033
     24 HAD        -5.4350   -1.9650   -0.4120 ha        1 NNF      0.148500
     25 HAE        -4.3690    1.0520    2.5060 ha        1 NNF      0.148500
     26 HAF        -3.2580   -1.6600   -1.5420 ha        1 NNF      0.140000
     27 HAG        -2.1790    1.3520    1.4200 ha        1 NNF      0.140000
     28 HAH         5.5830   -0.2410    1.6100 ha        1 NNF      0.170000
     29 HAI        -0.1400    1.1450    0.5600 h1        1 NNF      0.053450
     30 HAIA       -1.2190    2.1400   -0.5290 h1        1 NNF      0.053450
     31 HAJ        -1.1540   -1.9210   -1.5250 h1        1 NNF      0.053450
     32 HAJA       -0.1390   -1.5190   -0.0650 h1        1 NNF      0.053450
     33 HAK         0.2250    1.7790   -2.4650 h1        1 NNF      0.071950
     34 HAKA        1.2380    2.3330   -1.0520 h1        1 NNF      0.071950
     35 HAL         1.3370   -1.7880   -1.9740 h1        1 NNF      0.071950
     36 HALA        0.3060   -0.7230   -3.0410 h1        1 NNF      0.071950
     37 HNAN        3.6170    1.7260   -1.5920 hn        1 NNF      0.341500
     38 FAC        -6.2350   -0.6410    1.7240 f         1 NNF     -0.141900
@<TRIPOS>BOND
     1    1   14 1   
     2    1   21 1   
     3    1   22 1   
     4    1   23 1   
     5    2   18 2   
     6    3    5 ar  
     7    3   15 ar  
     8    3   24 1   
     9    4    6 ar  
    10    4   15 ar  
    11    4   25 1   
    12    5   16 ar  
    13    5   26 1   
    14    6   16 ar  
    15    6   27 1   
    16    7   14 2   
    17    7   18 1   
    18    7   28 1   
    19    8   10 1   
    20    8   19 1   
    21    8   29 1   
    22    8   30 1   
    23    9   11 1   
    24    9   19 1   
    25    9   31 1   
    26    9   32 1   
    27   10   20 1   
    28   10   33 1   
    29   10   34 1   
    30   11   20 1   
    31   11   35 1   
    32   11   36 1   
    33   12   14 1   
    34   12   17 2   
    35   13   17 1   
    36   13   18 1   
    37   13   37 1   
    38   15   38 1   
    39   16   19 1   
    40   17   20 1   
@<TRIPOS>SUBSTRUCTURE
     1 NNF         1 TEMP              0 ****  ****    0 ROOT
