@<TRIPOS>MOLECULE
NNF
   38    35     1     0     0
SMALL
bcc


@<TRIPOS>ATOM
      1 CAA         0.3190    0.2500    0.2470 c3        1 NNF     -0.171000
      2 OAB         4.8040   -2.4010    3.1450 o         1 NNF     -0.207000
      3 CAD         8.3490    2.5140  -11.5710 c1        1 NNF     -0.214000
      4 CAE         7.5170    3.6220   -5.0840 c1        1 NNF     -0.223500
      5 CAF         5.0180    1.7400   -6.8450 c1        1 NNF     -0.256000
      6 CAG         8.3080    4.1990   -4.3960 c1        1 NNF     -0.223500
      7 CAH         2.2360   -0.4070    1.6350 c2        1 NNF     -0.113000
      8 CAI         4.8580    1.6920   -3.3980 c3        1 NNF     -0.088000
      9 CAJ         2.5880    1.6240   -4.3700 c3        1 NNF     -0.136000
     10 CAK         5.3920    0.4570   -2.6360 c3        1 NNF     -0.051000
     11 CAL         1.6500    1.2340   -5.3990 c1        1 NNF     -0.046000
     12 NAM         2.4160   -0.4070   -0.8320 n2        1 NNF     -0.261000
     13 NAN         3.5540   -0.7320    1.9170 n2        1 NNF     -0.278000
     14 CAO         1.7500   -0.1850    0.3740 c2        1 NNF      0.014000
     15 CAP         7.4290    2.3760  -10.8230 c1        1 NNF     -0.028000
     16 CAQ         4.5370    1.5850   -5.7550 c1        1 NNF     -0.096000
     17 CAR         3.6650   -0.0650   -1.0110 c2        1 NNF      0.073000
     18 CAS         4.0530   -1.6610    2.5700 c1        1 NNF      0.324000
     19 NAT         4.0150    1.3270   -4.5300 n3        1 NNF     -0.207000
     20 NAU         4.4000   -0.4550   -2.1310 n3        1 NNF     -0.286000
     21 HAA         0.2600    1.2420   -0.2650 hc        1 NNF      0.091333
     22 HAAA       -0.1590    0.3380    1.2520 hc        1 NNF      0.091333
     23 HAAB       -0.2580   -0.4930   -0.3590 hc        1 NNF      0.091333
     24 HAD         5.4330    1.8570   -7.8130 ha        1 NNF      0.240000
     25 HAE         6.8170    3.1110   -5.7010 ha        1 NNF      0.223000
     26 HAF         9.1660    2.6360  -12.2340 ha        1 NNF      0.249000
     27 HAG         9.0100    4.7100   -3.7880 ha        1 NNF      0.223000
     28 HAH         1.5720   -0.2860    2.5120 h4        1 NNF      0.138000
     29 HAI         4.2760    2.3400   -2.6820 h1        1 NNF      0.095500
     30 HAIA        5.7580    2.2820   -3.7390 h1        1 NNF      0.095500
     31 HAJ         2.2480    1.0810   -3.4280 h1        1 NNF      0.151500
     32 HAJA        2.4100    2.7320   -4.1890 h1        1 NNF      0.151500
     33 HAK         6.0620   -0.1360   -3.3210 h1        1 NNF      0.107000
     34 HAKA        6.0130    0.8430   -1.7790 h1        1 NNF      0.107000
     35 HAL         3.9030   -0.9490   -2.8460 hn        1 NNF      0.217000
     36 HALA        2.0180    0.7550   -6.3170 ha        1 NNF      0.068000
     37 HNAN        4.2690    0.5300   -0.2820 h5        1 NNF      0.141000
     38 FAC         6.4280    2.2260  -10.0110 f         1 NNF     -0.006000
@<TRIPOS>BOND
     1    1   14 1   
     2    1   21 1   
     3    1   22 1   
     4    1   23 1   
     5    2   18 1   
     6    3   15 1   
     7    3   26 1   
     8    4    6 1   
     9    4   25 1   
    10    5   16 1   
    11    5   24 1   
    12    6   27 1   
    13    7   13 1   
    14    7   14 1   
    15    7   28 1   
    16    8   10 1   
    17    8   19 1   
    18    8   29 1   
    19    8   30 1   
    20    9   11 1   
    21    9   19 1   
    22    9   31 1   
    23    9   32 1   
    24   10   20 1   
    25   10   33 1   
    26   10   34 1   
    27   11   36 1   
    28   12   14 1   
    29   12   17 1   
    30   13   18 1   
    31   15   38 1   
    32   16   19 1   
    33   17   20 1   
    34   17   37 1   
    35   20   35 1   
@<TRIPOS>SUBSTRUCTURE
     1 NNF         1 TEMP              0 ****  ****    0 ROOT
