@<TRIPOS>MOLECULE
NNF
   38    35     1     0     0
SMALL
bcc


@<TRIPOS>ATOM
      1 CAA        -2.6000   -0.4540    4.3860 c3        1 NNF     -0.177000
      2 OAB         2.2540    0.0770    5.3160 o         1 NNF     -0.355000
      3 FAC        -2.4070    1.2260   -5.8650 f         1 NNF     -0.106000
      4 CAD        -1.9880    1.2120   -3.5130 c1        1 NNF     -0.147500
      5 CAE        -0.3550    0.3510   -5.0490 c1        1 NNF     -0.146000
      6 CAF        -1.1770    0.8550   -2.4420 c1        1 NNF     -0.147500
      7 CAG         0.4550   -0.0060   -3.9810 c1        1 NNF     -0.123000
      8 CAH        -0.0520   -0.3170    4.9470 c1        1 NNF     -0.299000
      9 CAI         1.2730   -1.3570   -1.4900 c3        1 NNF     -0.059500
     10 CAJ         1.7510    0.9450   -1.1880 c3        1 NNF     -0.059500
     11 CAK         0.4320   -1.3430   -0.2020 c3        1 NNF     -0.089500
     12 CAL         0.9150    0.9630    0.0940 c3        1 NNF     -0.089500
     13 NAM        -0.8100   -0.6320    2.5640 n1        1 NNF     -0.252000
     14 NAN         1.6600   -0.2910    3.1050 n3        1 NNF     -0.320000
     15 CAO        -1.1350   -0.4950    3.9450 c1        1 NNF      0.067000
     16 CAP        -1.5720    0.9580   -4.8190 c1        1 NNF      0.069000
     17 CAQ         0.0400    0.2480   -2.6730 c1        1 NNF      0.023000
     18 CAR         0.5620   -0.4220    2.1130 c2        1 NNF      0.217000
     19 CAS         1.3550   -0.2200    4.4960 c1        1 NNF      0.337000
     20 NAT         1.3390   -0.0910   -2.1010 n3        1 NNF     -0.227000
     21 NAU         0.8460   -0.3090    0.7080 n3        1 NNF     -0.229000
     22 HAA        -2.7420   -1.1070    5.1450 hc        1 NNF      0.098667
     23 HAAA       -3.1600   -0.6950    3.6530 hc        1 NNF      0.098667
     24 HAAB       -2.8280    0.4620    4.6900 hc        1 NNF      0.098667
     25 HAD        -2.8240    1.6280   -3.3550 ha        1 NNF      0.142000
     26 HAE        -0.0660    0.1750   -5.9560 ha        1 NNF      0.150000
     27 HAF        -1.4760    1.0380   -1.5020 ha        1 NNF      0.142000
     28 HAG         1.2980   -0.4260   -4.1400 ha        1 NNF      0.144000
     29 HAH        -0.2690   -0.1800    5.8700 ha        1 NNF      0.170000
     30 HAI         0.8710   -2.0020   -2.1280 h1        1 NNF      0.108000
     31 HAIA        2.2220   -1.6630   -1.2620 h1        1 NNF      0.108000
     32 HAJ         1.6700    1.7840   -1.6210 h1        1 NNF      0.108000
     33 HAJA        2.6720    0.8040   -0.9530 h1        1 NNF      0.108000
     34 HAK        -0.5420   -1.1980   -0.4460 h1        1 NNF      0.096000
     35 HAKA        0.5220   -2.2300    0.2540 h1        1 NNF      0.096000
     36 HAL        -0.0070    1.2660   -0.1290 h1        1 NNF      0.096000
     37 HALA        1.3140    1.5980    0.7240 h1        1 NNF      0.096000
     38 HNAN        2.5590   -0.1530    2.8060 hn        1 NNF      0.252000
@<TRIPOS>BOND
     1    1   15 1   
     2    1   22 1   
     3    1   23 1   
     4    1   24 1   
     5    2   19 1   
     6    3   16 1   
     7    4    6 1   
     8    4   25 1   
     9    5   16 1   
    10    5   26 1   
    11    6   27 1   
    12    7   17 1   
    13    7   28 1   
    14    8   15 1   
    15    8   29 1   
    16    9   11 1   
    17    9   20 1   
    18    9   30 1   
    19    9   31 1   
    20   10   12 1   
    21   10   20 1   
    22   10   32 1   
    23   10   33 1   
    24   11   21 1   
    25   11   34 1   
    26   11   35 1   
    27   12   21 1   
    28   12   36 1   
    29   12   37 1   
    30   13   18 1   
    31   14   18 1   
    32   14   19 1   
    33   14   38 1   
    34   17   20 1   
    35   18   21 1   
@<TRIPOS>SUBSTRUCTURE
     1 NNF         1 TEMP              0 ****  ****    0 ROOT
