@<TRIPOS>MOLECULE
NNG
   35    35     1     0     0
SMALL
bcc


@<TRIPOS>ATOM
      1 C1          0.4260   -0.0180   -0.2710 c3        1 NNG      0.349900
      2 C2          1.9710   -0.0150   -0.0630 c3        1 NNG      0.070500
      3 C3          2.2550    0.3500    1.4010 c3        1 NNG      0.017100
      4 C4          1.5550    1.7260    1.7770 c3        1 NNG      0.384800
      5 C5          0.0430    1.3840    1.6760 c3        1 NNG      0.043100
      6 C6         -0.8600    2.5760    2.0100 c3        1 NNG      0.205400
      7 P7          3.1080   -1.4540   -2.1270 p5        1 NNG      1.229500
      8 C8          1.7240   -2.1350   -2.7920 c3        1 NNG     -0.402300
      9 N2          2.6040   -1.3110   -0.4230 ny        1 NNG     -0.735100
     10 O1         -0.1270   -1.2310    0.2140 oh        1 NNG     -0.694800
     11 O3          3.6510    0.4330    1.6070 oh        1 NNG     -0.659800
     12 O4          1.9940    2.1450    2.9360 o         1 NNG     -0.848500
     13 O5         -0.2800    1.0320    0.3090 os        1 NNG     -0.423600
     14 O6         -2.1770    2.1580    2.2090 os        1 NNG     -0.590200
     15 O71         4.1740   -2.4800   -2.0210 o         1 NNG     -0.806000
     16 O72         3.3480   -0.0980   -2.6550 o         1 NNG     -0.806000
     17 P          -2.8670    2.4490    3.6770 p5        1 NNG      1.430800
     18 O1P        -2.4510    3.8000    4.1140 o         1 NNG     -0.847500
     19 O2P        -1.9520    1.4260    4.5650 oh        1 NNG     -0.790400
     20 O3P        -4.2600    1.9600    3.6340 o         1 NNG     -0.847500
     21 H1          0.1770    0.0450   -1.3730 h2        1 NNG      0.061700
     22 H2          2.4250    0.7600   -0.7520 hx        1 NNG      0.136700
     23 H3          1.8610   -0.4630    2.0720 h1        1 NNG      0.024700
     24 H4          1.7830    2.4260    0.9060 h1        1 NNG     -0.065300
     25 H5         -0.2180    0.5160    2.3400 h1        1 NNG      0.033700
     26 H61        -0.4510    3.0770    2.9320 h1        1 NNG      0.044700
     27 H62        -0.8420    3.2960    1.1440 h1        1 NNG      0.044700
     28 H81         1.7530   -3.2480   -2.7430 hc        1 NNG      0.079367
     29 H82         1.6540   -1.8540   -3.8690 hc        1 NNG      0.079367
     30 H83         0.7670   -1.8090   -2.3220 hc        1 NNG      0.079367
     31 HN2         1.9700   -2.0570   -0.1480 hn        1 NNG      0.436800
     32 HO1        -0.7330   -1.0200    0.9380 ho        1 NNG      0.447000
     33 HO3         3.7800    1.2120    2.1790 ho        1 NNG      0.447000
     34 HO4        -1.0840    1.7710    4.7420 ho        1 NNG      0.432000
     35 H22         3.4400   -1.4040    0.1600 hn        1 NNG      0.436800
@<TRIPOS>BOND
     1    1    2 1   
     2    1   10 1   
     3    1   13 1   
     4    1   21 1   
     5    2    3 1   
     6    2    9 1   
     7    2   22 1   
     8    3    4 1   
     9    3   11 1   
    10    3   23 1   
    11    4    5 1   
    12    4   12 1   
    13    4   24 1   
    14    5    6 1   
    15    5   13 1   
    16    5   25 1   
    17    6   14 1   
    18    6   26 1   
    19    6   27 1   
    20    7    8 1   
    21    7    9 1   
    22    7   15 1   
    23    7   16 1   
    24    8   28 1   
    25    8   29 1   
    26    8   30 1   
    27    9   31 1   
    28    9   35 1   
    29   10   32 1   
    30   11   33 1   
    31   14   17 1   
    32   17   18 1   
    33   17   19 1   
    34   17   20 1   
    35   19   34 1   
@<TRIPOS>SUBSTRUCTURE
     1 NNG         1 TEMP              0 ****  ****    0 ROOT
