@<TRIPOS>MOLECULE
NNG
   35    35     1     0     0
SMALL
bcc


@<TRIPOS>ATOM
      1 C1          2.6730    0.3740    1.4420 c3        1 NNG      0.358900
      2 C2          2.3090    0.2800   -0.0860 c3        1 NNG      0.160500
      3 C3          1.2940   -0.8610   -0.3510 c3        1 NNG      0.079100
      4 C4          1.6380   -2.1420    0.4430 c3        1 NNG      0.096100
      5 C5          1.7290   -1.7450    1.9240 c3        1 NNG      0.088100
      6 C6          1.9460   -2.8440    3.0020 c3        1 NNG      0.247400
      7 P7          2.5890    2.2540   -1.7870 p5        1 NNG      1.588200
      8 C8          3.1000    3.7500   -1.2890 c3        1 NNG     -0.430300
      9 N2          1.8670    1.5490   -0.5980 n3        1 NNG     -1.009300
     10 O1          1.6750    1.0320    2.1560 oh        1 NNG     -0.713800
     11 O3          1.2180   -1.1640   -1.7410 oh        1 NNG     -0.632800
     12 O4          0.6290   -3.1160    0.2530 oh        1 NNG     -0.572800
     13 O5          2.8880   -0.8990    1.9880 os        1 NNG     -0.410600
     14 O6          1.0250   -2.7270    4.0040 os        1 NNG     -0.559200
     15 O71         3.5760    1.4970   -2.5730 o         1 NNG     -0.892300
     16 O72         1.4660    2.6820   -2.8970 oh        1 NNG     -0.803400
     17 P           1.5020   -1.7190    5.3500 p5        1 NNG      1.341900
     18 O1P         1.4590   -0.3730    4.6500 o         1 NNG     -0.931167
     19 O2P         2.8760   -2.2410    5.6560 o         1 NNG     -0.931167
     20 O3P         0.4270   -1.9700    6.3620 o         1 NNG     -0.931167
     21 H1          3.6590    0.9150    1.5460 h2        1 NNG      0.031700
     22 H2          3.2650    0.0100   -0.6300 h1        1 NNG      0.056700
     23 H3          0.2500   -0.5350   -0.0810 h1        1 NNG      0.096700
     24 H4          2.6190   -2.5570    0.0790 h1        1 NNG      0.021700
     25 H5          0.7970   -1.1730    2.1970 h1        1 NNG      0.097700
     26 H61         2.9930   -2.7430    3.4090 h1        1 NNG      0.012700
     27 H62         1.8200   -3.8350    2.4810 h1        1 NNG      0.012700
     28 H81         2.3130    4.5320   -1.4160 hc        1 NNG      0.095700
     29 H82         3.4140    3.7890   -0.2170 hc        1 NNG      0.095700
     30 H83         3.9810    4.0830   -1.8880 hc        1 NNG      0.095700
     31 HN2         1.1430    1.9370   -0.0420 hn        1 NNG      0.462800
     32 HO1         1.6020    0.6170    3.0690 ho        1 NNG      0.549000
     33 HO3         2.1040   -1.4210   -2.0230 ho        1 NNG      0.395000
     34 HO4         0.4340   -3.1180   -0.6940 ho        1 NNG      0.378000
     35 HO72        1.4290    2.1010   -3.6500 ho        1 NNG      0.456000
@<TRIPOS>BOND
     1    1    2 1   
     2    1   10 1   
     3    1   13 1   
     4    1   21 1   
     5    2    3 1   
     6    2    9 1   
     7    2   22 1   
     8    3    4 1   
     9    3   11 1   
    10    3   23 1   
    11    4    5 1   
    12    4   12 1   
    13    4   24 1   
    14    5    6 1   
    15    5   13 1   
    16    5   25 1   
    17    6   14 1   
    18    6   26 1   
    19    6   27 1   
    20    7    8 1   
    21    7    9 1   
    22    7   15 2   
    23    7   16 1   
    24    8   28 1   
    25    8   29 1   
    26    8   30 1   
    27    9   31 1   
    28   10   32 1   
    29   11   33 1   
    30   12   34 1   
    31   14   17 1   
    32   16   35 1   
    33   17   18 1   
    34   17   19 1   
    35   17   20 1   
@<TRIPOS>SUBSTRUCTURE
     1 NNG         1 TEMP              0 ****  ****    0 ROOT
