@<TRIPOS>MOLECULE
NNG
   35    35     1     0     0
SMALL
bcc


@<TRIPOS>ATOM
      1 C1          0.4230   -0.0290   -0.2900 c3        1 NNG      0.349900
      2 C2          1.9630   -0.0280   -0.0500 c3        1 NNG      0.070500
      3 C3          2.2160    0.2900    1.4300 c3        1 NNG      0.017100
      4 C4          1.5040    1.6500    1.8360 c3        1 NNG      0.384800
      5 C5         -0.0050    1.3070    1.6940 c3        1 NNG      0.043100
      6 C6         -0.9180    2.4850    2.0470 c3        1 NNG      0.205400
      7 P7          3.1480   -1.3950   -2.1360 p5        1 NNG      1.229500
      8 C8          1.7810   -2.0590   -2.8520 c3        1 NNG     -0.402300
      9 N2          2.6090   -1.3100   -0.4400 n4        1 NNG     -0.735100
     10 O1         -0.1350   -1.2600    0.1440 oh        1 NNG     -0.694800
     11 O3          3.6080    0.3690    1.6670 oh        1 NNG     -0.659800
     12 O4          1.9180    2.0330    3.0170 o         1 NNG     -0.848500
     13 O5         -0.2980    0.9990    0.3090 os        1 NNG     -0.423600
     14 O6         -2.2370    2.0570    2.2070 os        1 NNG     -0.590200
     15 O71         4.2160   -2.4200   -2.0430 o         1 NNG     -0.806000
     16 O72         3.3930   -0.0220   -2.6150 o         1 NNG     -0.806000
     17 P          -2.9570    2.2990    3.6700 p5        1 NNG      1.430800
     18 O1P        -2.5550    3.6370    4.1580 o         1 NNG     -0.847500
     19 O2P        -2.0560    1.2510    4.5420 oh        1 NNG     -0.790400
     20 O3P        -4.3470    1.8070    3.5840 o         1 NNG     -0.847500
     21 H1          0.1960    0.0690   -1.3940 h2        1 NNG      0.061700
     22 H2          2.4290    0.7700   -0.7050 hx        1 NNG      0.136700
     23 H3          1.8110   -0.5460    2.0670 h1        1 NNG      0.024700
     24 H4          1.7470    2.3790    0.9940 h1        1 NNG     -0.065300
     25 H5         -0.2750    0.4180    2.3230 h1        1 NNG      0.033700
     26 H61        -0.5300    2.9580    2.9920 h1        1 NNG      0.044700
     27 H62        -0.8860    3.2320    1.2060 h1        1 NNG      0.044700
     28 H81         0.8120   -1.7500   -2.3930 hc        1 NNG      0.079367
     29 H82         1.7320   -1.7450   -3.9210 hc        1 NNG      0.079367
     30 H83         1.8120   -3.1730   -2.8370 hc        1 NNG      0.079367
     31 HN2         1.9720   -2.0670   -0.2030 hn        1 NNG      0.436800
     32 HO1        -0.7560   -1.0740    0.8620 ho        1 NNG      0.447000
     33 HO3         3.7220    1.1300    2.2670 ho        1 NNG      0.447000
     34 HO4        -1.1920    1.5920    4.7470 ho        1 NNG      0.432000
     35 H22         3.4330   -1.4200    0.1570 hn        1 NNG      0.436800
@<TRIPOS>BOND
     1    1    2 1   
     2    1   10 1   
     3    1   13 1   
     4    1   21 1   
     5    2    3 1   
     6    2    9 1   
     7    2   22 1   
     8    3    4 1   
     9    3   11 1   
    10    3   23 1   
    11    4    5 1   
    12    4   12 1   
    13    4   24 1   
    14    5    6 1   
    15    5   13 1   
    16    5   25 1   
    17    6   14 1   
    18    6   26 1   
    19    6   27 1   
    20    7    8 1   
    21    7    9 1   
    22    7   15 1   
    23    7   16 1   
    24    8   28 1   
    25    8   29 1   
    26    8   30 1   
    27    9   31 1   
    28    9   35 1   
    29   10   32 1   
    30   11   33 1   
    31   14   17 1   
    32   17   18 1   
    33   17   19 1   
    34   17   20 1   
    35   19   34 1   
@<TRIPOS>SUBSTRUCTURE
     1 NNG         1 TEMP              0 ****  ****    0 ROOT
