@<TRIPOS>MOLECULE
NNG
   35    34     1     0     0
SMALL
bcc


@<TRIPOS>ATOM
      1 C1         -1.0520   -0.6430   -0.2680 c3        1 NNG      0.168000
      2 C2          0.4770   -0.5490   -0.4810 c3        1 NNG     -0.011000
      3 C3          1.2760   -0.7270    0.8380 c3        1 NNG     -0.078000
      4 C4          0.6840    0.5190    1.5730 c3        1 NNG      0.173000
      5 C5         -0.8270    0.4220    1.7700 c3        1 NNG     -0.048000
      6 C6         -1.4710    1.8320    1.5080 c3        1 NNG      0.029000
      7 P7          1.4510   -1.1230   -2.8750 p3        1 NNG      2.815000
      8 C8          2.4620   -2.4790   -3.5360 c2        1 NNG     -0.974000
      9 N2          0.8700   -1.5440   -1.3860 n3        1 NNG     -0.941000
     10 O1         -1.5140   -1.9870   -0.6770 oh        1 NNG     -0.365000
     11 O3          2.5540   -0.6130    0.6470 oh        1 NNG     -0.406000
     12 O4          1.2930    0.6360    2.8200 oh        1 NNG     -0.706000
     13 O5         -1.3580   -0.4520    0.9440 os        1 NNG     -0.322000
     14 O6         -2.7990    1.8360    1.9760 os        1 NNG     -0.749000
     15 O71         2.2810    0.0980   -2.7540 o         1 NNG     -1.170000
     16 O72         0.2410   -0.8420   -3.8530 oh        1 NNG     -0.845000
     17 P          -3.3460    3.1430    2.6770 p5        1 NNG      1.578500
     18 O1P        -2.8580    4.3590    1.9270 o         1 NNG     -0.733167
     19 O2P        -2.8470    3.1970    4.1010 o         1 NNG     -0.733167
     20 O3P        -4.8560    3.1220    2.6740 o         1 NNG     -0.733167
     21 H1         -1.4950    0.0310   -0.8210 h2        1 NNG      0.096000
     22 H2          0.6880    0.3260   -0.8610 h1        1 NNG      0.090000
     23 H3          1.0430   -1.5610    1.2920 h1        1 NNG      0.067000
     24 H4          0.8830    1.3190    1.0480 h1        1 NNG     -0.047000
     25 H5         -1.0150    0.1490    2.6910 h1        1 NNG      0.111000
     26 H61        -1.4630    2.0210    0.5460 h1        1 NNG      0.068000
     27 H62        -0.9560    2.5190    1.9800 h1        1 NNG      0.068000
     28 H81         2.5580   -2.3720   -4.5060 ha        1 NNG      0.141333
     29 H82         2.0250   -3.3350   -3.3440 ha        1 NNG      0.141333
     30 H83         3.3470   -2.4610   -3.1160 ha        1 NNG      0.141333
     31 HN2         0.7800   -2.4240   -1.1640 hn        1 NNG      0.237000
     32 HO1        -2.3970   -1.9790   -0.7800 ho        1 NNG      0.218000
     33 HO3         2.9880   -1.0960    1.2550 ho        1 NNG      0.240000
     34 HO4         1.8070    1.3610    2.8320 ho        1 NNG      0.229000
     35 HO72        0.5490   -0.7050   -4.6740 ho        1 NNG      0.250000
@<TRIPOS>BOND
     1    1    2 1   
     2    1   10 1   
     3    1   13 1   
     4    1   21 1   
     5    2    3 1   
     6    2    9 1   
     7    2   22 1   
     8    3    4 1   
     9    3   11 1   
    10    3   23 1   
    11    4    5 1   
    12    4   12 1   
    13    4   24 1   
    14    5    6 1   
    15    5   13 1   
    16    5   25 1   
    17    6   14 1   
    18    6   26 1   
    19    6   27 1   
    20    7    9 1   
    21    7   15 1   
    22    7   16 1   
    23    8   28 1   
    24    8   29 1   
    25    8   30 1   
    26    9   31 1   
    27   10   32 1   
    28   11   33 1   
    29   12   34 1   
    30   14   17 1   
    31   16   35 1   
    32   17   18 1   
    33   17   19 1   
    34   17   20 1   
@<TRIPOS>SUBSTRUCTURE
     1 NNG         1 TEMP              0 ****  ****    0 ROOT
