@<TRIPOS>MOLECULE
NNG
   35    35     1     0     0
SMALL
bcc


@<TRIPOS>ATOM
      1 C1         -0.2790   -0.0120   -0.4750 c3        1 NNG      0.347900
      2 C2          1.2820   -0.0110   -0.4570 c3        1 NNG      0.167500
      3 C3          1.7200    0.1940    1.0040 c3        1 NNG      0.025100
      4 C4          1.1070    1.5460    1.5540 c3        1 NNG      0.369800
      5 C5         -0.4270    1.3260    1.5420 c3        1 NNG      0.042100
      6 C6         -1.1900    2.5850    1.9840 c3        1 NNG      0.199400
      7 P7          2.9530   -1.1010   -2.1620 p5        1 NNG      1.588200
      8 C8          3.2360   -2.6690   -2.6680 c3        1 NNG     -0.406300
      9 N2          1.8050   -1.1910   -1.0970 n3        1 NNG     -1.018300
     10 O1         -0.8060   -1.2200    0.0430 oh        1 NNG     -0.663800
     11 O3          3.1340    0.2560    1.1040 oh        1 NNG     -0.681800
     12 O4          1.6330    1.8370    2.7220 o         1 NNG     -0.861500
     13 O5         -0.8920    1.0450    0.2010 os        1 NNG     -0.445600
     14 O6         -2.1620    2.2590    2.9290 os        1 NNG     -0.591200
     15 O71         2.8080   -0.1750   -3.2930 o         1 NNG     -0.875300
     16 O72         4.3480   -0.7740   -1.4010 oh        1 NNG     -0.816400
     17 P          -1.9970    2.9340    4.4340 p5        1 NNG      1.437800
     18 O1P        -3.1560    2.5070    5.2470 o         1 NNG     -0.855000
     19 O2P        -1.6240    4.3530    4.2280 o         1 NNG     -0.855000
     20 O3P        -0.6800    2.1120    4.9060 oh        1 NNG     -0.810400
     21 H1         -0.6570    0.0470   -1.5370 h2        1 NNG      0.064700
     22 H2          1.6260    0.8780   -1.0660 h1        1 NNG      0.068700
     23 H3          1.3740   -0.6730    1.6300 h1        1 NNG      0.018700
     24 H4          1.3260    2.3210    0.7430 h1        1 NNG     -0.073300
     25 H5         -0.7060    0.4670    2.2090 h1        1 NNG      0.037700
     26 H61        -0.4590    3.3280    2.4120 h1        1 NNG      0.039700
     27 H62        -1.7010    3.0360    1.0860 h1        1 NNG      0.039700
     28 H81         2.3400   -3.1400   -3.1310 hc        1 NNG      0.081033
     29 H82         3.5790   -3.3390   -1.8460 hc        1 NNG      0.081033
     30 H83         4.0400   -2.6730   -3.4410 hc        1 NNG      0.081033
     31 HN2         1.4240   -2.0230   -0.7240 hn        1 NNG      0.437800
     32 HO1        -0.8110   -1.1520    1.0060 ho        1 NNG      0.421000
     33 HO3         3.3080    0.9210    1.7970 ho        1 NNG      0.448000
     34 HO4         0.0580    2.1260    4.2930 ho        1 NNG      0.471000
     35 HO72        4.3080   -0.2400   -0.6070 ho        1 NNG      0.490000
@<TRIPOS>BOND
     1    1    2 1   
     2    1   10 1   
     3    1   13 1   
     4    1   21 1   
     5    2    3 1   
     6    2    9 1   
     7    2   22 1   
     8    3    4 1   
     9    3   11 1   
    10    3   23 1   
    11    4    5 1   
    12    4   12 1   
    13    4   24 1   
    14    5    6 1   
    15    5   13 1   
    16    5   25 1   
    17    6   14 1   
    18    6   26 1   
    19    6   27 1   
    20    7    8 1   
    21    7    9 1   
    22    7   15 2   
    23    7   16 1   
    24    8   28 1   
    25    8   29 1   
    26    8   30 1   
    27    9   31 1   
    28   10   32 1   
    29   11   33 1   
    30   14   17 1   
    31   16   35 1   
    32   17   18 1   
    33   17   19 1   
    34   17   20 1   
    35   20   34 1   
@<TRIPOS>SUBSTRUCTURE
     1 NNG         1 TEMP              0 ****  ****    0 ROOT
