@<TRIPOS>MOLECULE
NNH
   23    22     1     0     0
SMALL
bcc


@<TRIPOS>ATOM
      1 N           1.8280   -0.4720    2.0670 n3        1 NNH     -0.890800
      2 CA          0.5390    0.2080    2.0880 c3        1 NNH      0.019500
      3 C          -0.2910   -0.0250    3.3970 c         1 NNH      0.887600
      4 O           0.2450   -0.6960    4.3240 o         1 NNH     -0.841300
      5 CB         -0.3520   -0.1490    0.8990 c3        1 NNH     -0.076400
      6 CG          0.2500    0.3400   -0.4170 c3        1 NNH      0.184800
      7 ND         -0.6360    0.0930   -1.5460 nh        1 NNH     -0.791200
      8 CE         -0.1050    0.2000   -2.8590 c2        1 NNH      0.692100
      9 NH1        -0.9780   -0.4440   -3.8900 nh        1 NNH     -0.583700
     10 NH2         1.0220    0.8150   -3.1050 n2        1 NNH     -0.844100
     11 OH1        -0.6280   -0.0860   -5.1320 oh        1 NNH     -0.423300
     12 OXT        -1.4420    0.4880    3.4570 o         1 NNH     -0.841300
     13 H           2.2640   -0.3060    2.9600 hn        1 NNH      0.331300
     14 H2          1.6630   -1.4620    2.0190 hn        1 NNH      0.331300
     15 HA          0.7590    1.3150    2.0450 h1        1 NNH      0.045700
     16 HB2        -0.5130   -1.2580    0.8610 hc        1 NNH      0.051700
     17 HB3        -1.3500    0.3350    1.0820 hc        1 NNH      0.051700
     18 HG2         0.4200    1.4520   -0.3650 h1        1 NNH      0.056700
     19 HG3         1.2550   -0.1490   -0.5710 h1        1 NNH      0.056700
     20 HD         -1.1970   -0.7260   -1.4140 hn        1 NNH      0.394800
     21 HH1        -1.9340   -0.1140   -3.7580 hn        1 NNH      0.386800
     22 HH2         1.2250    0.9350   -4.0750 hn        1 NNH      0.382400
     23 HO1        -0.0910   -0.8320   -5.4630 ho        1 NNH      0.420000
@<TRIPOS>BOND
     1    1    2 1   
     2    1   13 1   
     3    1   14 1   
     4    2    3 1   
     5    2    5 1   
     6    2   15 1   
     7    3    4 1   
     8    3   12 1   
     9    5    6 1   
    10    5   16 1   
    11    5   17 1   
    12    6    7 1   
    13    6   18 1   
    14    6   19 1   
    15    7    8 1   
    16    7   20 1   
    17    8    9 1   
    18    8   10 2   
    19    9   11 1   
    20    9   21 1   
    21   10   22 1   
    22   11   23 1   
@<TRIPOS>SUBSTRUCTURE
     1 NNH         1 TEMP              0 ****  ****    0 ROOT
