@<TRIPOS>MOLECULE
NNI
   38    40     1     0     0
SMALL
bcc


@<TRIPOS>ATOM
      1 C13         0.9360   -0.5450    0.7460 ca        1 NNI     -0.095000
      2 C14         1.7950   -1.5580    1.1650 ca        1 NNI     -0.082000
      3 C15         1.4980   -2.3220    2.2960 ca        1 NNI      0.061900
      4 I15         2.7520   -3.7890    2.8850 i         1 NNI     -0.058900
      5 C16         0.3310   -2.0670    3.0190 ca        1 NNI     -0.082000
      6 C17        -0.5450   -1.0590    2.6220 ca        1 NNI     -0.095000
      7 C12        -0.2380   -0.2960    1.4810 ca        1 NNI     -0.037400
      8 N2         -1.1210    0.7930    1.0640 n4        1 NNI     -0.490200
      9 C11        -2.1820    0.3820    0.0740 c         1 NNI      0.310500
     10 S1         -2.6450   -1.0490   -0.1840 s         1 NNI     -0.068400
     11 O3         -2.5920    1.5950   -0.4180 os        1 NNI     -0.385900
     12 C10        -3.2370    1.5990   -1.7080 c3        1 NNI      0.110400
     13 C9         -2.2090    1.4970   -2.8410 c3        1 NNI      0.073000
     14 N1         -1.2900    2.5870   -2.9390 n         1 NNI     -0.534400
     15 C8         -0.1030    2.7290   -2.1830 c         1 NNI      0.746100
     16 O2          0.2220    1.9770   -1.2480 o         1 NNI     -0.608500
     17 C2          0.6200    3.9210   -2.7150 ca        1 NNI     -0.147600
     18 C3          1.8170    4.4940   -2.3490 ca        1 NNI     -0.047500
     19 C4          2.2420    5.6360   -3.0590 ca        1 NNI     -0.102500
     20 C5          1.4810    6.1660   -4.0920 ca        1 NNI     -0.102500
     21 C6          0.2540    5.5810   -4.4710 ca        1 NNI     -0.047500
     22 C1         -0.1620    4.4660   -3.7790 ca        1 NNI     -0.147600
     23 C7         -1.3820    3.6210   -3.9370 c         1 NNI      0.746100
     24 O1         -2.3200    3.7170   -4.7250 o         1 NNI     -0.608500
     25 H13         1.1860    0.0550   -0.1480 ha        1 NNI      0.168500
     26 H14         2.7160   -1.7470    0.5860 ha        1 NNI      0.177000
     27 H16         0.0840   -2.6630    3.9160 ha        1 NNI      0.177000
     28 H17        -1.4610   -0.8780    3.2070 ha        1 NNI      0.168500
     29 H2         -1.5860    1.1930    1.8890 hn        1 NNI      0.477800
     30 H101       -3.7750    2.5870   -1.6950 h1        1 NNI      0.107700
     31 H102       -3.9650    0.7460   -1.7760 h1        1 NNI      0.107700
     32 H9C1       -2.7940    1.4410   -3.8090 h1        1 NNI      0.090700
     33 H9C2       -1.6240    0.5410   -2.7100 h1        1 NNI      0.090700
     34 H6         -0.3440    6.0050   -5.2940 ha        1 NNI      0.166000
     35 H5          1.8340    7.0600   -4.6340 ha        1 NNI      0.160500
     36 H4          3.1990    6.1100   -2.7830 ha        1 NNI      0.160500
     37 H3          2.4300    4.0800   -1.5350 ha        1 NNI      0.166000
     38 H22        -0.5460    1.5390    0.6230 hn        1 NNI      0.477800
@<TRIPOS>BOND
     1    1    2 ar  
     2    1    7 ar  
     3    1   25 1   
     4    2    3 ar  
     5    2   26 1   
     6    3    4 1   
     7    3    5 ar  
     8    5    6 ar  
     9    5   27 1   
    10    6    7 ar  
    11    6   28 1   
    12    7    8 1   
    13    8    9 1   
    14    8   29 1   
    15    8   38 1   
    16    9   10 2   
    17    9   11 1   
    18   11   12 1   
    19   12   13 1   
    20   12   30 1   
    21   12   31 1   
    22   13   14 1   
    23   13   32 1   
    24   13   33 1   
    25   14   15 1   
    26   14   23 1   
    27   15   16 2   
    28   15   17 1   
    29   17   18 ar  
    30   17   22 ar  
    31   18   19 ar  
    32   18   37 1   
    33   19   20 ar  
    34   19   36 1   
    35   20   21 ar  
    36   20   35 1   
    37   21   22 ar  
    38   21   34 1   
    39   22   23 1   
    40   23   24 2   
@<TRIPOS>SUBSTRUCTURE
     1 NNI         1 TEMP              0 ****  ****    0 ROOT
