@<TRIPOS>MOLECULE
NNI
   37    39     1     0     0
SMALL
bcc


@<TRIPOS>ATOM
      1 C13        10.4360   65.3160   61.9000 ca        1 NNI     -0.156000
      2 C14         9.8190   66.2130   61.0320 ca        1 NNI     -0.074000
      3 C15         8.4960   66.6020   61.2280 ca        1 NNI      0.001900
      4 I15         7.6140   67.9030   59.9610 i         1 NNI     -0.140900
      5 C16         7.7830   66.0850   62.3110 ca        1 NNI     -0.074000
      6 C17         8.3790   65.1840   63.1860 ca        1 NNI     -0.156000
      7 C12         9.7220   64.7790   62.9900 ca        1 NNI      0.062600
      8 N2         10.2900   63.8910   63.9220 n         1 NNI     -0.405100
      9 C11        11.3320   63.0130   63.7660 c         1 NNI      0.591500
     10 S1         11.8470   62.0720   64.9610 s         1 NNI     -0.541400
     11 O3         11.8590   63.0460   62.4920 os        1 NNI     -0.387900
     12 C10        12.9430   62.1310   62.2430 c3        1 NNI      0.095400
     13 C9         13.8160   62.7760   61.1600 c3        1 NNI      0.099000
     14 N1         13.2870   62.7300   59.8310 n         1 NNI     -0.526400
     15 C8         12.7170   63.8420   59.1460 c         1 NNI      0.727600
     16 O2         12.6610   64.9900   59.5940 o         1 NNI     -0.572500
     17 C2         12.2440   63.3310   57.8200 ca        1 NNI     -0.139100
     18 C3         11.6340   63.9790   56.7690 ca        1 NNI     -0.060500
     19 C4         11.2990   63.2150   55.6330 ca        1 NNI     -0.116000
     20 C5         11.5750   61.8550   55.5750 ca        1 NNI     -0.116000
     21 C6         12.2000   61.1900   56.6500 ca        1 NNI     -0.060500
     22 C1         12.5270   61.9360   57.7610 ca        1 NNI     -0.139100
     23 C7         13.1830   61.5440   59.0480 c         1 NNI      0.727600
     24 O1         13.5800   60.4330   59.4050 o         1 NNI     -0.572500
     25 H13        11.4870   65.0380   61.7070 ha        1 NNI      0.156500
     26 H14        10.4080   66.6070   60.1870 ha        1 NNI      0.152500
     27 H16         6.7360   66.3830   62.4850 ha        1 NNI      0.152500
     28 H17         7.7920   64.7910   64.0300 ha        1 NNI      0.156500
     29 H2          9.8360   63.8380   64.8150 hn        1 NNI      0.352500
     30 H101       13.5470   61.9740   63.1800 h1        1 NNI      0.091200
     31 H102       12.4950   61.1570   61.9110 h1        1 NNI      0.091200
     32 H9C1       13.9910   63.8590   61.4260 h1        1 NNI      0.083700
     33 H9C2       14.7990   62.2190   61.1670 h1        1 NNI      0.083700
     34 H6         12.4160   60.1130   56.5990 ha        1 NNI      0.160500
     35 H5         11.3040   61.2780   54.6780 ha        1 NNI      0.146000
     36 H4         10.8090   63.7120   54.7820 ha        1 NNI      0.146000
     37 H3         11.4120   65.0560   56.8090 ha        1 NNI      0.160500
@<TRIPOS>BOND
     1    1    2 ar  
     2    1    7 ar  
     3    1   25 1   
     4    2    3 ar  
     5    2   26 1   
     6    3    4 1   
     7    3    5 ar  
     8    5    6 ar  
     9    5   27 1   
    10    6    7 ar  
    11    6   28 1   
    12    7    8 1   
    13    8    9 1   
    14    8   29 1   
    15    9   10 2   
    16    9   11 1   
    17   11   12 1   
    18   12   13 1   
    19   12   30 1   
    20   12   31 1   
    21   13   14 1   
    22   13   32 1   
    23   13   33 1   
    24   14   15 1   
    25   14   23 1   
    26   15   16 2   
    27   15   17 1   
    28   17   18 ar  
    29   17   22 ar  
    30   18   19 ar  
    31   18   37 1   
    32   19   20 ar  
    33   19   36 1   
    34   20   21 ar  
    35   20   35 1   
    36   21   22 ar  
    37   21   34 1   
    38   22   23 1   
    39   23   24 2   
@<TRIPOS>SUBSTRUCTURE
     1 NNI         1 TEMP              0 ****  ****    0 ROOT
