@<TRIPOS>MOLECULE
NNI
   37    39     1     0     0
SMALL
bcc


@<TRIPOS>ATOM
      1 C13         0.0070   -0.3430    0.2050 ca        1 NNI     -0.156000
      2 C14         1.3910   -0.4300    0.3410 ca        1 NNI     -0.074000
      3 C15         1.9780   -0.5870    1.5940 ca        1 NNI      0.001900
      4 I15         3.9840   -0.7110    1.7750 i         1 NNI     -0.140900
      5 C16         1.1650   -0.6580    2.7270 ca        1 NNI     -0.074000
      6 C17        -0.2170   -0.5680    2.6140 ca        1 NNI     -0.156000
      7 C12        -0.8210   -0.4040    1.3430 ca        1 NNI      0.062600
      8 N2         -2.2260   -0.3500    1.2790 ns        1 NNI     -0.405100
      9 C11        -3.0330    0.2270    0.3320 c         1 NNI      0.591500
     10 S1         -4.6360    0.1800    0.4280 s         1 NNI     -0.541400
     11 O3         -2.3110    0.8300   -0.6770 os        1 NNI     -0.387900
     12 C10        -3.0910    1.4820   -1.6960 c3        1 NNI      0.095400
     13 C9         -2.2610    1.4200   -2.9840 c3        1 NNI      0.099000
     14 N1         -1.1560    2.3280   -3.0510 n         1 NNI     -0.526400
     15 C8          0.2100    1.9550   -2.8980 c         1 NNI      0.727600
     16 O2          0.6100    0.7990   -2.7460 o         1 NNI     -0.572500
     17 C2          1.0110    3.2180   -2.9810 ca        1 NNI     -0.139100
     18 C3          2.3690    3.4320   -2.9100 ca        1 NNI     -0.060500
     19 C4          2.8300    4.7590   -3.0200 ca        1 NNI     -0.116000
     20 C5          1.9460    5.8160   -3.1960 ca        1 NNI     -0.116000
     21 C6          0.5550    5.5980   -3.2690 ca        1 NNI     -0.060500
     22 C1          0.1030    4.3020   -3.1600 ca        1 NNI     -0.139100
     23 C7         -1.2840    3.7400   -3.1940 c         1 NNI      0.727600
     24 O1         -2.3550    4.3360   -3.3250 o         1 NNI     -0.572500
     25 H13        -0.4140   -0.2220   -0.8080 ha        1 NNI      0.156500
     26 H14         2.0070   -0.3730   -0.5730 ha        1 NNI      0.152500
     27 H16         1.6110   -0.7850    3.7270 ha        1 NNI      0.152500
     28 H17        -0.8330   -0.6260    3.5250 ha        1 NNI      0.156500
     29 H2         -2.7190   -0.7320    2.0650 hn        1 NNI      0.352500
     30 H101       -4.0700    0.9460   -1.8450 h1        1 NNI      0.091200
     31 H102       -3.2810    2.5340   -1.3570 h1        1 NNI      0.091200
     32 H9C1       -2.9660    1.6610   -3.8320 h1        1 NNI      0.083700
     33 H9C2       -1.8580    0.3740   -3.1110 h1        1 NNI      0.083700
     34 H6         -0.1410    6.4390   -3.4080 ha        1 NNI      0.160500
     35 H5          2.3290    6.8450   -3.2790 ha        1 NNI      0.146000
     36 H4          3.9130    4.9530   -2.9650 ha        1 NNI      0.146000
     37 H3          3.0750    2.5990   -2.7710 ha        1 NNI      0.160500
@<TRIPOS>BOND
     1    1    2 ar  
     2    1    7 ar  
     3    1   25 1   
     4    2    3 ar  
     5    2   26 1   
     6    3    4 1   
     7    3    5 ar  
     8    5    6 ar  
     9    5   27 1   
    10    6    7 ar  
    11    6   28 1   
    12    7    8 1   
    13    8    9 1   
    14    8   29 1   
    15    9   10 2   
    16    9   11 1   
    17   11   12 1   
    18   12   13 1   
    19   12   30 1   
    20   12   31 1   
    21   13   14 1   
    22   13   32 1   
    23   13   33 1   
    24   14   15 1   
    25   14   23 1   
    26   15   16 2   
    27   15   17 1   
    28   17   18 ar  
    29   17   22 ar  
    30   18   19 ar  
    31   18   37 1   
    32   19   20 ar  
    33   19   36 1   
    34   20   21 ar  
    35   20   35 1   
    36   21   22 ar  
    37   21   34 1   
    38   22   23 1   
    39   23   24 2   
@<TRIPOS>SUBSTRUCTURE
     1 NNI         1 TEMP              0 ****  ****    0 ROOT
