@<TRIPOS>MOLECULE
NNI
   37    32     1     0     0
SMALL
bcc


@<TRIPOS>ATOM
      1 C13         4.1550   -2.8800    2.1420 c1        1 NNI     -0.175000
      2 C14         5.1400   -2.5400    3.0600 c1        1 NNI     -0.074000
      3 C15         4.8030   -1.8440    4.2190 c1        1 NNI     -0.284000
      4 I15         6.3060   -1.2850    5.5870 i         1 NNI      0.149000
      5 C16         3.4810   -1.4900    4.4570 c2        1 NNI     -0.070000
      6 C17         2.4930   -1.8290    3.5390 c1        1 NNI     -0.159000
      7 C12         2.8290   -2.5250    2.3790 c1        1 NNI      0.079000
      8 N2          1.7780   -3.0280    1.5070 n         1 NNI     -0.249000
      9 C11         0.5790   -2.2550    1.3030 c2        1 NNI      0.137000
     10 S1         -0.1060   -1.4100    2.5890 s         1 NNI     -0.208000
     11 O3         -0.0670   -2.2630    0.0280 os        1 NNI     -0.250000
     12 C10        -0.7940   -1.0540   -0.2650 c3        1 NNI     -0.051000
     13 C9         -0.6790   -0.7360   -1.7600 c3        1 NNI     -0.035000
     14 N1         -1.4510    0.4610   -2.0610 n         1 NNI     -0.354000
     15 C8         -0.9750    1.8110   -1.9880 c2        1 NNI      0.362000
     16 O2          0.1270    2.1540   -1.6550 o         1 NNI     -0.283000
     17 C2         -2.1230    2.7410   -2.3940 c1        1 NNI     -0.118000
     18 C3         -2.2220    4.1300   -2.4490 c1        1 NNI     -0.088750
     19 C4         -3.4270    4.7290   -2.8030 c1        1 NNI     -0.088750
     20 C5         -4.5260    3.9450   -3.1020 c1        1 NNI     -0.088750
     21 C6         -4.4280    2.5620   -3.0480 c1        1 NNI     -0.088750
     22 C1         -3.2180    1.9600   -2.6920 c1        1 NNI     -0.120000
     23 C7         -2.8240    0.4960   -2.4880 c1        1 NNI      0.360000
     24 O1         -3.5390   -0.4700   -2.6770 o         1 NNI     -0.297000
     25 H13         4.3920   -3.3670    1.3300 ha        1 NNI      0.138000
     26 H14         6.0650   -2.7880    2.8930 ha        1 NNI      0.147000
     27 H16         3.2450   -1.0020    5.2710 ha        1 NNI      0.151000
     28 H17         1.5660   -1.5800    3.7060 ha        1 NNI      0.194000
     29 H2          1.8700   -3.8410    1.1040 hn        1 NNI      0.249000
     30 H101       -0.4210   -0.3180    0.2540 h1        1 NNI      0.137000
     31 H102       -1.7450   -1.1760   -0.0270 h1        1 NNI      0.137000
     32 H9C1        0.2580   -0.5850   -1.9890 h1        1 NNI      0.116000
     33 H9C2       -1.0270   -1.4900   -2.2830 h1        1 NNI      0.116000
     34 H6         -5.2010    2.0110   -3.2580 ha        1 NNI      0.152750
     35 H5         -5.3710    4.3650   -3.3510 ha        1 NNI      0.152750
     36 H4         -3.4960    5.7100   -2.8420 ha        1 NNI      0.152750
     37 H3         -1.4450    4.6840   -2.2380 ha        1 NNI      0.152750
@<TRIPOS>BOND
     1    1    7 1   
     2    1   25 1   
     3    2    3 1   
     4    2   26 1   
     5    3    5 1   
     6    5    6 1   
     7    5   27 1   
     8    6   28 1   
     9    7    8 1   
    10    8    9 1   
    11    8   29 1   
    12    9   10 1   
    13    9   11 1   
    14   11   12 1   
    15   12   13 1   
    16   12   30 1   
    17   12   31 1   
    18   13   14 1   
    19   13   32 1   
    20   13   33 1   
    21   14   15 1   
    22   14   23 1   
    23   15   16 1   
    24   15   17 1   
    25   17   22 1   
    26   18   19 1   
    27   18   37 1   
    28   19   36 1   
    29   20   21 1   
    30   20   35 1   
    31   21   34 1   
    32   23   24 1   
@<TRIPOS>SUBSTRUCTURE
     1 NNI         1 TEMP              0 ****  ****    0 ROOT
