@<TRIPOS>MOLECULE
NNI
   37    39     1     0     0
SMALL
bcc


@<TRIPOS>ATOM
      1 C13         0.0130   -0.3390    0.2120 ca        1 NNI     -0.156000
      2 C14         1.3970   -0.4230    0.3430 ca        1 NNI     -0.074000
      3 C15         1.9880   -0.5740    1.5960 ca        1 NNI      0.001900
      4 I15         3.9950   -0.6940    1.7710 i         1 NNI     -0.140900
      5 C16         1.1790   -0.6420    2.7310 ca        1 NNI     -0.074000
      6 C17        -0.2040   -0.5540    2.6210 ca        1 NNI     -0.156000
      7 C12        -0.8120   -0.3960    1.3520 ca        1 NNI      0.062600
      8 N2         -2.2170   -0.3450    1.2910 n         1 NNI     -0.405100
      9 C11        -3.0280    0.2280    0.3440 c         1 NNI      0.591500
     10 S1         -4.6300    0.1800    0.4460 s         1 NNI     -0.541400
     11 O3         -2.3090    0.8290   -0.6680 os        1 NNI     -0.387900
     12 C10        -3.0930    1.4760   -1.6880 c3        1 NNI      0.095400
     13 C9         -2.2660    1.4110   -2.9780 c3        1 NNI      0.099000
     14 N1         -1.1620    2.3200   -3.0500 n         1 NNI     -0.526400
     15 C8          0.2040    1.9490   -2.9010 c         1 NNI      0.727600
     16 O2          0.6070    0.7930   -2.7450 o         1 NNI     -0.572500
     17 C2          1.0040    3.2130   -2.9890 ca        1 NNI     -0.139100
     18 C3          2.3620    3.4280   -2.9220 ca        1 NNI     -0.060500
     19 C4          2.8220    4.7550   -3.0380 ca        1 NNI     -0.116000
     20 C5          1.9350    5.8100   -3.2150 ca        1 NNI     -0.116000
     21 C6          0.5450    5.5910   -3.2840 ca        1 NNI     -0.060500
     22 C1          0.0950    4.2950   -3.1700 ca        1 NNI     -0.139100
     23 C7         -1.2920    3.7310   -3.1980 c         1 NNI      0.727600
     24 O1         -2.3640    4.3260   -3.3280 o         1 NNI     -0.572500
     25 H13        -0.4110   -0.2220   -0.8010 ha        1 NNI      0.156500
     26 H14         2.0110   -0.3690   -0.5730 ha        1 NNI      0.152500
     27 H16         1.6270   -0.7640    3.7300 ha        1 NNI      0.152500
     28 H17        -0.8170   -0.6090    3.5340 ha        1 NNI      0.156500
     29 H2         -2.7080   -0.7250    2.0800 hn        1 NNI      0.352500
     30 H101       -4.0710    0.9380   -1.8320 h1        1 NNI      0.091200
     31 H102       -3.2830    2.5290   -1.3510 h1        1 NNI      0.091200
     32 H9C1       -2.9740    1.6490   -3.8250 h1        1 NNI      0.083700
     33 H9C2       -1.8620    0.3650   -3.1030 h1        1 NNI      0.083700
     34 H6         -0.1530    6.4310   -3.4240 ha        1 NNI      0.160500
     35 H5          2.3180    6.8390   -3.3020 ha        1 NNI      0.146000
     36 H4          3.9040    4.9510   -2.9860 ha        1 NNI      0.146000
     37 H3          3.0690    2.5970   -2.7820 ha        1 NNI      0.160500
@<TRIPOS>BOND
     1    1    2 ar  
     2    1    7 ar  
     3    1   25 1   
     4    2    3 ar  
     5    2   26 1   
     6    3    4 1   
     7    3    5 ar  
     8    5    6 ar  
     9    5   27 1   
    10    6    7 ar  
    11    6   28 1   
    12    7    8 1   
    13    8    9 1   
    14    8   29 1   
    15    9   10 2   
    16    9   11 1   
    17   11   12 1   
    18   12   13 1   
    19   12   30 1   
    20   12   31 1   
    21   13   14 1   
    22   13   32 1   
    23   13   33 1   
    24   14   15 1   
    25   14   23 1   
    26   15   16 2   
    27   15   17 1   
    28   17   18 ar  
    29   17   22 ar  
    30   18   19 ar  
    31   18   37 1   
    32   19   20 ar  
    33   19   36 1   
    34   20   21 ar  
    35   20   35 1   
    36   21   22 ar  
    37   21   34 1   
    38   22   23 1   
    39   23   24 2   
@<TRIPOS>SUBSTRUCTURE
     1 NNI         1 TEMP              0 ****  ****    0 ROOT
