@<TRIPOS>MOLECULE
NNJ
   20    18     1     0     0
SMALL
bcc


@<TRIPOS>ATOM
      1 C12        -2.2440   -0.1550   -0.4030 c3        1 NNJ     -0.033000
      2 C13        -0.7310   -0.1550   -0.4030 c2        1 NNJ     -0.073000
      3 C17        -0.0380   -0.1550    0.7970 c2        1 NNJ     -0.027000
      4 C18         2.1110   -0.2140    1.9830 c3        1 NNJ     -0.132000
      5 C19         2.0080   -0.1550   -0.3810 c1        1 NNJ     -0.076000
      6 C20         1.3170   -0.1550   -1.5830 c1        1 NNJ     -0.076000
      7 C21        -0.0480   -0.1550   -1.5850 c1        1 NNJ      0.010000
      8 N26        -2.7190    1.1760   -0.5950 n3        1 NNJ     -0.374000
      9 N27         1.3240   -0.1550    0.7980 n2        1 NNJ     -0.030000
     10 H12        -2.5690   -0.7240   -1.1270 h1        1 NNJ      0.102000
     11 H12A       -2.5690   -0.4970    0.4510 h1        1 NNJ      0.102000
     12 H17        -0.5260   -0.1660    1.6420 h4        1 NNJ      0.205000
     13 H18         2.8130    0.4630    1.9420 h1        1 NNJ      0.140000
     14 H18A        2.5160   -1.0980    2.0620 h1        1 NNJ      0.140000
     15 H18B        1.5430   -0.0460    2.7590 h1        1 NNJ      0.140000
     16 H19         2.9840   -0.1550   -0.3790 ha        1 NNJ      0.204000
     17 H20         1.8070   -0.1550   -2.4270 ha        1 NNJ      0.204000
     18 H21        -0.5350   -0.1550   -2.4310 ha        1 NNJ      0.209000
     19 HN26       -3.1320    1.4630    0.1660 hn        1 NNJ      0.182000
     20 HN2A       -3.3130    1.1900   -1.2870 hn        1 NNJ      0.182000
@<TRIPOS>BOND
     1    1    2 1   
     2    1    8 1   
     3    1   10 1   
     4    1   11 1   
     5    2    3 1   
     6    2    7 1   
     7    3    9 1   
     8    3   12 1   
     9    4    9 1   
    10    4   13 1   
    11    4   14 1   
    12    4   15 1   
    13    5    6 1   
    14    5   16 1   
    15    6   17 1   
    16    7   18 1   
    17    8   19 1   
    18    8   20 1   
@<TRIPOS>SUBSTRUCTURE
     1 NNJ         1 TEMP              0 ****  ****    0 ROOT
