@<TRIPOS>MOLECULE
NNJ
   21    20     1     0     0
SMALL
bcc


@<TRIPOS>ATOM
      1 C12        -0.0380    0.2110    0.1400 c3        1 NNJ     -0.060000
      2 C13         1.4200    0.4760    0.0390 c2        1 NNJ     -0.217000
      3 C17         2.2740    0.4590    1.2190 c2        1 NNJ      0.158000
      4 C19         4.2400   -0.1370   -0.2010 c3        1 NNJ     -0.042000
      5 C20         3.4800    0.5590   -1.3130 c2        1 NNJ     -0.016000
      6 C21         2.1760    0.5180   -1.0770 c1        1 NNJ      0.009000
      7 N26        -0.8520    1.0290   -0.8070 n4        1 NNJ     -0.067000
      8 N27         3.5720    0.0770    1.1270 n3        1 NNJ     -0.159000
      9 H12        -0.4090    0.4240    1.1880 hx        1 NNJ      0.179500
     10 H12A       -0.2420   -0.8820   -0.0980 hx        1 NNJ      0.179500
     11 H17         1.8310    0.5860    2.2350 h4        1 NNJ      0.225000
     12 H18         4.1150    0.0750    3.1880 ha        1 NNJ      0.112000
     13 H18A        3.5750   -2.1690    2.7980 ha        1 NNJ      0.019500
     14 H18B        4.1820   -2.4760    2.8820 ha        1 NNJ      0.019500
     15 H19         4.3880   -1.2500   -0.3450 h1        1 NNJ      0.214000
     16 H20         5.2700    0.3440   -0.1510 h1        1 NNJ      0.214000
     17 H21         4.0280    1.0730   -2.1220 ha        1 NNJ      0.254000
     18 HN26       -0.5480    0.8680   -1.7770 hn        1 NNJ      0.276000
     19 HN2A       -1.8440    0.7580   -0.7240 hn        1 NNJ      0.276000
     20 C18         4.3950   -0.2940    2.1750 c1        1 NNJ      0.150000
     21 H263       -0.7670    2.0310   -0.5970 hn        1 NNJ      0.276000
@<TRIPOS>BOND
     1    1    2 1   
     2    1    7 1   
     3    1    9 1   
     4    1   10 1   
     5    2    3 1   
     6    2    6 1   
     7    3    8 1   
     8    3   11 1   
     9    4    5 1   
    10    4    8 1   
    11    4   15 1   
    12    4   16 1   
    13    5    6 1   
    14    5   17 1   
    15    7   18 1   
    16    7   19 1   
    17    7   21 1   
    18    8   20 1   
    19   12   20 1   
    20   13   14 1   
@<TRIPOS>SUBSTRUCTURE
     1 NNJ         1 TEMP              0 ****  ****    0 ROOT
