@<TRIPOS>MOLECULE
NNJ
   21    21     1     0     0
SMALL
bcc


@<TRIPOS>ATOM
      1 C12        -0.1090    0.1560    0.0950 c3        1 NNJ     -0.076000
      2 C13         1.3930    0.0830    0.0790 c2        1 NNJ     -0.157000
      3 C17         2.0860   -0.6620    0.9770 c2        1 NNJ     -0.051000
      4 C19         4.1710   -0.0670   -0.2150 c2        1 NNJ     -0.058000
      5 C20         3.4550    0.6880   -1.0850 c2        1 NNJ     -0.131000
      6 C21         2.0440    0.8630   -0.9500 c1        1 NNJ     -0.018000
      7 N26        -0.6280    1.3090   -0.6970 n4        1 NNJ     -0.069000
      8 N27         3.5450   -0.7930    0.9000 n4        1 NNJ      0.011000
      9 H12        -0.5010    0.2380    1.1520 hx        1 NNJ      0.176000
     10 H12A       -0.5190   -0.7980   -0.3620 hx        1 NNJ      0.176000
     11 H17         1.6390   -1.2220    1.8290 hx        1 NNJ      0.227000
     12 H18         3.9960    0.6980    2.3980 hx        1 NNJ      0.169667
     13 H18A        3.7330   -1.0130    3.0340 hx        1 NNJ      0.169667
     14 H18B        5.2870   -0.5890    2.1430 hx        1 NNJ      0.169667
     15 H19         3.7450   -1.8070    0.7450 hn        1 NNJ      0.306000
     16 H20         5.2770   -0.1990   -0.2550 hx        1 NNJ      0.240000
     17 H21         3.9700    1.2070   -1.9260 ha        1 NNJ      0.246000
     18 HN26        0.0560    1.5520   -1.4490 hn        1 NNJ      0.282000
     19 HN2A       -0.7490    2.1320   -0.0970 hn        1 NNJ      0.282000
     20 C18         4.1800   -0.3940    2.2070 c3        1 NNJ     -0.178000
     21 H263       -1.5340    1.0680   -1.1160 hn        1 NNJ      0.282000
@<TRIPOS>BOND
     1    1    2 1   
     2    1    7 1   
     3    1    9 1   
     4    1   10 1   
     5    2    3 1   
     6    2    6 1   
     7    3    8 1   
     8    3   11 1   
     9    4    5 1   
    10    4    8 1   
    11    4   16 1   
    12    5    6 1   
    13    5   17 1   
    14    7   18 1   
    15    7   19 1   
    16    7   21 1   
    17    8   15 1   
    18    8   20 1   
    19   12   20 1   
    20   13   20 1   
    21   14   20 1   
@<TRIPOS>SUBSTRUCTURE
     1 NNJ         1 TEMP              0 ****  ****    0 ROOT
