@<TRIPOS>MOLECULE
NNJ
   20    20     1     0     0
SMALL
bcc


@<TRIPOS>ATOM
      1 C12         2.3040    0.2070   -0.3340 c3        1 NNJ      0.205100
      2 C13         0.8560   -0.1890   -0.2070 ca        1 NNJ     -0.085300
      3 C17        -0.1400    0.7850   -0.0120 ca        1 NNJ     -0.010300
      4 C19        -1.8310   -0.8730   -0.0310 ca        1 NNJ     -0.046300
      5 C20        -0.8760   -1.8740   -0.2290 ca        1 NNJ     -0.131000
      6 C21         0.4780   -1.5340   -0.3150 ca        1 NNJ     -0.025000
      7 N26         2.6210    1.4110    0.3870 n3        1 NNJ     -0.947800
      8 N27        -1.4600    0.4420    0.0770 na        1 NNJ      0.036900
      9 H12         2.9280   -0.6780   -0.0050 h1        1 NNJ      0.069200
     10 H12A        2.5030    0.3630   -1.4370 h1        1 NNJ      0.069200
     11 H17         0.1180    1.8640    0.0800 h4        1 NNJ      0.228000
     12 H18        -3.1320    1.5160   -0.6370 h1        1 NNJ      0.101367
     13 H18A       -3.1080    1.1850    1.1700 h1        1 NNJ      0.101367
     14 H18B       -2.0020    2.4600    0.4570 h1        1 NNJ      0.101367
     15 H19        -2.9130   -1.1020    0.0460 h4        1 NNJ      0.208000
     16 H20        -1.2060   -2.9240   -0.3110 ha        1 NNJ      0.199000
     17 H21         1.2410   -2.3200   -0.4660 ha        1 NNJ      0.189000
     18 HN26        2.8860    1.2240    1.3320 hn        1 NNJ      0.385300
     19 HN2A        3.3310    1.9410   -0.0740 hn        1 NNJ      0.385300
     20 C18        -2.4820    1.4600    0.2780 c3        1 NNJ     -0.033400
@<TRIPOS>BOND
     1    1    2 1   
     2    1    7 1   
     3    1    9 1   
     4    1   10 1   
     5    2    3 ar  
     6    2    6 ar  
     7    3    8 2   
     8    3   11 1   
     9    4    5 ar  
    10    4    8 1   
    11    4   15 1   
    12    5    6 ar  
    13    5   16 1   
    14    6   17 1   
    15    7   18 1   
    16    7   19 1   
    17    8   20 1   
    18   12   20 1   
    19   13   20 1   
    20   14   20 1   
@<TRIPOS>SUBSTRUCTURE
     1 NNJ         1 TEMP              0 ****  ****    0 ROOT
