@<TRIPOS>MOLECULE
NNJ
   21    19     1     0     0
SMALL
bcc


@<TRIPOS>ATOM
      1 C12      -902.2030  -97.1680 -186.4880 c2        1 NNJ      0.119000
      2 C13       390.7130   55.3890   91.1960 c2        1 NNJ     -0.200000
      3 C17       389.5770   54.5560   91.3440 c2        1 NNJ      0.122000
      4 C19       388.7450   55.1700   89.0570 c3        1 NNJ     -0.008000
      5 C20       389.6180   56.4120   89.2120 c2        1 NNJ     -0.112000
      6 C21       390.5640   56.1780   90.0950 c1        1 NNJ      0.170000
      7 N26      -903.1550  -96.4960 -185.9290 n8        1 NNJ     -0.136000
      8 N27       388.6520   54.3750   90.3200 n3        1 NNJ     -0.190000
      9 H12      -902.4110  -98.1260 -187.0210 h4        1 NNJ      0.215000
     10 H12A     -901.1480  -96.8090 -186.4540 h4        1 NNJ      0.215000
     11 H17       389.4900   53.8820   92.2260 h4        1 NNJ      0.219000
     12 H18       387.5420   52.8410   91.2240 ha        1 NNJ      0.089000
     13 H18A      199.6410  -65.8820  -23.7540 ha        1 NNJ      0.000000
     14 H18B      200.2980  -65.7270  -23.7120 ha        1 NNJ      0.000000
     15 H19       387.7060   55.5470   88.8040 h1        1 NNJ      0.187000
     16 H20       389.0900   54.4820   88.2320 h1        1 NNJ      0.187000
     17 H21       389.3590   57.3340   88.6710 ha        1 NNJ      0.245000
     18 HN26      391.6010   55.3020   91.8400 ha        1 NNJ      0.242000
     19 HN2A     -902.9910  -95.6270 -185.4410 hn        1 NNJ      0.293000
     20 C18       387.6750   53.4490   90.3030 c1        1 NNJ      0.048000
     21 H263     -904.1180  -96.8010 -185.9470 hn        1 NNJ      0.293000
@<TRIPOS>BOND
     1    1    7 1   
     2    1    9 1   
     3    1   10 1   
     4    2    3 1   
     5    2    6 1   
     6    2   18 1   
     7    3    8 1   
     8    3   11 1   
     9    4    5 1   
    10    4    8 1   
    11    4   15 1   
    12    4   16 1   
    13    5    6 1   
    14    5   17 1   
    15    7   19 1   
    16    7   21 1   
    17    8   20 1   
    18   12   20 1   
    19   13   14 1   
@<TRIPOS>SUBSTRUCTURE
     1 NNJ         1 TEMP              0 ****  ****    0 ROOT
