@<TRIPOS>MOLECULE
NNK
   21    21     1     0     0
SMALL
bcc


@<TRIPOS>ATOM
      1 N16        -0.0350    0.1430   -0.1570 n4        1 NNK     -0.838600
      2 C17         1.4220   -0.1070    0.0380 c3        1 NNK      0.138100
      3 C18         1.8650   -0.0720    1.4700 ca        1 NNK     -0.062300
      4 C22         2.2290   -1.2560    2.1240 ca        1 NNK     -0.118500
      5 C23         2.7500   -1.1980    3.4280 ca        1 NNK     -0.006800
      6 N24         2.9040   -0.0060    4.0790 na        1 NNK      0.068900
      7 C25         3.4780    0.0330    5.4230 c3        1 NNK     -0.047400
      8 C26         2.5450    1.1550    3.4500 ca        1 NNK     -0.006800
      9 C27         2.0220    1.1450    2.1470 ca        1 NNK     -0.118500
     10 HN16       -0.5970   -0.5860    0.3000 hn        1 NNK      0.478800
     11 HN1A       -0.2480    0.1360   -1.1660 hn        1 NNK      0.478800
     12 H17         1.9920    0.6820   -0.5470 hx        1 NNK      0.146700
     13 H17A        1.6610   -1.1170   -0.4190 hx        1 NNK      0.146700
     14 H22         2.1420   -2.2460    1.6390 ha        1 NNK      0.206500
     15 H23         3.0580   -2.1250    3.9670 h4        1 NNK      0.239500
     16 H25         3.0380    0.8930    5.9990 h1        1 NNK      0.123700
     17 H25A        3.2540   -0.9280    5.9620 h1        1 NNK      0.123700
     18 H25B        4.5940    0.1670    5.3390 h1        1 NNK      0.123700
     19 H26         2.6910    2.1090    4.0070 h4        1 NNK      0.239500
     20 H27         1.7750    2.1150    1.6770 ha        1 NNK      0.206500
     21 H163       -0.3060    1.0560    0.2290 hn        1 NNK      0.478800
@<TRIPOS>BOND
     1    1    2 1   
     2    1   10 1   
     3    1   11 1   
     4    1   21 1   
     5    2    3 1   
     6    2   12 1   
     7    2   13 1   
     8    3    4 ar  
     9    3    9 ar  
    10    4    5 ar  
    11    4   14 1   
    12    5    6 1   
    13    5   15 1   
    14    6    7 1   
    15    6    8 2   
    16    7   16 1   
    17    7   17 1   
    18    7   18 1   
    19    8    9 ar  
    20    8   19 1   
    21    9   20 1   
@<TRIPOS>SUBSTRUCTURE
     1 NNK         1 TEMP              0 ****  ****    0 ROOT
