@<TRIPOS>MOLECULE
NNK
   21    21     1     0     0
SMALL
bcc


@<TRIPOS>ATOM
      1 N16        -0.0250    0.0010   -0.1620 n4        1 NNK     -0.838600
      2 C17         1.4550   -0.0060    0.0250 c3        1 NNK      0.138100
      3 C18         1.8910   -0.0020    1.4600 ca        1 NNK     -0.064300
      4 C22         2.1310   -1.2060    2.1360 ca        1 NNK     -0.116500
      5 C23         2.6520   -1.1800    3.4400 ca        1 NNK     -0.007300
      6 N24         2.9300    0.0020    4.0700 na        1 NNK      0.069900
      7 C25         3.4720    0.0040    5.4280 c3        1 NNK     -0.047400
      8 C26         2.6900    1.1810    3.4210 ca        1 NNK     -0.007300
      9 C27         2.1700    1.2040    2.1160 ca        1 NNK     -0.116500
     10 HN16       -0.2390   -0.0040   -1.1710 hn        1 NNK      0.478467
     11 HN1A       -0.4450    0.8410    0.2560 hn        1 NNK      0.478467
     12 H17         1.8740    0.9050   -0.5040 hx        1 NNK      0.146200
     13 H17A        1.8640   -0.9280   -0.4950 hx        1 NNK      0.146200
     14 H22         1.9490   -2.1900    1.6660 ha        1 NNK      0.207000
     15 H23         2.8630   -2.1230    3.9960 h4        1 NNK      0.239000
     16 H25         4.1210    0.9100    5.5770 h1        1 NNK      0.123367
     17 H25A        2.6170    0.0260    6.1620 h1        1 NNK      0.123367
     18 H25B        4.0880   -0.9230    5.5930 h1        1 NNK      0.123367
     19 H26         2.9310    2.1260    3.9620 h4        1 NNK      0.239000
     20 H27         2.0190    2.1850    1.6310 ha        1 NNK      0.207000
     21 H163       -0.4550   -0.8280    0.2670 hn        1 NNK      0.478467
@<TRIPOS>BOND
     1    1    2 1   
     2    1   10 1   
     3    1   11 1   
     4    1   21 1   
     5    2    3 1   
     6    2   12 1   
     7    2   13 1   
     8    3    4 ar  
     9    3    9 ar  
    10    4    5 ar  
    11    4   14 1   
    12    5    6 1   
    13    5   15 1   
    14    6    7 1   
    15    6    8 2   
    16    7   16 1   
    17    7   17 1   
    18    7   18 1   
    19    8    9 ar  
    20    8   19 1   
    21    9   20 1   
@<TRIPOS>SUBSTRUCTURE
     1 NNK         1 TEMP              0 ****  ****    0 ROOT
