@<TRIPOS>MOLECULE
NNK
   20    18     1     0     0
SMALL
bcc


@<TRIPOS>ATOM
      1 N16        -2.0920   -0.0000   -2.3910 n3        1 NNK     -0.381000
      2 C17        -0.6660   -0.0000   -2.3910 c3        1 NNK     -0.048000
      3 C18        -0.1620   -0.0000   -0.9650 c2        1 NNK      0.054000
      4 C22         0.0370   -1.1820   -0.3110 c2        1 NNK     -0.121000
      5 C23         0.4990   -1.1810    0.9960 c1        1 NNK     -0.009000
      6 N24         0.7550   -0.0020    1.6280 n2        1 NNK     -0.044000
      7 C25         1.2340   -0.0020    2.9690 c3        1 NNK     -0.130000
      8 C26         0.5570    1.1790    0.9770 c1        1 NNK     -0.004000
      9 C27         0.0950    1.1810   -0.3300 c1        1 NNK     -0.157000
     10 HN16       -2.3960    0.7540   -2.8030 hn        1 NNK      0.184500
     11 HN1A       -2.3960   -0.7340   -2.8390 hn        1 NNK      0.184500
     12 H17        -0.3410    0.7970   -2.8510 h1        1 NNK      0.114000
     13 H17A       -0.3410   -0.7970   -2.8510 h1        1 NNK      0.114000
     14 H22        -0.1470   -2.0270   -0.7640 ha        1 NNK      0.217000
     15 H23         0.6410   -2.0260    1.4640 ha        1 NNK      0.207000
     16 H25         0.9250    0.8030    3.4260 h1        1 NNK      0.138667
     17 H25A        0.8950   -0.7900    3.4350 h1        1 NNK      0.138667
     18 H25B        2.2100   -0.0210    2.9660 h1        1 NNK      0.138667
     19 H26         0.7410    2.0230    1.4300 ha        1 NNK      0.206000
     20 H27        -0.0470    2.0260   -0.7970 ha        1 NNK      0.194000
@<TRIPOS>BOND
     1    1    2 1   
     2    1   10 1   
     3    1   11 1   
     4    2    3 1   
     5    2   12 1   
     6    2   13 1   
     7    3    4 1   
     8    3    9 1   
     9    4    5 1   
    10    4   14 1   
    11    5   15 1   
    12    6    7 1   
    13    6    8 1   
    14    7   16 1   
    15    7   17 1   
    16    7   18 1   
    17    8   19 1   
    18    9   20 1   
@<TRIPOS>SUBSTRUCTURE
     1 NNK         1 TEMP              0 ****  ****    0 ROOT
