@<TRIPOS>MOLECULE
NNK
   20    20     1     0     0
SMALL
bcc


@<TRIPOS>ATOM
      1 N16         3.2040    0.6450   -0.4060 n3        1 NNK     -0.948800
      2 C17         2.4540   -0.3490    0.3070 c3        1 NNK      0.196100
      3 C18         0.9630   -0.2040    0.1480 ca        1 NNK      0.046700
      4 C22         0.1340   -1.2840    0.4980 ca        1 NNK     -0.138500
      5 C23        -1.2520   -1.1680    0.3850 ca        1 NNK     -0.030800
      6 N24        -1.8340   -0.0130   -0.0680 na        1 NNK      0.023900
      7 C25        -3.2810    0.0930   -0.1610 c3        1 NNK     -0.031400
      8 C26        -1.0370    1.0480   -0.4110 ca        1 NNK     -0.030800
      9 C27         0.3540    0.9760   -0.3110 ca        1 NNK     -0.138500
     10 HN16        3.9760    0.9910    0.1260 hn        1 NNK      0.389300
     11 HN1A        3.5040    0.3270   -1.3030 hn        1 NNK      0.389300
     12 H17         2.7220   -1.4040   -0.0040 h1        1 NNK      0.074700
     13 H17A        2.6590   -0.2690    1.4180 h1        1 NNK      0.074700
     14 H22         0.5620   -2.2330    0.8640 ha        1 NNK      0.205500
     15 H23        -1.9290   -2.0050    0.6550 h4        1 NNK      0.206500
     16 H25        -3.6860    0.4870    0.8120 h1        1 NNK      0.099367
     17 H25A       -3.5580    0.7960   -0.9940 h1        1 NNK      0.099367
     18 H25B       -3.7250   -0.9170   -0.3700 h1        1 NNK      0.099367
     19 H26        -1.5450    1.9670   -0.7710 h4        1 NNK      0.206500
     20 H27         0.9580    1.8570   -0.5990 ha        1 NNK      0.205500
@<TRIPOS>BOND
     1    1    2 1   
     2    1   10 1   
     3    1   11 1   
     4    2    3 1   
     5    2   12 1   
     6    2   13 1   
     7    3    4 ar  
     8    3    9 ar  
     9    4    5 ar  
    10    4   14 1   
    11    5    6 1   
    12    5   15 1   
    13    6    7 1   
    14    6    8 2   
    15    7   16 1   
    16    7   17 1   
    17    7   18 1   
    18    8    9 ar  
    19    8   19 1   
    20    9   20 1   
@<TRIPOS>SUBSTRUCTURE
     1 NNK         1 TEMP              0 ****  ****    0 ROOT
