@<TRIPOS>MOLECULE
NNK
   21    21     1     0     0
SMALL
bcc


@<TRIPOS>ATOM
      1 N16        -0.0250    0.1880   -0.1620 nz        1 NNK     -0.838600
      2 C17         1.4230   -0.1080    0.0380 c3        1 NNK      0.138100
      3 C18         1.8640   -0.0740    1.4710 ca        1 NNK     -0.062300
      4 C22         2.1810   -1.2640    2.1390 ca        1 NNK     -0.118500
      5 C23         2.7010   -1.2120    3.4430 ca        1 NNK     -0.006800
      6 N24         2.9010   -0.0190    4.0800 na        1 NNK      0.068900
      7 C25         3.4740    0.0130    5.4250 c3        1 NNK     -0.047400
      8 C26         2.5880    1.1480    3.4370 ca        1 NNK     -0.006800
      9 C27         2.0680    1.1430    2.1330 ca        1 NNK     -0.118500
     10 HN16       -0.6120   -0.5180    0.3010 hn        1 NNK      0.478800
     11 HN1A       -0.2380    0.1770   -1.1710 hn        1 NNK      0.478800
     12 H17         2.0190    0.6560   -0.5530 hx        1 NNK      0.146700
     13 H17A        1.6290   -1.1300   -0.4090 hx        1 NNK      0.146700
     14 H22         2.0550   -2.2560    1.6650 ha        1 NNK      0.206500
     15 H23         2.9720   -2.1430    3.9930 h4        1 NNK      0.239500
     16 H25         3.0830    0.9070    5.9840 h1        1 NNK      0.123700
     17 H25A        3.1930   -0.9240    5.9810 h1        1 NNK      0.123700
     18 H25B        4.5960    0.0800    5.3410 h1        1 NNK      0.123700
     19 H26         2.7710    2.1020    3.9840 h4        1 NNK      0.239500
     20 H27         1.8600    2.1160    1.6520 ha        1 NNK      0.206500
     21 H163       -0.2670    1.1120    0.2140 hn        1 NNK      0.478800
@<TRIPOS>BOND
     1    1    2 1   
     2    1   10 1   
     3    1   11 1   
     4    1   21 1   
     5    2    3 1   
     6    2   12 1   
     7    2   13 1   
     8    3    4 ar  
     9    3    9 ar  
    10    4    5 ar  
    11    4   14 1   
    12    5    6 1   
    13    5   15 1   
    14    6    7 1   
    15    6    8 2   
    16    7   16 1   
    17    7   17 1   
    18    7   18 1   
    19    8    9 ar  
    20    8   19 1   
    21    9   20 1   
@<TRIPOS>SUBSTRUCTURE
     1 NNK         1 TEMP              0 ****  ****    0 ROOT
