@<TRIPOS>MOLECULE
NNL
   34    32     1     0     0
SMALL
bcc


@<TRIPOS>ATOM
      1 CAA        -0.0800    0.6130   -2.6970 c3        1 NNL     -0.210000
      2 CAC        -0.4530    3.7350   -6.3610 c1        1 NNL     -0.134000
      3 CAD         2.2960   -3.7600   -6.4490 c1        1 NNL     -0.222500
      4 CAE         0.8480    3.7280   -6.9670 c3        1 NNL      0.064000
      5 CAF         1.4920   -3.6240   -7.3230 c1        1 NNL     -0.222500
      6 CAG         3.0240    0.4470    0.2820 c1        1 NNL     -0.119000
      7 CAH         5.7100   -2.5460   -2.0800 c1        1 NNL      0.337000
      8 CAI         3.7180   -1.1530   -4.4330 c3        1 NNL     -0.133000
      9 CAJ         2.2710    1.5850   -6.4040 c1        1 NNL     -0.200000
     10 NAK         4.2900    0.7880    0.1780 n2        1 NNL     -0.228000
     11 NAL         4.9740    0.0530   -0.7340 n2        1 NNL      0.033000
     12 NAM         1.7550   -0.6110   -1.6710 n2        1 NNL     -0.162000
     13 NAN         3.7420   -2.1850   -3.4240 n3        1 NNL     -0.235000
     14 CAO        -1.5420    3.7570   -5.8650 c1        1 NNL     -0.199000
     15 CAP         1.0330    0.4710   -1.7160 c2        1 NNL     -0.007000
     16 CAQ         1.6160    2.5540   -6.6530 c1        1 NNL     -0.170000
     17 CAR         4.5540   -1.8830   -2.2930 c2        1 NNL     -0.287000
     18 CAS         4.1970   -0.8490   -1.3150 c2        1 NNL     -0.134000
     19 NAT         2.7740   -0.7410   -0.7380 n4        1 NNL     -0.036000
     20 HAA        -0.2250   -0.2850   -3.3460 hc        1 NNL      0.113333
     21 HAAA       -1.0280    0.8050   -2.1340 hc        1 NNL      0.113333
     22 HAAB        0.1350    1.4970   -3.3510 hc        1 NNL      0.113333
     23 HAC         0.7310    3.8040   -8.0900 hc        1 NNL      0.123000
     24 HAD         3.0110   -3.8860   -5.6730 ha        1 NNL      0.223000
     25 HAE         1.4170    4.6450   -6.6280 hc        1 NNL      0.123000
     26 HAF         0.7800   -3.5050   -8.1010 ha        1 NNL      0.223000
     27 HAG         2.5740   -1.5990   -0.2090 hn        1 NNL      0.249000
     28 HAH         1.1660    1.3530   -1.0430 h4        1 NNL      0.169000
     29 HAI         3.2640   -0.1850   -4.0850 h1        1 NNL      0.081667
     30 HAIA        4.7650   -0.9450   -4.7770 h1        1 NNL      0.081667
     31 HAJ         3.1180   -1.5450   -5.2990 h1        1 NNL      0.081667
     32 HAJA        2.8570    0.7270   -6.1870 ha        1 NNL      0.225000
     33 HNAN        2.8140   -2.4300   -3.1300 hn        1 NNL      0.182000
     34 CL         -2.9960    3.7990   -5.2100 cl        1 NNL      0.167000
@<TRIPOS>BOND
     1    1   15 1   
     2    1   20 1   
     3    1   21 1   
     4    1   22 1   
     5    2    4 1   
     6    2   14 1   
     7    3    5 1   
     8    3   24 1   
     9    4   16 1   
    10    4   23 1   
    11    4   25 1   
    12    5   26 1   
    13    6   10 1   
    14    6   19 1   
    15    7   17 1   
    16    8   13 1   
    17    8   29 1   
    18    8   30 1   
    19    8   31 1   
    20    9   16 1   
    21    9   32 1   
    22   10   11 1   
    23   11   18 1   
    24   12   15 1   
    25   12   19 1   
    26   13   17 1   
    27   13   33 1   
    28   14   34 1   
    29   15   28 1   
    30   17   18 1   
    31   18   19 1   
    32   19   27 1   
@<TRIPOS>SUBSTRUCTURE
     1 NNL         1 TEMP              0 ****  ****    0 ROOT
