@<TRIPOS>MOLECULE
NNL
   34    36     1     0     0
SMALL
bcc


@<TRIPOS>ATOM
      1 CAA        -3.2300    3.5720   -0.1320 c3        1 NNL     -0.149400
      2 CAC         4.5790   -0.4150    1.2220 ca        1 NNL     -0.122000
      3 CAD         4.4110   -0.0070   -1.1650 ca        1 NNL     -0.122000
      4 CAE         3.2890   -0.9430    1.2170 ca        1 NNL     -0.115500
      5 CAF         3.1230   -0.5370   -1.1590 ca        1 NNL     -0.115500
      6 CAG        -5.8540   -0.5920    0.1490 cc        1 NNL      0.338700
      7 CAH        -2.2030    1.3000   -0.0930 cc        1 NNL     -0.383300
      8 CAI         0.1420   -0.4560   -0.0450 c3        1 NNL      0.215800
      9 CAJ         1.1790   -1.5820    0.0220 c3        1 NNL     -0.050100
     10 NAK        -5.4090   -1.8870    0.1820 nd        1 NNL     -0.362700
     11 NAL        -4.1040   -1.9340    0.1210 nd        1 NNL     -0.071000
     12 NAM        -4.6440    1.5820    0.0050 nd        1 NNL     -0.518800
     13 NAN        -1.2100   -0.9440   -0.1040 nh        1 NNL     -0.756600
     14 CAO         5.1370    0.0530    0.0290 ca        1 NNL      0.019400
     15 CAP        -3.4060    2.0880   -0.0690 cc        1 NNL      0.444600
     16 CAQ         2.5520   -1.0070    0.0290 ca        1 NNL     -0.087300
     17 CAR        -2.2770   -0.0900   -0.0440 cc        1 NNL      0.293600
     18 CAS        -3.6190   -0.6490    0.0430 cc        1 NNL     -0.176300
     19 NAT        -4.7350    0.2550    0.0590 na        1 NNL      0.114300
     20 HAA        -2.6950    3.8340   -1.0780 hc        1 NNL      0.061367
     21 HAAA       -4.2010    4.1240   -0.1050 hc        1 NNL      0.061367
     22 HAAB       -2.6080    3.9010    0.7380 hc        1 NNL      0.061367
     23 HAC         5.1520   -0.3700    2.1600 ha        1 NNL      0.150000
     24 HAD         4.8530    0.3590   -2.1040 ha        1 NNL      0.150000
     25 HAE         2.8510   -1.3140    2.1570 ha        1 NNL      0.139500
     26 HAF         2.5500   -0.5880   -2.0980 ha        1 NNL      0.139500
     27 HAG        -6.8870   -0.2370    0.1830 h5        1 NNL      0.095800
     28 HAH        -1.2410    1.8240   -0.1540 ha        1 NNL      0.154000
     29 HAI         0.2680    0.2140    0.8560 h1        1 NNL      0.049700
     30 HAIA        0.3400    0.1700   -0.9640 h1        1 NNL      0.049700
     31 HAJ         1.0140   -2.1990    0.9460 hc        1 NNL      0.061700
     32 HAJA        1.0640   -2.2630   -0.8640 hc        1 NNL      0.061700
     33 HNAN       -1.3700   -1.9170    0.0250 hn        1 NNL      0.457800
     34 CL          6.7090    0.6980    0.0290 cl        1 NNL     -0.089400
@<TRIPOS>BOND
     1    1   15 1   
     2    1   20 1   
     3    1   21 1   
     4    1   22 1   
     5    2    4 ar  
     6    2   14 ar  
     7    2   23 1   
     8    3    5 ar  
     9    3   14 ar  
    10    3   24 1   
    11    4   16 ar  
    12    4   25 1   
    13    5   16 ar  
    14    5   26 1   
    15    6   10 2   
    16    6   19 1   
    17    6   27 1   
    18    7   15 1   
    19    7   17 2   
    20    7   28 1   
    21    8    9 1   
    22    8   13 1   
    23    8   29 1   
    24    8   30 1   
    25    9   16 1   
    26    9   31 1   
    27    9   32 1   
    28   10   11 1   
    29   11   18 2   
    30   12   15 2   
    31   12   19 1   
    32   13   17 1   
    33   13   33 1   
    34   14   34 1   
    35   17   18 1   
    36   18   19 1   
@<TRIPOS>SUBSTRUCTURE
     1 NNL         1 TEMP              0 ****  ****    0 ROOT
