@<TRIPOS>MOLECULE
NNL
   34    29     1     0     0
SMALL
bcc


@<TRIPOS>ATOM
      1 CAA        -2.6840    1.5290    4.4120 c3        1 NNL     -0.082000
      2 CL         -0.4200   -2.1440   -7.0880 cl        1 NNL     -0.100900
      3 CAC        -0.4740   -0.2670   -5.2720 c1        1 NNL     -0.062000
      4 CAD         0.8650   -2.1470   -4.5900 c1        1 NNL     -0.064500
      5 CAE        -0.3210    0.2980   -4.0160 c1        1 NNL     -0.062000
      6 CAF         1.0170   -1.5810   -3.3320 c1        1 NNL     -0.056500
      7 CAG         1.5100   -0.6240    4.8630 cg        1 NNL      0.288600
      8 CAH        -1.1220    1.0910    2.2410 c1        1 NNL     -0.260500
      9 CAI         0.0250    0.2040   -0.6320 c3        1 NNL      0.038300
     10 CAJ         0.9720    0.3990   -1.8280 c3        1 NNL     -0.084300
     11 NAK         2.4750   -1.0170    4.0070 n1        1 NNL     -0.505100
     12 NAL         2.0720   -0.7110    2.7510 ne        1 NNL     -0.187100
     13 NAM        -0.6770    0.5720    4.5150 n1        1 NNL     -0.086000
     14 NAN         0.7200    0.5470    0.5940 n3        1 NNL     -0.342400
     15 CAO         0.1190   -1.4910   -5.5610 c1        1 NNL      0.030900
     16 CAP        -1.4760    1.1450    3.5750 c1        1 NNL      0.048900
     17 CAQ         0.4240   -0.3590   -3.0450 c1        1 NNL     -0.053100
     18 CAR         0.0300    0.4620    1.8670 c1        1 NNL      0.212000
     19 CAS         0.8480   -0.1250    2.8330 c1        1 NNL      0.068400
     20 NAT         0.5000   -0.0700    4.1330 n1        1 NNL     -0.120800
     21 HAA        -3.1070    0.7170    4.7690 hc        1 NNL      0.061367
     22 HAAA       -3.3260    2.0140    3.8550 hc        1 NNL      0.061367
     23 HAAB       -2.3980    2.1010    5.1540 hc        1 NNL      0.061367
     24 HAC        -0.9970    0.1930   -5.9540 ha        1 NNL      0.087500
     25 HAD         1.2820   -3.0080   -4.7930 ha        1 NNL      0.092500
     26 HAE        -0.7370    1.1560   -3.8140 ha        1 NNL      0.087500
     27 HAF         1.5420   -2.0430   -2.6480 ha        1 NNL      0.081500
     28 HAG         1.5310   -0.7200    5.8370 DU        1 NNL      0.225000
     29 HAH        -1.6530    1.5690    1.5760 ha        1 NNL      0.096500
     30 HAI        -0.2640   -0.7300   -0.5940 h1        1 NNL      0.049700
     31 HAIA       -0.7550    0.7820   -0.7360 h1        1 NNL      0.049700
     32 HAJ         1.8590    0.0540   -1.6010 hc        1 NNL      0.061700
     33 HAJA        1.0380    1.3530   -2.0400 hc        1 NNL      0.061700
     34 HNAN        1.5810    0.8490    0.5610 hn        1 NNL      0.302700
@<TRIPOS>BOND
     1    1   16 1   
     2    1   21 1   
     3    1   22 1   
     4    1   23 1   
     5    2   15 1   
     6    3    5 3   
     7    3   24 1   
     8    4   15 3   
     9    4   25 1   
    10    5   26 1   
    11    6   17 3   
    12    6   27 1   
    13    7   11 3   
    14    7   20 1   
    15    8   16 3   
    16    8   29 1   
    17    9   10 1   
    18    9   14 1   
    19    9   30 1   
    20    9   31 1   
    21   10   17 1   
    22   10   32 1   
    23   10   33 1   
    24   11   12 1   
    25   12   19 2   
    26   13   20 3   
    27   14   18 2   
    28   14   34 1   
    29   18   19 2   
@<TRIPOS>SUBSTRUCTURE
     1 NNL         1 TEMP              0 ****  ****    0 ROOT
