@<TRIPOS>MOLECULE
NNL
   34    44     1     0     0
SMALL
bcc


@<TRIPOS>ATOM
      1 CAA         0.0000    0.0000    0.0000 c3        1 NNL     -0.453000
      2 CAC         0.4490    1.1980   -8.4190 c3        1 NNL     -0.102000
      3 CAD         0.4490   -1.1980   -8.4190 c2        1 NNL     -0.234000
      4 CAE         1.4410    1.1970   -7.4560 c3        1 NNL     -0.010000
      5 CAF         1.4410   -1.1970   -7.4560 c2        1 NNL     -0.031000
      6 CAG         4.8830    0.0000    0.8550 c2        1 NNL     -0.225000
      7 CAH         1.7720   -0.0010   -1.7760 c2        1 NNL     -0.841000
      8 CAI         2.3820   -0.0000   -4.5350 DU        1 NNL     -0.454000
      9 CAJ         3.0190    0.0000   -5.9260 c3        1 NNL     -0.347000
     10 NAK         5.8750    0.0000    0.0000 n2        1 NNL     -0.122000
     11 NAL         5.4220    0.0010   -1.2050 n2        1 NNL      0.082000
     12 NAM         2.3810   -0.0000    0.5000 n2        1 NNL     -0.310000
     13 NAN         3.4340    0.0000   -3.5160 n7        1 NNL     -0.075000
     14 CAO        -0.0480    0.0000   -8.9010 c2        1 NNL      0.203000
     15 CAP         1.4480    0.0000   -0.4170 c3        1 NNL      0.163000
     16 CAQ         1.9370    0.0000   -6.9750 c3        1 NNL      0.407000
     17 CAR         3.0950   -0.0010   -2.1690 c2        1 NNL      0.245000
     18 CAS         4.1000    0.0000   -1.1740 c3        1 NNL     -0.628000
     19 NAT         3.7320    0.0000    0.1490 nx        1 NNL      0.470000
     20 HAA         0.0900    0.0000   -1.0800 hc        1 NNL      0.262667
     21 HAAA       -0.1370    0.6840    0.8290 hc        1 NNL      0.262667
     22 HAAB       -0.6160    0.3150   -0.8330 hc        1 NNL      0.262667
     23 HAC         0.3600    0.9340   -7.3720 DU        1 NNL      0.180000
     24 HAD         0.3240   -0.1290   -8.5400 ha        1 NNL     -0.040000
     25 HAE         1.0520    0.2590   -7.8330 DU        1 NNL     -0.238000
     26 HAF         1.5660   -0.1280   -7.3350 ha        1 NNL     -0.338000
     27 HAG         4.5060   -0.2650   -0.1250 DU        1 NNL      0.257000
     28 HAH         2.4780   -0.0010   -0.9550 DU        1 NNL      0.365000
     29 HAI         1.7640   -0.0310   -3.6460 ha        1 NNL      0.216500
     30 HAIA        1.7670    0.8850   -4.4200 ha        1 NNL      0.216500
     31 HAJ         2.3880   -0.4470   -5.1680 DU        1 NNL      0.312000
     32 HAJA        3.6340    0.8850   -6.0410 hc        1 NNL      0.109000
     33 HNAN        3.5090   -0.3310   -4.4570 DU        1 NNL      0.322000
     34 Cl         -1.2940    0.0000  -10.1090 cl        1 NNL      0.114000
@<TRIPOS>BOND
     1    1   15 1   
     2    1   20 1   
     3    1   21 1   
     4    1   22 1   
     5    2    4 1   
     6    2   14 1   
     7    2   23 1   
     8    2   25 1   
     9    3    5 1   
    10    3   14 1   
    11    3   24 1   
    12    4   16 1   
    13    4   23 1   
    14    4   25 1   
    15    5   16 1   
    16    5   26 1   
    17    6   10 1   
    18    6   19 1   
    19    6   27 1   
    20    7   15 1   
    21    7   17 1   
    22    7   28 1   
    23    8    9 1   
    24    8   13 1   
    25    8   29 1   
    26    8   30 1   
    27    8   31 1   
    28    8   33 1   
    29    9   16 1   
    30    9   31 1   
    31    9   32 1   
    32   10   11 1   
    33   11   18 1   
    34   12   15 1   
    35   12   19 1   
    36   13   17 1   
    37   13   33 1   
    38   14   34 1   
    39   15   28 1   
    40   16   25 1   
    41   17   18 1   
    42   18   19 1   
    43   18   27 1   
    44   19   27 1   
@<TRIPOS>SUBSTRUCTURE
     1 NNL         1 TEMP              0 ****  ****    0 ROOT
