@<TRIPOS>MOLECULE
NNN
   52    54     1     0     0
SMALL
bcc


@<TRIPOS>ATOM
      1 O1          2.6300    5.2100    0.5790 oh        1 NNN     -0.605800
      2 C15         1.3320    4.7920    0.9670 c3        1 NNN      0.122400
      3 C12         0.9520    3.5510    0.1210 c3        1 NNN      0.214500
      4 C13         0.9740    3.9590   -1.3610 c3        1 NNN     -0.106400
      5 C14         0.4170    2.8970   -2.2700 c3        1 NNN     -0.094100
      6 N2          1.8270    2.4460    0.4610 nh        1 NNN     -0.816900
      7 C2          1.4480    1.1080    0.2710 cc        1 NNN      0.917900
      8 N1          0.0660    0.8120    0.2900 nc        1 NNN     -0.839000
      9 C6         -0.3090   -0.4910    0.2610 cd        1 NNN      0.847400
     10 N5          0.6640   -1.5200    0.1680 na        1 NNN     -0.173600
     11 N7          0.5120   -2.8590    0.1140 nc        1 NNN     -0.582100
     12 C8          1.7640   -3.3700    0.0320 cd        1 NNN      0.402500
     13 C9'         2.7800   -2.3400    0.0340 cd        1 NNN     -0.291800
     14 C9          4.2390   -2.5210   -0.0400 c3        1 NNN      0.017500
     15 C10         4.7480   -3.3250    1.1440 c3        1 NNN     -0.086100
     16 C11         4.6380   -3.1970   -1.3410 c3        1 NNN     -0.086100
     17 C4          2.0620   -1.1220    0.1240 cd        1 NNN      0.438500
     18 N3          2.4560    0.1900    0.1590 nd        1 NNN     -0.774000
     19 N6         -1.6480   -0.8480    0.3600 nh        1 NNN     -0.860900
     20 CA'        -2.6850    0.1550    0.2660 c3        1 NNN      0.268100
     21 C1'        -4.0590   -0.4470    0.2370 ca        1 NNN     -0.119300
     22 C6'        -4.9160   -0.1760   -0.8340 ca        1 NNN     -0.113500
     23 C5'        -6.2080   -0.7020   -0.8440 ca        1 NNN     -0.130500
     24 C4'        -6.6450   -1.5060    0.2090 ca        1 NNN     -0.118000
     25 C3'        -5.7890   -1.7820    1.2760 ca        1 NNN     -0.130500
     26 C2'        -4.4990   -1.2530    1.2920 ca        1 NNN     -0.113500
     27 HO1         2.9240    5.8500    1.2380 ho        1 NNN      0.405000
     28 H15         1.3060    4.5460    2.0610 h1        1 NNN      0.035200
     29 H15A        0.5930    5.6100    0.7530 h1        1 NNN      0.035200
     30 H12        -0.1090    3.2870    0.4060 h1        1 NNN      0.086700
     31 H13         0.3640    4.8950   -1.4630 hc        1 NNN      0.054200
     32 H13A        2.0250    4.2160   -1.6600 hc        1 NNN      0.054200
     33 H14        -0.6160    2.6100   -1.9580 hc        1 NNN      0.036700
     34 H14A        0.3790    3.2750   -3.3210 hc        1 NNN      0.036700
     35 H14B        1.0550    1.9800   -2.2520 hc        1 NNN      0.036700
     36 HN2         2.7950    2.6400    0.2860 hn        1 NNN      0.440800
     37 H8          1.9370   -4.4470   -0.0270 h4        1 NNN      0.051800
     38 H9          4.7270   -1.5030   -0.0090 hc        1 NNN      0.068700
     39 H10         5.8560   -3.4450    1.0760 hc        1 NNN      0.032533
     40 H10A        4.5020   -2.8050    2.1000 hc        1 NNN      0.032533
     41 H10B        4.2790   -4.3380    1.1610 hc        1 NNN      0.032533
     42 H11         4.3120   -2.5820   -2.2140 hc        1 NNN      0.032533
     43 H11A        5.7470   -3.3190   -1.3830 hc        1 NNN      0.032533
     44 H11B        4.1650   -4.2050   -1.4200 hc        1 NNN      0.032533
     45 HN6        -1.9050   -1.7940    0.1770 hn        1 NNN      0.463800
     46 HA'        -2.6000    0.8350    1.1650 h1        1 NNN      0.063700
     47 HA'A       -2.5280    0.7910   -0.6550 h1        1 NNN      0.063700
     48 H6'        -4.5740    0.4550   -1.6680 ha        1 NNN      0.138500
     49 H5'        -6.8810   -0.4830   -1.6860 ha        1 NNN      0.136500
     50 H4'        -7.6630   -1.9220    0.1980 ha        1 NNN      0.135000
     51 H3'        -6.1320   -2.4160    2.1070 ha        1 NNN      0.136500
     52 H2'        -3.8270   -1.4660    2.1380 ha        1 NNN      0.138500
@<TRIPOS>BOND
     1    1    2 1   
     2    1   27 1   
     3    2    3 1   
     4    2   28 1   
     5    2   29 1   
     6    3    4 1   
     7    3    6 1   
     8    3   30 1   
     9    4    5 1   
    10    4   31 1   
    11    4   32 1   
    12    5   33 1   
    13    5   34 1   
    14    5   35 1   
    15    6    7 1   
    16    6   36 1   
    17    7    8 1   
    18    7   18 2   
    19    8    9 2   
    20    9   10 1   
    21    9   19 1   
    22   10   11 1   
    23   10   17 1   
    24   11   12 2   
    25   12   13 1   
    26   12   37 1   
    27   13   14 1   
    28   13   17 2   
    29   14   15 1   
    30   14   16 1   
    31   14   38 1   
    32   15   39 1   
    33   15   40 1   
    34   15   41 1   
    35   16   42 1   
    36   16   43 1   
    37   16   44 1   
    38   17   18 1   
    39   19   20 1   
    40   19   45 1   
    41   20   21 1   
    42   20   46 1   
    43   20   47 1   
    44   21   22 ar  
    45   21   26 ar  
    46   22   23 ar  
    47   22   48 1   
    48   23   24 ar  
    49   23   49 1   
    50   24   25 ar  
    51   24   50 1   
    52   25   26 ar  
    53   25   51 1   
    54   26   52 1   
@<TRIPOS>SUBSTRUCTURE
     1 NNN         1 TEMP              0 ****  ****    0 ROOT
