@<TRIPOS>MOLECULE
NNN
   54    56     1     0     0
SMALL
bcc


@<TRIPOS>ATOM
      1 O1          1.7980    1.8510    2.3790 oh        1 NNN     -0.616800
      2 C15         0.8450    1.1340    3.1310 c3        1 NNN      0.112400
      3 C12         0.5490   -0.2170    2.4420 c3        1 NNN      0.097500
      4 C13        -0.2900    0.0040    1.1790 c3        1 NNN     -0.115400
      5 C14        -0.6500   -1.2710    0.4640 c3        1 NNN     -0.127100
      6 N2          1.8440   -0.9240    2.0860 n4        1 NNN     -0.733700
      7 C2          2.5680   -1.4620    3.2690 cc        1 NNN      0.701900
      8 N1          3.8450   -0.8880    3.4990 nc        1 NNN     -0.685000
      9 C6          4.5340   -1.3540    4.5440 cd        1 NNN      0.705400
     10 N5          4.0300   -2.3570    5.3830 na        1 NNN     -0.158600
     11 N7          4.5610   -2.9540    6.4560 nc        1 NNN     -0.506100
     12 C8          3.6540   -3.8690    6.8740 cd        1 NNN      0.434500
     13 C9'         2.4570   -3.8890    6.0400 cd        1 NNN     -0.077800
     14 C9          1.2760   -4.7600    6.2080 c3        1 NNN     -0.024500
     15 C10         1.6710   -6.2210    6.0700 c3        1 NNN     -0.098100
     16 C11         0.6210   -4.5130    7.5570 c3        1 NNN     -0.098100
     17 C4          2.6890   -2.9030    5.0570 cd        1 NNN      0.316500
     18 N3          1.9760   -2.4290    3.9880 nd        1 NNN     -0.536000
     19 N6          5.8840   -0.8130    4.8640 n4        1 NNN     -0.769700
     20 CA'         6.3890    0.2780    3.9280 c3        1 NNN      0.206100
     21 C1'         7.7330    0.7030    4.3860 ca        1 NNN     -0.225300
     22 C6'         7.8610    1.7710    5.2870 ca        1 NNN     -0.090500
     23 C5'         9.1260    2.2070    5.6700 ca        1 NNN     -0.116000
     24 C4'        10.2670    1.5810    5.1600 ca        1 NNN     -0.052000
     25 C3'        10.1410    0.5170    4.2630 ca        1 NNN     -0.116000
     26 C2'         8.8790    0.0750    3.8760 ca        1 NNN     -0.090500
     27 HO1         1.3500    2.5740    1.9180 ho        1 NNN      0.448000
     28 H15         1.3070    0.9600    4.1410 h1        1 NNN      0.088200
     29 H15A       -0.1220    1.6870    3.2560 h1        1 NNN      0.088200
     30 H12        -0.0230   -0.8820    3.1560 hx        1 NNN      0.128700
     31 H13        -1.2340    0.5160    1.5190 hc        1 NNN      0.092700
     32 H13A        0.2380    0.7110    0.4860 hc        1 NNN      0.092700
     33 H14        -1.4830   -1.0690   -0.2590 hc        1 NNN      0.064033
     34 H14A       -1.0030   -2.0540    1.1780 hc        1 NNN      0.064033
     35 H14B        0.2060   -1.6750   -0.1300 hc        1 NNN      0.064033
     36 HN2         1.6320   -1.7060    1.4480 hn        1 NNN      0.488800
     37 H8          3.8420   -4.5070    7.7520 h4        1 NNN      0.113800
     38 H9          0.5280   -4.5160    5.3980 hc        1 NNN      0.081700
     39 H10         0.7630   -6.8620    6.1910 hc        1 NNN      0.059033
     40 H10A        2.1150   -6.4200    5.0660 hc        1 NNN      0.059033
     41 H10B        2.4110   -6.5080    6.8560 hc        1 NNN      0.059033
     42 H11         0.2900   -3.4510    7.6500 hc        1 NNN      0.059033
     43 H11A       -0.2750   -5.1740    7.6580 hc        1 NNN      0.059033
     44 H11B        1.3270   -4.7470    8.3900 hc        1 NNN      0.059033
     45 HN6         6.5610   -1.5960    4.8480 hn        1 NNN      0.485800
     46 HA'         6.4210   -0.1550    2.8880 hx        1 NNN      0.117200
     47 HA'A        5.6480    1.1270    3.9620 hx        1 NNN      0.117200
     48 H6'         6.9660    2.2820    5.6760 ha        1 NNN      0.140000
     49 H5'         9.2290    3.0530    6.3700 ha        1 NNN      0.171500
     50 H4'        11.2690    1.9330    5.4610 ha        1 NNN      0.175000
     51 H3'        11.0440    0.0300    3.8550 ha        1 NNN      0.171500
     52 H2'         8.7870   -0.7500    3.1530 ha        1 NNN      0.140000
     53 H22         2.4460   -0.2340    1.6000 hn        1 NNN      0.488800
     54 H62         5.8640   -0.4340    5.8260 hn        1 NNN      0.485800
@<TRIPOS>BOND
     1    1    2 1   
     2    1   27 1   
     3    2    3 1   
     4    2   28 1   
     5    2   29 1   
     6    3    4 1   
     7    3    6 1   
     8    3   30 1   
     9    4    5 1   
    10    4   31 1   
    11    4   32 1   
    12    5   33 1   
    13    5   34 1   
    14    5   35 1   
    15    6    7 1   
    16    6   36 1   
    17    6   53 1   
    18    7    8 1   
    19    7   18 2   
    20    8    9 2   
    21    9   10 1   
    22    9   19 1   
    23   10   11 1   
    24   10   17 1   
    25   11   12 2   
    26   12   13 1   
    27   12   37 1   
    28   13   14 1   
    29   13   17 2   
    30   14   15 1   
    31   14   16 1   
    32   14   38 1   
    33   15   39 1   
    34   15   40 1   
    35   15   41 1   
    36   16   42 1   
    37   16   43 1   
    38   16   44 1   
    39   17   18 1   
    40   19   20 1   
    41   19   45 1   
    42   19   54 1   
    43   20   21 1   
    44   20   46 1   
    45   20   47 1   
    46   21   22 ar  
    47   21   26 ar  
    48   22   23 ar  
    49   22   48 1   
    50   23   24 ar  
    51   23   49 1   
    52   24   25 ar  
    53   24   50 1   
    54   25   26 ar  
    55   25   51 1   
    56   26   52 1   
@<TRIPOS>SUBSTRUCTURE
     1 NNN         1 TEMP              0 ****  ****    0 ROOT
