@<TRIPOS>MOLECULE
NNN
   52    47     1     0     0
SMALL
bcc


@<TRIPOS>ATOM
      1 O1         -5.2080   -0.4470   -1.6090 oh        1 NNN     -0.330000
      2 C15        -4.4390    0.7560   -1.1950 c3        1 NNN     -0.036000
      3 C12        -3.2240    0.9270   -2.1050 c3        1 NNN     -0.022000
      4 C13        -3.5880    1.7140   -3.2550 c3        1 NNN     -0.162000
      5 C14        -4.4290    0.8190   -4.2500 c3        1 NNN     -0.215000
      6 N2         -2.1640    1.6080   -1.3760 n3        1 NNN     -0.272000
      7 C2         -1.1810    0.8660   -0.6920 c2        1 NNN      0.199000
      8 N1          0.1010    1.4160   -0.5050 n1        1 NNN     -0.322000
      9 C6          1.0130    0.7770    0.3110 c1        1 NNN      0.296000
     10 N5          0.6710   -0.3940    0.9400 n1        1 NNN     -0.164000
     11 N7          1.4050   -1.2570    1.7660 n1        1 NNN     -0.106000
     12 C8          0.6020   -2.3250    2.0900 c1        1 NNN     -0.103000
     13 C9'        -0.6660   -2.1350    1.4570 c1        1 NNN     -0.198000
     14 C9         -1.8010   -3.1270    1.6440 c2        1 NNN     -0.025000
     15 C10        -1.3810   -4.4740    1.1270 c3        1 NNN     -0.205000
     16 C11        -2.1670   -3.2420    3.2280 c3        1 NNN     -0.205000
     17 C4         -0.6150   -0.9510    0.7560 c1        1 NNN      0.081000
     18 N3         -1.5260   -0.3220   -0.0530 n2        1 NNN     -0.258000
     19 N6          2.3190    1.3630    0.5380 n3        1 NNN     -0.283000
     20 CA'         3.4550    0.8610   -0.1430 c3        1 NNN      0.005000
     21 C1'         4.6850    1.5100    0.4060 c2        1 NNN     -0.110000
     22 C6'         5.0310    2.7830    0.0040 c2        1 NNN     -0.125000
     23 C5'         6.2270    3.3660    0.4650 c1        1 NNN     -0.128000
     24 C4'         7.0750    2.6460    1.3410 c1        1 NNN     -0.124500
     25 C3'         6.7240    1.3530    1.7500 c1        1 NNN     -0.124500
     26 C2'         5.5440    0.7790    1.2940 c1        1 NNN     -0.106000
     27 HO1        -5.9520   -0.5150   -1.1090 ho        1 NNN      0.218000
     28 H15        -4.1530    0.6530   -0.3140 h1        1 NNN      0.088000
     29 H15A       -5.0030    1.5370   -1.2620 h1        1 NNN      0.088000
     30 H12        -2.9070    0.0360   -2.4030 h1        1 NNN      0.129000
     31 H13        -4.1500    2.5270   -2.9560 hc        1 NNN      0.085000
     32 H13A       -2.6910    2.0630   -3.7530 hc        1 NNN      0.085000
     33 H14        -5.1390    0.3290   -3.7420 hc        1 NNN      0.082667
     34 H14A       -4.8560    1.4020   -4.9430 hc        1 NNN      0.082667
     35 H14B       -3.7820    0.1120   -4.7260 hc        1 NNN      0.082667
     36 HN2        -2.1470    2.5580   -1.3440 hn        1 NNN      0.227000
     37 H8          0.8270   -3.0260    2.6770 DU        1 NNN      0.182000
     38 H9         -2.6020   -2.8130    1.1390 ha        1 NNN      0.102000
     39 H10        -0.8360   -4.8970    1.7650 hc        1 NNN      0.073333
     40 H10A       -0.8750   -4.3590    0.2800 hc        1 NNN      0.073333
     41 H10B       -2.2250   -5.0580    0.9490 hc        1 NNN      0.073333
     42 H11        -2.9770   -3.8250    3.3410 hc        1 NNN      0.073333
     43 H11A       -1.3600   -3.6620    3.7450 hc        1 NNN      0.073333
     44 H11B       -2.3640   -2.3060    3.6050 hc        1 NNN      0.073333
     45 HN6         2.4020    2.0680    1.0710 hn        1 NNN      0.243000
     46 HA'         3.5140   -0.0930   -0.0150 h1        1 NNN      0.113500
     47 HA'A        3.3750    1.0640   -1.1160 h1        1 NNN      0.113500
     48 H6'         4.4320    3.2930   -0.6180 ha        1 NNN      0.135000
     49 H5'         6.4820    4.3040    0.1670 ha        1 NNN      0.136000
     50 H4'         7.9130    3.0570    1.6640 ha        1 NNN      0.135500
     51 H3'         7.3270    0.8400    2.3720 ha        1 NNN      0.135500
     52 H2'         5.2880   -0.1600    1.5910 ha        1 NNN      0.139000
@<TRIPOS>BOND
     1    1    2 1   
     2    1   27 1   
     3    2    3 1   
     4    2   28 1   
     5    2   29 1   
     6    3    4 1   
     7    3    6 1   
     8    3   30 1   
     9    4    5 1   
    10    4   31 1   
    11    4   32 1   
    12    5   33 1   
    13    5   34 1   
    14    5   35 1   
    15    6    7 1   
    16    6   36 1   
    17    7    8 1   
    18    7   18 1   
    19    9   10 1   
    20    9   19 1   
    21   11   12 1   
    22   12   13 1   
    23   13   17 1   
    24   14   15 1   
    25   14   16 1   
    26   14   38 1   
    27   15   39 1   
    28   15   40 1   
    29   15   41 1   
    30   16   42 1   
    31   16   43 1   
    32   16   44 1   
    33   17   18 1   
    34   19   20 1   
    35   19   45 1   
    36   20   21 1   
    37   20   46 1   
    38   20   47 1   
    39   21   22 1   
    40   21   26 1   
    41   22   23 1   
    42   22   48 1   
    43   23   49 1   
    44   24   25 1   
    45   24   50 1   
    46   25   51 1   
    47   26   52 1   
@<TRIPOS>SUBSTRUCTURE
     1 NNN         1 TEMP              0 ****  ****    0 ROOT
