@<TRIPOS>MOLECULE
NNN
   52    54     1     0     0
SMALL
bcc


@<TRIPOS>ATOM
      1 O1          0.1560   -0.1930   -0.2480 oh        1 NNN     -0.605800
      2 C15         1.4870    0.2290   -0.0050 c3        1 NNN      0.122400
      3 C12         1.7480    0.1460    1.5200 c3        1 NNN      0.214500
      4 C13         0.7440    1.0720    2.2270 c3        1 NNN     -0.106400
      5 C14         1.0330    1.2410    3.6930 c3        1 NNN     -0.094100
      6 N2          1.7020   -1.2390    1.9460 nu        1 NNN     -0.816900
      7 C2          2.3680   -1.6890    3.0970 cc        1 NNN      0.917900
      8 N1          3.5090   -0.9660    3.5150 nc        1 NNN     -0.839000
      9 C6          4.2500   -1.4720    4.5310 cd        1 NNN      0.847400
     10 N5          3.8590   -2.6730    5.1790 na        1 NNN     -0.173600
     11 N7          4.4350   -3.3360    6.2030 nc        1 NNN     -0.582100
     12 C8          3.6530   -4.4190    6.4280 cd        1 NNN      0.402500
     13 C9'         2.5250   -4.4800    5.5260 cd        1 NNN     -0.291800
     14 C9          1.4720   -5.5090    5.4750 c3        1 NNN      0.017500
     15 C10         2.0620   -6.8750    5.1720 c3        1 NNN     -0.086100
     16 C11         0.6920   -5.5540    6.7780 c3        1 NNN     -0.086100
     17 C4          2.6550   -3.3350    4.7020 cd        1 NNN      0.438500
     18 N3          1.9000   -2.8370    3.6730 nd        1 NNN     -0.774000
     19 N6          5.4260   -0.8520    4.9320 nu        1 NNN     -0.860900
     20 CA'         5.7680    0.4640    4.4380 c3        1 NNN      0.268100
     21 C1'         6.9890    1.0230    5.1080 ca        1 NNN     -0.119300
     22 C6'         6.9170    2.2510    5.7740 ca        1 NNN     -0.113500
     23 C5'         8.0590    2.7930    6.3620 ca        1 NNN     -0.130500
     24 C4'         9.2730    2.1090    6.2960 ca        1 NNN     -0.118000
     25 C3'         9.3450    0.8820    5.6360 ca        1 NNN     -0.130500
     26 C2'         8.2070    0.3390    5.0410 ca        1 NNN     -0.113500
     27 HO1         0.0740   -0.3200   -1.2000 ho        1 NNN      0.405000
     28 H15         2.2150   -0.4160   -0.5650 h1        1 NNN      0.035200
     29 H15A        1.6090    1.2960   -0.3310 h1        1 NNN      0.035200
     30 H12         2.7890    0.5530    1.6850 h1        1 NNN      0.086700
     31 H13         0.7910    2.0720    1.7190 hc        1 NNN      0.054200
     32 H13A       -0.2960    0.6760    2.0780 hc        1 NNN      0.054200
     33 H14         2.0790    1.6020    3.8520 hc        1 NNN      0.036700
     34 H14A        0.9110    0.2740    4.2390 hc        1 NNN      0.036700
     35 H14B        0.3290    1.9840    4.1390 hc        1 NNN      0.036700
     36 HN2         0.8170   -1.6760    1.7720 hn        1 NNN      0.440800
     37 H8          3.8900   -5.1390    7.2150 h4        1 NNN      0.051800
     38 H9          0.7540   -5.2440    4.6450 hc        1 NNN      0.068700
     39 H10         2.5920   -6.8600    4.1890 hc        1 NNN      0.032533
     40 H10A        1.2510   -7.6410    5.1290 hc        1 NNN      0.032533
     41 H10B        2.7910   -7.1720    5.9630 hc        1 NNN      0.032533
     42 H11         0.2130   -4.5660    6.9780 hc        1 NNN      0.032533
     43 H11A        1.3690   -5.8000    7.6310 hc        1 NNN      0.032533
     44 H11B       -0.1050   -6.3330    6.7190 hc        1 NNN      0.032533
     45 HN6         5.8620   -1.1540    5.7760 hn        1 NNN      0.463800
     46 HA'         4.8970    1.1700    4.5800 h1        1 NNN      0.063700
     47 HA'A        5.9620    0.3840    3.3270 h1        1 NNN      0.063700
     48 H6'         5.9600    2.7920    5.8320 ha        1 NNN      0.138500
     49 H5'         8.0000    3.7600    6.8820 ha        1 NNN      0.136500
     50 H4'        10.1720    2.5370    6.7630 ha        1 NNN      0.135000
     51 H3'        10.3020    0.3410    5.5830 ha        1 NNN      0.136500
     52 H2'         8.2670   -0.6260    4.5150 ha        1 NNN      0.138500
@<TRIPOS>BOND
     1    1    2 1   
     2    1   27 1   
     3    2    3 1   
     4    2   28 1   
     5    2   29 1   
     6    3    4 1   
     7    3    6 1   
     8    3   30 1   
     9    4    5 1   
    10    4   31 1   
    11    4   32 1   
    12    5   33 1   
    13    5   34 1   
    14    5   35 1   
    15    6    7 1   
    16    6   36 1   
    17    7    8 1   
    18    7   18 2   
    19    8    9 2   
    20    9   10 1   
    21    9   19 1   
    22   10   11 1   
    23   10   17 1   
    24   11   12 2   
    25   12   13 1   
    26   12   37 1   
    27   13   14 1   
    28   13   17 2   
    29   14   15 1   
    30   14   16 1   
    31   14   38 1   
    32   15   39 1   
    33   15   40 1   
    34   15   41 1   
    35   16   42 1   
    36   16   43 1   
    37   16   44 1   
    38   17   18 1   
    39   19   20 1   
    40   19   45 1   
    41   20   21 1   
    42   20   46 1   
    43   20   47 1   
    44   21   22 ar  
    45   21   26 ar  
    46   22   23 ar  
    47   22   48 1   
    48   23   24 ar  
    49   23   49 1   
    50   24   25 ar  
    51   24   50 1   
    52   25   26 ar  
    53   25   51 1   
    54   26   52 1   
@<TRIPOS>SUBSTRUCTURE
     1 NNN         1 TEMP              0 ****  ****    0 ROOT
