@<TRIPOS>MOLECULE
NNN
   52    54     1     0     0
SMALL
bcc


@<TRIPOS>ATOM
      1 O1          0.1550   -0.1970   -0.2490 oh        1 NNN     -0.605800
      2 C15         1.4860    0.2260   -0.0050 c3        1 NNN      0.122400
      3 C12         1.7460    0.1440    1.5200 c3        1 NNN      0.214500
      4 C13         0.7410    1.0680    2.2270 c3        1 NNN     -0.106400
      5 C14         1.0310    1.2370    3.6930 c3        1 NNN     -0.094100
      6 N2          1.7020   -1.2420    1.9450 nh        1 NNN     -0.816900
      7 C2          2.3690   -1.6910    3.0960 cc        1 NNN      0.917900
      8 N1          3.5090   -0.9660    3.5140 nc        1 NNN     -0.839000
      9 C6          4.2510   -1.4720    4.5300 cd        1 NNN      0.847400
     10 N5          3.8620   -2.6740    5.1780 na        1 NNN     -0.173600
     11 N7          4.4390   -3.3370    6.2010 nc        1 NNN     -0.582100
     12 C8          3.6590   -4.4210    6.4260 cd        1 NNN      0.402500
     13 C9'         2.5300   -4.4830    5.5240 cd        1 NNN     -0.291800
     14 C9          1.4790   -5.5130    5.4730 c3        1 NNN      0.017500
     15 C10         2.0710   -6.8790    5.1700 c3        1 NNN     -0.086100
     16 C11         0.6990   -5.5590    6.7760 c3        1 NNN     -0.086100
     17 C4          2.6590   -3.3380    4.7010 cd        1 NNN      0.438500
     18 N3          1.9030   -2.8400    3.6720 nd        1 NNN     -0.774000
     19 N6          5.4260   -0.8500    4.9310 nh        1 NNN     -0.860900
     20 CA'         5.7660    0.4660    4.4380 c3        1 NNN      0.268100
     21 C1'         6.9860    1.0270    5.1080 ca        1 NNN     -0.119300
     22 C6'         6.9120    2.2530    5.7750 ca        1 NNN     -0.113500
     23 C5'         8.0540    2.7970    6.3640 ca        1 NNN     -0.130500
     24 C4'         9.2690    2.1150    6.2960 ca        1 NNN     -0.118000
     25 C3'         9.3430    0.8890    5.6350 ca        1 NNN     -0.130500
     26 C2'         8.2060    0.3450    5.0400 ca        1 NNN     -0.113500
     27 HO1         0.0730   -0.3250   -1.2010 ho        1 NNN      0.405000
     28 H15         2.2140   -0.4170   -0.5650 h1        1 NNN      0.035200
     29 H15A        1.6060    1.2940   -0.3320 h1        1 NNN      0.035200
     30 H12         2.7870    0.5510    1.6850 h1        1 NNN      0.086700
     31 H13         0.7870    2.0680    1.7190 hc        1 NNN      0.054200
     32 H13A       -0.2980    0.6710    2.0780 hc        1 NNN      0.054200
     33 H14         0.9100    0.2700    4.2390 hc        1 NNN      0.036700
     34 H14A        0.3250    1.9800    4.1390 hc        1 NNN      0.036700
     35 H14B        2.0750    1.6000    3.8520 hc        1 NNN      0.036700
     36 HN2         0.8180   -1.6800    1.7710 hn        1 NNN      0.440800
     37 H8          3.8970   -5.1410    7.2120 h4        1 NNN      0.051800
     38 H9          0.7610   -5.2490    4.6430 hc        1 NNN      0.068700
     39 H10         1.2600   -7.6450    5.1280 hc        1 NNN      0.032533
     40 H10A        2.8000   -7.1750    5.9610 hc        1 NNN      0.032533
     41 H10B        2.6000   -6.8630    4.1880 hc        1 NNN      0.032533
     42 H11        -0.0970   -6.3390    6.7170 hc        1 NNN      0.032533
     43 H11A        0.2180   -4.5720    6.9760 hc        1 NNN      0.032533
     44 H11B        1.3760   -5.8040    7.6300 hc        1 NNN      0.032533
     45 HN6         5.8630   -1.1520    5.7750 hn        1 NNN      0.463800
     46 HA'         4.8940    1.1710    4.5800 h1        1 NNN      0.063700
     47 HA'A        5.9600    0.3870    3.3270 h1        1 NNN      0.063700
     48 H6'         5.9550    2.7930    5.8350 ha        1 NNN      0.138500
     49 H5'         7.9930    3.7640    6.8850 ha        1 NNN      0.136500
     50 H4'        10.1670    2.5440    6.7630 ha        1 NNN      0.135000
     51 H3'        10.3010    0.3500    5.5800 ha        1 NNN      0.136500
     52 H2'         8.2670   -0.6190    4.5120 ha        1 NNN      0.138500
@<TRIPOS>BOND
     1    1    2 1   
     2    1   27 1   
     3    2    3 1   
     4    2   28 1   
     5    2   29 1   
     6    3    4 1   
     7    3    6 1   
     8    3   30 1   
     9    4    5 1   
    10    4   31 1   
    11    4   32 1   
    12    5   33 1   
    13    5   34 1   
    14    5   35 1   
    15    6    7 1   
    16    6   36 1   
    17    7    8 1   
    18    7   18 2   
    19    8    9 2   
    20    9   10 1   
    21    9   19 1   
    22   10   11 1   
    23   10   17 1   
    24   11   12 2   
    25   12   13 1   
    26   12   37 1   
    27   13   14 1   
    28   13   17 2   
    29   14   15 1   
    30   14   16 1   
    31   14   38 1   
    32   15   39 1   
    33   15   40 1   
    34   15   41 1   
    35   16   42 1   
    36   16   43 1   
    37   16   44 1   
    38   17   18 1   
    39   19   20 1   
    40   19   45 1   
    41   20   21 1   
    42   20   46 1   
    43   20   47 1   
    44   21   22 ar  
    45   21   26 ar  
    46   22   23 ar  
    47   22   48 1   
    48   23   24 ar  
    49   23   49 1   
    50   24   25 ar  
    51   24   50 1   
    52   25   26 ar  
    53   25   51 1   
    54   26   52 1   
@<TRIPOS>SUBSTRUCTURE
     1 NNN         1 TEMP              0 ****  ****    0 ROOT
