@<TRIPOS>MOLECULE
NNO
   15    15     1     0     0
SMALL
bcc


@<TRIPOS>ATOM
      1 N1         -0.0720    0.1680    0.0160 na        1 NNO      0.155600
      2 C2          1.3080    0.0920    0.0250 ca        1 NNO     -0.125300
      3 C3          2.0360   -0.0160    1.2140 ca        1 NNO     -0.138600
      4 C4          1.3650   -0.0510    2.4400 ca        1 NNO     -0.100000
      5 C5         -0.0240    0.0230    2.4680 ca        1 NNO     -0.153000
      6 C6         -0.7230    0.1310    1.2540 ca        1 NNO      0.020800
      7 C7          3.5610   -0.0960    1.1550 c         1 NNO      0.919200
      8 O1          4.1730   -0.1930    2.2520 o         1 NNO     -0.815300
      9 O2          4.1030   -0.0590    0.0180 o         1 NNO     -0.815300
     10 O4         -2.1000    0.2040    1.2930 oh        1 NNO     -0.511100
     11 O3         -0.7520    0.2650   -1.0190 o         1 NNO     -0.399000
     12 H2          1.8150    0.1220   -0.9580 h4        1 NNO      0.205000
     13 H4          1.9580   -0.1370    3.3640 ha        1 NNO      0.168000
     14 H5         -0.5980   -0.0010    3.4020 ha        1 NNO      0.143000
     15 HO4        -2.4300    0.2750    0.3780 ho        1 NNO      0.447000
@<TRIPOS>BOND
     1    1    2 1   
     2    1    6 2   
     3    1   11 1   
     4    2    3 ar  
     5    2   12 1   
     6    3    4 ar  
     7    3    7 1   
     8    4    5 ar  
     9    4   13 1   
    10    5    6 ar  
    11    5   14 1   
    12    6   10 1   
    13    7    8 1   
    14    7    9 1   
    15   10   15 1   
@<TRIPOS>SUBSTRUCTURE
     1 NNO         1 TEMP              0 ****  ****    0 ROOT
