@<TRIPOS>MOLECULE
NNO
   15    12     1     0     0
SMALL
bcc


@<TRIPOS>ATOM
      1 N1         -0.9060   -0.1670   -1.2090 n1        1 NNO     -0.068800
      2 C2          0.4520   -0.0630   -1.1770 c1        1 NNO     -0.043500
      3 C3          1.1130    0.0270    0.0380 cg        1 NNO     -0.087200
      4 C4          0.4030    0.0120    1.2030 c1        1 NNO     -0.069000
      5 C5         -0.9570   -0.0920    1.1700 c1        1 NNO     -0.069000
      6 C6         -1.6160   -0.1820   -0.0460 c1        1 NNO      0.354400
      7 C7          2.6200    0.1630    0.0710 c         1 NNO      0.867800
      8 O1          3.1490    1.3050    0.0480 o         1 NNO     -0.815300
      9 O2          3.3440   -0.8650    0.1260 o         1 NNO     -0.815300
     10 O4         -3.0180   -0.3000   -0.0800 oh        1 NNO     -0.494600
     11 O3         -1.5560   -0.2530   -2.4070 o         1 NNO     -0.549000
     12 H2          0.9600   -0.0530   -2.0110 ha        1 NNO      0.147500
     13 H4          0.8640    0.1130    2.0570 ha        1 NNO      0.098000
     14 H5         -1.4660   -0.1020    2.0030 ha        1 NNO      0.098000
     15 HO4        -3.3860    0.4550    0.2130 ho        1 NNO      0.447000
@<TRIPOS>BOND
     1    1    6 3   
     2    1   11 1   
     3    2    3 3   
     4    2   12 1   
     5    3    7 1   
     6    4    5 3   
     7    4   13 1   
     8    5   14 1   
     9    6   10 1   
    10    7    8 1   
    11    7    9 1   
    12   10   15 1   
@<TRIPOS>SUBSTRUCTURE
     1 NNO         1 TEMP              0 ****  ****    0 ROOT
