@<TRIPOS>MOLECULE
NNO
   15    15     1     0     0
SMALL
bcc


@<TRIPOS>ATOM
      1 N1         -1.3630    0.7180    0.1610 na        1 NNO      0.155600
      2 C2          0.0050    0.8980    0.0960 ca        1 NNO     -0.125300
      3 C3          0.8890   -0.1810   -0.0020 ca        1 NNO     -0.138600
      4 C4          0.3920   -1.4880   -0.0360 ca        1 NNO     -0.100000
      5 C5         -0.9810   -1.7040    0.0270 ca        1 NNO     -0.153000
      6 C6         -1.8390   -0.5980    0.1250 ca        1 NNO      0.020800
      7 C7          2.3930    0.0850   -0.0710 c         1 NNO      0.919200
      8 O1          3.1500   -0.9190   -0.1580 o         1 NNO     -0.815300
      9 O2          2.7750    1.2860   -0.0350 o         1 NNO     -0.815300
     10 O4         -3.1980   -0.8240    0.1880 oh        1 NNO     -0.511100
     11 O3         -2.1790    1.6510    0.2480 o         1 NNO     -0.399000
     12 H2          0.3730    1.9410    0.1240 h4        1 NNO      0.205000
     13 H4          1.1070   -2.3230   -0.1140 ha        1 NNO      0.168000
     14 H5         -1.4220   -2.7090    0.0040 ha        1 NNO      0.143000
     15 HO4        -3.6510    0.0380    0.2520 ho        1 NNO      0.447000
@<TRIPOS>BOND
     1    1    2 1   
     2    1    6 2   
     3    1   11 1   
     4    2    3 ar  
     5    2   12 1   
     6    3    4 ar  
     7    3    7 1   
     8    4    5 ar  
     9    4   13 1   
    10    5    6 ar  
    11    5   14 1   
    12    6   10 1   
    13    7    8 1   
    14    7    9 1   
    15   10   15 1   
@<TRIPOS>SUBSTRUCTURE
     1 NNO         1 TEMP              0 ****  ****    0 ROOT
