@<TRIPOS>MOLECULE
NNQ
   45    46     1     0     0
SMALL
bcc


@<TRIPOS>ATOM
      1 CAA         9.4090   -0.4200    0.4130 c3        1 NNQ     -0.093100
      2 CAH         8.0130   -0.6790    0.9180 c3        1 NNQ     -0.080400
      3 CAI         6.9690   -0.1100   -0.0200 c3        1 NNQ     -0.079400
      4 CAJ         5.5680   -0.3720    0.4910 c3        1 NNQ     -0.079400
      5 CAK         4.5260    0.1970   -0.4470 c3        1 NNQ     -0.079400
      6 CAL         3.1260   -0.0660    0.0650 c3        1 NNQ     -0.079400
      7 CAM         2.0840    0.5030   -0.8750 c3        1 NNQ     -0.080400
      8 CAN         0.6830    0.2430   -0.3590 c3        1 NNQ     -0.080400
      9 CAO        -0.3530    0.8020   -1.3140 c3        1 NNQ     -0.058200
     10 CAQ        -1.7510    0.6610   -0.7790 cc        1 NNQ      0.162800
     11 CAG        -2.5030    1.7620   -0.4810 cd        1 NNQ     -0.324200
     12 CAR        -3.8650    1.6540    0.0270 c         1 NNQ      0.585900
     13 OAB        -4.5560    2.6510    0.2990 o         1 NNQ     -0.573100
     14 CAT        -4.3660    0.2790    0.1980 ca        1 NNQ     -0.205600
     15 CAF        -5.6620    0.0510    0.6830 ca        1 NNQ     -0.042000
     16 CAD        -6.1430   -1.2390    0.8490 ca        1 NNQ     -0.179000
     17 CAC        -5.3270   -2.3320    0.5290 ca        1 NNQ     -0.071000
     18 CAE        -4.0430   -2.1440    0.0470 ca        1 NNQ     -0.201000
     19 CAS        -3.5410   -0.8280   -0.1280 ca        1 NNQ      0.187600
     20 NAP        -2.2540   -0.6220   -0.6170 na        1 NNQ     -0.617400
     21 H1          9.5970    0.6770    0.3180 hc        1 NNQ      0.033033
     22 H2         10.1620   -0.8470    1.1180 hc        1 NNQ      0.033033
     23 H3          9.5590   -0.8880   -0.5900 hc        1 NNQ      0.033033
     24 H4          7.8510   -1.7830    1.0300 hc        1 NNQ      0.038700
     25 H5          7.8890   -0.2220    1.9350 hc        1 NNQ      0.038700
     26 H6          7.1270    0.9950   -0.1320 hc        1 NNQ      0.040200
     27 H7          7.0900   -0.5660   -1.0380 hc        1 NNQ      0.040200
     28 H8          5.4100   -1.4770    0.6040 hc        1 NNQ      0.040200
     29 H9          5.4470    0.0840    1.5090 hc        1 NNQ      0.040200
     30 H10         4.6840    1.3020   -0.5590 hc        1 NNQ      0.040700
     31 H11         4.6470   -0.2590   -1.4650 hc        1 NNQ      0.040700
     32 H12         2.9680   -1.1710    0.1780 hc        1 NNQ      0.041700
     33 H13         3.0040    0.3910    1.0820 hc        1 NNQ      0.041700
     34 H14         2.2430    1.6080   -0.9890 hc        1 NNQ      0.043200
     35 H15         2.2030    0.0450   -1.8920 hc        1 NNQ      0.043200
     36 H16         0.5350   -0.8610   -0.2300 hc        1 NNQ      0.046200
     37 H17         0.5600    0.7150    0.6510 hc        1 NNQ      0.046200
     38 H18        -0.1480    1.8920   -1.4920 hc        1 NNQ      0.065700
     39 H19        -0.2740    0.2840   -2.3080 hc        1 NNQ      0.065700
     40 H20        -2.1000    2.7750   -0.6170 ha        1 NNQ      0.161000
     41 H21        -6.2870    0.9270    0.9290 ha        1 NNQ      0.160000
     42 H22        -7.1600   -1.4080    1.2300 ha        1 NNQ      0.139000
     43 H23        -5.7120   -3.3550    0.6620 ha        1 NNQ      0.134000
     44 H24        -3.4160   -3.0130   -0.2000 ha        1 NNQ      0.133000
     45 H25        -1.6790   -1.4050   -0.8210 hn        1 NNQ      0.448800
@<TRIPOS>BOND
     1    1    2 1   
     2    1   21 1   
     3    1   22 1   
     4    1   23 1   
     5    2    3 1   
     6    2   24 1   
     7    2   25 1   
     8    3    4 1   
     9    3   26 1   
    10    3   27 1   
    11    4    5 1   
    12    4   28 1   
    13    4   29 1   
    14    5    6 1   
    15    5   30 1   
    16    5   31 1   
    17    6    7 1   
    18    6   32 1   
    19    6   33 1   
    20    7    8 1   
    21    7   34 1   
    22    7   35 1   
    23    8    9 1   
    24    8   36 1   
    25    8   37 1   
    26    9   10 1   
    27    9   38 1   
    28    9   39 1   
    29   10   11 2   
    30   10   20 1   
    31   11   12 1   
    32   11   40 1   
    33   12   13 2   
    34   12   14 1   
    35   14   15 ar  
    36   14   19 ar  
    37   15   16 ar  
    38   15   41 1   
    39   16   17 ar  
    40   16   42 1   
    41   17   18 ar  
    42   17   43 1   
    43   18   19 ar  
    44   18   44 1   
    45   19   20 1   
    46   20   45 1   
@<TRIPOS>SUBSTRUCTURE
     1 NNQ         1 TEMP              0 ****  ****    0 ROOT
