@<TRIPOS>MOLECULE
NNQ
   45    40     1     0     0
SMALL
bcc


@<TRIPOS>ATOM
      1 CAA        -6.4160    1.0890   -4.7570 c3        1 NNQ     -0.211000
      2 CAH        -5.2960    0.1490   -4.3660 c3        1 NNQ     -0.159000
      3 CAI        -4.2530    0.9090   -3.5750 c3        1 NNQ     -0.158000
      4 CAJ        -3.3600   -0.0720   -2.8440 c3        1 NNQ     -0.158000
      5 CAK        -2.0950    0.6330   -2.3970 c3        1 NNQ     -0.158000
      6 CAL        -1.4840   -0.1180   -1.2330 c3        1 NNQ     -0.158000
      7 CAM         0.0160    0.0900   -1.2310 c3        1 NNQ     -0.159000
      8 CAN         0.5440   -0.0590    0.1810 c3        1 NNQ     -0.159000
      9 CAO         1.8790   -0.7700    0.1480 c3        1 NNQ     -0.141000
     10 CAQ         2.6730   -0.4100    1.3850 c1        1 NNQ      0.085000
     11 CAG         3.5760    0.7550    1.3670 c1        1 NNQ     -0.305000
     12 CAR         4.4070    1.0410    2.5190 c1        1 NNQ      0.307000
     13 OAB         5.1520    2.0000    2.5080 o         1 NNQ     -0.334000
     14 CAT         4.3460    0.1450    3.7320 c1        1 NNQ     -0.185000
     15 CAF         5.1500    0.4160    4.8420 c1        1 NNQ     -0.123250
     16 CAD         5.0970   -0.4150    5.9620 c1        1 NNQ     -0.123250
     17 CAC         4.2350   -1.5240    5.9740 c1        1 NNQ     -0.123250
     18 CAE         3.4320   -1.7970    4.8660 c1        1 NNQ     -0.123250
     19 CAS         3.4830   -0.9650    3.7440 c1        1 NNQ      0.106000
     20 NAP         2.6190   -1.2630    2.5490 n2        1 NNQ     -0.249000
     21 H1         -7.1020    0.5920   -5.2490 hc        1 NNQ      0.072333
     22 H2         -6.0590    1.8040   -5.3250 hc        1 NNQ      0.072333
     23 H3         -6.8110    1.4800   -3.9490 hc        1 NNQ      0.072333
     24 H4         -4.8860   -0.2230   -5.1720 hc        1 NNQ      0.078000
     25 H5         -5.6550   -0.5770   -3.8180 hc        1 NNQ      0.078000
     26 H6         -3.7120    1.4510   -4.1840 hc        1 NNQ      0.079500
     27 H7         -4.6960    1.4920   -2.9260 hc        1 NNQ      0.079500
     28 H8         -3.8310   -0.4220   -2.0620 hc        1 NNQ      0.079500
     29 H9         -3.1280   -0.8100   -3.4430 hc        1 NNQ      0.079500
     30 H10        -1.4580    0.6600   -3.1390 hc        1 NNQ      0.080000
     31 H11        -2.3110    1.5450   -2.1200 hc        1 NNQ      0.080000
     32 H12        -1.6810   -1.0720   -1.3200 hc        1 NNQ      0.081000
     33 H13        -1.8600    0.2170   -0.3950 hc        1 NNQ      0.081000
     34 H14         0.2220    0.9860   -1.5630 hc        1 NNQ      0.082500
     35 H15         0.4380   -0.5780   -1.8090 hc        1 NNQ      0.082500
     36 H16         0.6560    0.8260    0.5820 hc        1 NNQ      0.085500
     37 H17        -0.0900   -0.5800    0.7130 hc        1 NNQ      0.085500
     38 H18         2.3750   -0.4950   -0.6490 hc        1 NNQ      0.105000
     39 H19         1.7330   -1.7370    0.1240 hc        1 NNQ      0.105000
     40 H20         3.6610    1.2940    0.5580 ha        1 NNQ      0.161000
     41 H21         5.7500    1.1870    4.8350 ha        1 NNQ      0.141500
     42 H22         5.6590   -0.2260    6.7370 ha        1 NNQ      0.141500
     43 H23         4.1990   -2.1050    6.7570 ha        1 NNQ      0.141500
     44 H24         2.8330   -2.5680    4.8750 ha        1 NNQ      0.141500
     45 H25         2.0480   -1.9740    2.5670 hn        1 NNQ      0.244000
@<TRIPOS>BOND
     1    1    2 1   
     2    1   21 1   
     3    1   22 1   
     4    1   23 1   
     5    2    3 1   
     6    2   24 1   
     7    2   25 1   
     8    3    4 1   
     9    3   26 1   
    10    3   27 1   
    11    4    5 1   
    12    4   28 1   
    13    4   29 1   
    14    5    6 1   
    15    5   30 1   
    16    5   31 1   
    17    6    7 1   
    18    6   32 1   
    19    6   33 1   
    20    7    8 1   
    21    7   34 1   
    22    7   35 1   
    23    8    9 1   
    24    8   36 1   
    25    8   37 1   
    26    9   10 1   
    27    9   38 1   
    28    9   39 1   
    29   10   11 1   
    30   11   40 1   
    31   12   13 1   
    32   14   19 1   
    33   15   16 1   
    34   15   41 1   
    35   16   42 1   
    36   17   18 1   
    37   17   43 1   
    38   18   44 1   
    39   19   20 1   
    40   20   45 1   
@<TRIPOS>SUBSTRUCTURE
     1 NNQ         1 TEMP              0 ****  ****    0 ROOT
