@<TRIPOS>MOLECULE
NNQ
   45    46     1     0     0
SMALL
bcc


@<TRIPOS>ATOM
      1 CAA         0.0170   -0.0340   -0.0260 c3        1 NNQ     -0.093100
      2 CAH         1.5160   -0.1770    0.0190 c3        1 NNQ     -0.080400
      3 CAI         2.0500    0.0130    1.4240 c3        1 NNQ     -0.079400
      4 CAJ         3.5560   -0.1320    1.4650 c3        1 NNQ     -0.079400
      5 CAK         4.0880    0.0600    2.8690 c3        1 NNQ     -0.079400
      6 CAL         5.5940   -0.0870    2.9100 c3        1 NNQ     -0.079400
      7 CAM         6.1250    0.1060    4.3140 c3        1 NNQ     -0.080400
      8 CAN         7.6310   -0.0410    4.3540 c3        1 NNQ     -0.080400
      9 CAO         8.1530    0.1400    5.7650 c3        1 NNQ     -0.058200
     10 CAQ         9.6550    0.1090    5.8240 cc        1 NNQ      0.162800
     11 CAG        10.3660    1.2120    6.2030 cd        1 NNQ     -0.324200
     12 CAR        11.8220    1.2050    6.2790 c         1 NNQ      0.585900
     13 OAB        12.4760    2.2040    6.6240 o         1 NNQ     -0.573100
     14 CAT        12.4650   -0.0700    5.9170 ca        1 NNQ     -0.205600
     15 CAF        13.8620   -0.1950    5.9510 ca        1 NNQ     -0.042000
     16 CAD        14.4770   -1.3900    5.6110 ca        1 NNQ     -0.179000
     17 CAC        13.6980   -2.4900    5.2280 ca        1 NNQ     -0.071000
     18 CAE        12.3170   -2.4020    5.1840 ca        1 NNQ     -0.201000
     19 CAS        11.6760   -1.1840    5.5310 ca        1 NNQ      0.187600
     20 NAP        10.2880   -1.0810    5.4970 na        1 NNQ     -0.617400
     21 H1         -0.2940    0.9800    0.3230 hc        1 NNQ      0.033033
     22 H2         -0.3550   -0.1780   -1.0690 hc        1 NNQ      0.033033
     23 H3         -0.4720   -0.7940    0.6300 hc        1 NNQ      0.033033
     24 H4          1.9880    0.5780   -0.6640 hc        1 NNQ      0.038700
     25 H5          1.8100   -1.1920   -0.3570 hc        1 NNQ      0.038700
     26 H6          1.7590    1.0290    1.8010 hc        1 NNQ      0.040200
     27 H7          1.5800   -0.7400    2.1090 hc        1 NNQ      0.040200
     28 H8          3.8460   -1.1480    1.0880 hc        1 NNQ      0.040200
     29 H9          4.0250    0.6220    0.7790 hc        1 NNQ      0.040200
     30 H10         3.7990    1.0770    3.2450 hc        1 NNQ      0.040700
     31 H11         3.6170   -0.6920    3.5560 hc        1 NNQ      0.040700
     32 H12         6.0640    0.6650    2.2240 hc        1 NNQ      0.041700
     33 H13         5.8820   -1.1040    2.5340 hc        1 NNQ      0.041700
     34 H14         5.8360    1.1230    4.6890 hc        1 NNQ      0.043200
     35 H15         5.6540   -0.6460    5.0020 hc        1 NNQ      0.043200
     36 H16         7.9160   -1.0530    3.9620 hc        1 NNQ      0.046200
     37 H17         8.1020    0.7210    3.6770 hc        1 NNQ      0.046200
     38 H18         7.7310   -0.6590    6.4320 hc        1 NNQ      0.065700
     39 H19         7.8020    1.1280    6.1700 hc        1 NNQ      0.065700
     40 H20         9.8570    2.1500    6.4650 ha        1 NNQ      0.161000
     41 H21        14.4550    0.6840    6.2550 ha        1 NNQ      0.160000
     42 H22        15.5720   -1.4790    5.6400 ha        1 NNQ      0.139000
     43 H23        14.1910   -3.4370    4.9580 ha        1 NNQ      0.134000
     44 H24        11.7210   -3.2750    4.8810 ha        1 NNQ      0.133000
     45 H25         9.7490   -1.8620    5.2050 hn        1 NNQ      0.448800
@<TRIPOS>BOND
     1    1    2 1   
     2    1   21 1   
     3    1   22 1   
     4    1   23 1   
     5    2    3 1   
     6    2   24 1   
     7    2   25 1   
     8    3    4 1   
     9    3   26 1   
    10    3   27 1   
    11    4    5 1   
    12    4   28 1   
    13    4   29 1   
    14    5    6 1   
    15    5   30 1   
    16    5   31 1   
    17    6    7 1   
    18    6   32 1   
    19    6   33 1   
    20    7    8 1   
    21    7   34 1   
    22    7   35 1   
    23    8    9 1   
    24    8   36 1   
    25    8   37 1   
    26    9   10 1   
    27    9   38 1   
    28    9   39 1   
    29   10   11 2   
    30   10   20 1   
    31   11   12 1   
    32   11   40 1   
    33   12   13 2   
    34   12   14 1   
    35   14   15 ar  
    36   14   19 ar  
    37   15   16 ar  
    38   15   41 1   
    39   16   17 ar  
    40   16   42 1   
    41   17   18 ar  
    42   17   43 1   
    43   18   19 ar  
    44   18   44 1   
    45   19   20 1   
    46   20   45 1   
@<TRIPOS>SUBSTRUCTURE
     1 NNQ         1 TEMP              0 ****  ****    0 ROOT
