@<TRIPOS>MOLECULE
NNQ
   45    46     1     0     0
SMALL
bcc


@<TRIPOS>ATOM
      1 CAA         0.0130   -0.0370   -0.0190 c3        1 NNQ     -0.093100
      2 CAH         1.5120   -0.1800    0.0260 c3        1 NNQ     -0.080400
      3 CAI         2.0470    0.0110    1.4290 c3        1 NNQ     -0.079400
      4 CAJ         3.5530   -0.1350    1.4690 c3        1 NNQ     -0.079400
      5 CAK         4.0860    0.0580    2.8730 c3        1 NNQ     -0.079400
      6 CAL         5.5920   -0.0900    2.9130 c3        1 NNQ     -0.079400
      7 CAM         6.1250    0.1030    4.3160 c3        1 NNQ     -0.080400
      8 CAN         7.6320   -0.0420    4.3540 c3        1 NNQ     -0.080400
      9 CAO         8.1540    0.1390    5.7650 c3        1 NNQ     -0.058200
     10 CAQ         9.6570    0.1090    5.8220 cc        1 NNQ      0.162800
     11 CAG        10.3660    1.2120    6.2010 cd        1 NNQ     -0.324200
     12 CAR        11.8230    1.2080    6.2760 c         1 NNQ      0.585900
     13 OAB        12.4760    2.2070    6.6220 o         1 NNQ     -0.573100
     14 CAT        12.4670   -0.0660    5.9120 ca        1 NNQ     -0.205600
     15 CAF        13.8640   -0.1890    5.9430 ca        1 NNQ     -0.042000
     16 CAD        14.4800   -1.3830    5.6010 ca        1 NNQ     -0.179000
     17 CAC        13.7030   -2.4830    5.2180 ca        1 NNQ     -0.071000
     18 CAE        12.3220   -2.3970    5.1760 ca        1 NNQ     -0.201000
     19 CAS        11.6790   -1.1810    5.5250 ca        1 NNQ      0.187600
     20 NAP        10.2910   -1.0790    5.4930 na        1 NNQ     -0.617400
     21 H1         -0.2960    0.9790    0.3290 hc        1 NNQ      0.033033
     22 H2         -0.3600   -0.1810   -1.0610 hc        1 NNQ      0.033033
     23 H3         -0.4760   -0.7950    0.6390 hc        1 NNQ      0.033033
     24 H4          1.9840    0.5730   -0.6590 hc        1 NNQ      0.038700
     25 H5          1.8050   -1.1960   -0.3500 hc        1 NNQ      0.038700
     26 H6          1.7580    1.0280    1.8060 hc        1 NNQ      0.040200
     27 H7          1.5770   -0.7410    2.1160 hc        1 NNQ      0.040200
     28 H8          4.0230    0.6180    0.7820 hc        1 NNQ      0.040200
     29 H9          3.8420   -1.1510    1.0930 hc        1 NNQ      0.040200
     30 H10         3.7980    1.0750    3.2480 hc        1 NNQ      0.040700
     31 H11         3.6160   -0.6940    3.5600 hc        1 NNQ      0.040700
     32 H12         6.0630    0.6620    2.2250 hc        1 NNQ      0.041700
     33 H13         5.8800   -1.1070    2.5370 hc        1 NNQ      0.041700
     34 H14         5.8360    1.1210    4.6910 hc        1 NNQ      0.043200
     35 H15         5.6560   -0.6480    5.0040 hc        1 NNQ      0.043200
     36 H16         7.9170   -1.0540    3.9620 hc        1 NNQ      0.046200
     37 H17         8.1010    0.7200    3.6770 hc        1 NNQ      0.046200
     38 H18         7.7350   -0.6620    6.4320 hc        1 NNQ      0.065700
     39 H19         7.8030    1.1250    6.1700 hc        1 NNQ      0.065700
     40 H20         9.8570    2.1490    6.4650 ha        1 NNQ      0.161000
     41 H21        14.4560    0.6910    6.2480 ha        1 NNQ      0.160000
     42 H22        15.5760   -1.4700    5.6280 ha        1 NNQ      0.139000
     43 H23        14.1960   -3.4290    4.9460 ha        1 NNQ      0.134000
     44 H24        11.7260   -3.2700    4.8720 ha        1 NNQ      0.133000
     45 H25         9.7530   -1.8600    5.2000 hn        1 NNQ      0.448800
@<TRIPOS>BOND
     1    1    2 1   
     2    1   21 1   
     3    1   22 1   
     4    1   23 1   
     5    2    3 1   
     6    2   24 1   
     7    2   25 1   
     8    3    4 1   
     9    3   26 1   
    10    3   27 1   
    11    4    5 1   
    12    4   28 1   
    13    4   29 1   
    14    5    6 1   
    15    5   30 1   
    16    5   31 1   
    17    6    7 1   
    18    6   32 1   
    19    6   33 1   
    20    7    8 1   
    21    7   34 1   
    22    7   35 1   
    23    8    9 1   
    24    8   36 1   
    25    8   37 1   
    26    9   10 1   
    27    9   38 1   
    28    9   39 1   
    29   10   11 2   
    30   10   20 1   
    31   11   12 1   
    32   11   40 1   
    33   12   13 2   
    34   12   14 1   
    35   14   15 ar  
    36   14   19 ar  
    37   15   16 ar  
    38   15   41 1   
    39   16   17 ar  
    40   16   42 1   
    41   17   18 ar  
    42   17   43 1   
    43   18   19 ar  
    44   18   44 1   
    45   19   20 1   
    46   20   45 1   
@<TRIPOS>SUBSTRUCTURE
     1 NNQ         1 TEMP              0 ****  ****    0 ROOT
