@<TRIPOS>MOLECULE
NNQ
   45    46     1     0     0
SMALL
bcc


@<TRIPOS>ATOM
      1 CAA         0.0180   -0.0260   -0.0280 c3        1 NNQ     -0.093100
      2 CAH         1.5160   -0.1790    0.0200 c3        1 NNQ     -0.080400
      3 CAI         2.0510    0.0200    1.4230 c3        1 NNQ     -0.079400
      4 CAJ         3.5550   -0.1350    1.4660 c3        1 NNQ     -0.079400
      5 CAK         4.0880    0.0640    2.8690 c3        1 NNQ     -0.079400
      6 CAL         5.5930   -0.0910    2.9110 c3        1 NNQ     -0.079400
      7 CAM         6.1250    0.1080    4.3140 c3        1 NNQ     -0.080400
      8 CAN         7.6310   -0.0440    4.3540 c3        1 NNQ     -0.080400
      9 CAO         8.1530    0.1410    5.7650 c3        1 NNQ     -0.058200
     10 CAQ         9.6550    0.1080    5.8240 cc        1 NNQ      0.162800
     11 CAG        10.3660    1.2100    6.2040 cd        1 NNQ     -0.324200
     12 CAR        11.8220    1.2030    6.2800 c         1 NNQ      0.585900
     13 OAB        12.4770    2.2010    6.6260 o         1 NNQ     -0.573100
     14 CAT        12.4650   -0.0720    5.9180 ca        1 NNQ     -0.205600
     15 CAF        13.8620   -0.1980    5.9510 ca        1 NNQ     -0.042000
     16 CAD        14.4760   -1.3930    5.6100 ca        1 NNQ     -0.179000
     17 CAC        13.6970   -2.4920    5.2260 ca        1 NNQ     -0.071000
     18 CAE        12.3160   -2.4030    5.1830 ca        1 NNQ     -0.201000
     19 CAS        11.6760   -1.1850    5.5300 ca        1 NNQ      0.187600
     20 NAP        10.2880   -1.0820    5.4970 na        1 NNQ     -0.617400
     21 H1         -0.2850    0.9940    0.3110 hc        1 NNQ      0.033033
     22 H2         -0.3550   -0.1770   -1.0690 hc        1 NNQ      0.033033
     23 H3         -0.4770   -0.7760    0.6360 hc        1 NNQ      0.033033
     24 H4          1.9940    0.5650   -0.6710 hc        1 NNQ      0.038700
     25 H5          1.8020   -1.2010   -0.3470 hc        1 NNQ      0.038700
     26 H6          1.7670    1.0410    1.7910 hc        1 NNQ      0.040200
     27 H7          1.5750   -0.7240    2.1150 hc        1 NNQ      0.040200
     28 H8          4.0300    0.6090    0.7740 hc        1 NNQ      0.040200
     29 H9          3.8390   -1.1570    1.0970 hc        1 NNQ      0.040200
     30 H10         3.8050    1.0860    3.2360 hc        1 NNQ      0.040700
     31 H11         3.6130   -0.6800    3.5610 hc        1 NNQ      0.040700
     32 H12         6.0680    0.6540    2.2200 hc        1 NNQ      0.041700
     33 H13         5.8760   -1.1120    2.5420 hc        1 NNQ      0.041700
     34 H14         5.8400    1.1280    4.6830 hc        1 NNQ      0.043200
     35 H15         5.6520   -0.6390    5.0060 hc        1 NNQ      0.043200
     36 H16         7.9130   -1.0590    3.9670 hc        1 NNQ      0.046200
     37 H17         8.1040    0.7140    3.6750 hc        1 NNQ      0.046200
     38 H18         7.7310   -0.6570    6.4350 hc        1 NNQ      0.065700
     39 H19         7.8020    1.1290    6.1670 hc        1 NNQ      0.065700
     40 H20         9.8580    2.1480    6.4660 ha        1 NNQ      0.161000
     41 H21        14.4550    0.6810    6.2560 ha        1 NNQ      0.160000
     42 H22        15.5720   -1.4820    5.6390 ha        1 NNQ      0.139000
     43 H23        14.1890   -3.4390    4.9560 ha        1 NNQ      0.134000
     44 H24        11.7200   -3.2760    4.8790 ha        1 NNQ      0.133000
     45 H25         9.7480   -1.8620    5.2040 hn        1 NNQ      0.448800
@<TRIPOS>BOND
     1    1    2 1   
     2    1   21 1   
     3    1   22 1   
     4    1   23 1   
     5    2    3 1   
     6    2   24 1   
     7    2   25 1   
     8    3    4 1   
     9    3   26 1   
    10    3   27 1   
    11    4    5 1   
    12    4   28 1   
    13    4   29 1   
    14    5    6 1   
    15    5   30 1   
    16    5   31 1   
    17    6    7 1   
    18    6   32 1   
    19    6   33 1   
    20    7    8 1   
    21    7   34 1   
    22    7   35 1   
    23    8    9 1   
    24    8   36 1   
    25    8   37 1   
    26    9   10 1   
    27    9   38 1   
    28    9   39 1   
    29   10   11 2   
    30   10   20 1   
    31   11   12 1   
    32   11   40 1   
    33   12   13 2   
    34   12   14 1   
    35   14   15 ar  
    36   14   19 ar  
    37   15   16 ar  
    38   15   41 1   
    39   16   17 ar  
    40   16   42 1   
    41   17   18 ar  
    42   17   43 1   
    43   18   19 ar  
    44   18   44 1   
    45   19   20 1   
    46   20   45 1   
@<TRIPOS>SUBSTRUCTURE
     1 NNQ         1 TEMP              0 ****  ****    0 ROOT
