@<TRIPOS>MOLECULE
NNR
   33    32     1     0     0
SMALL
bcc


@<TRIPOS>ATOM
      1 O2R        -2.9860   -0.6470    0.8860 oh        1 NNR     -0.294000
      2 C2R        -1.5120   -0.6950    0.8970 c3        1 NNR     -0.022000
      3 C3R        -1.0670   -0.6690    2.1190 c3        1 NNR     -0.017000
      4 O3R        -2.0900   -1.2460    3.0410 oh        1 NNR     -0.308000
      5 C4R        -0.8210    0.8670    2.4710 c3        1 NNR     -0.032000
      6 C5R         0.1980    0.9890    3.5800 c3        1 NNR     -0.041000
      7 O5R         0.0090    2.2160    4.2680 oh        1 NNR     -0.331000
      8 O4R        -0.3600    1.4290    1.3740 os        1 NNR     -0.240000
      9 C1R        -0.9260    0.5840    0.2240 c3        1 NNR      0.079000
     10 N1          0.0270    0.2610   -0.6180 n3        1 NNR     -0.069000
     11 C2         -0.2690    0.0490   -1.9390 c2        1 NNR      0.029000
     12 C6          1.3570    0.2740   -0.1990 c1        1 NNR      0.018000
     13 C5          2.3830    0.0720   -1.1260 c1        1 NNR     -0.075000
     14 C4          2.0830   -0.1390   -2.4450 c1        1 NNR     -0.075000
     15 C3          0.7620   -0.1540   -2.8650 c1        1 NNR     -0.138000
     16 C7          0.4210   -0.5130   -4.3360 c2        1 NNR      0.342000
     17 O7         -0.7090   -0.6170   -4.6750 o         1 NNR     -0.334000
     18 N7          1.4450   -0.6500   -5.2730 n         1 NNR     -0.404000
     19 HO2R       -3.2920   -1.2970    0.4050 ho        1 NNR      0.242000
     20 H2R        -1.1850   -1.5220    0.4210 h1        1 NNR      0.148000
     21 H3R        -0.2030   -1.1830    2.1880 h1        1 NNR      0.127000
     22 HO3R       -1.7820   -2.0430    3.3840 ho        1 NNR      0.237000
     23 H4R        -1.7080    1.3140    2.7520 h1        1 NNR      0.168000
     24 H5R1        0.0910    0.2530    4.1980 h1        1 NNR      0.109500
     25 H5R2        1.1010    0.9660    3.1970 h1        1 NNR      0.109500
     26 HO5R        0.6270    2.2760    4.9860 ho        1 NNR      0.225000
     27 H1R        -1.6340    1.0750   -0.2400 h2        1 NNR      0.178000
     28 H2         -1.2530    0.0380   -2.2540 h4        1 NNR      0.237000
     29 H6          1.5590    0.4170    0.6850 ha        1 NNR      0.250000
     30 H5          3.3420    0.0820   -0.8250 ha        1 NNR      0.193500
     31 H4          2.8170   -0.2840   -3.1050 ha        1 NNR      0.193500
     32 HN71        1.2520   -0.5860   -6.1930 hn        1 NNR      0.247500
     33 HN72        2.3230   -0.9170   -4.9850 hn        1 NNR      0.247500
@<TRIPOS>BOND
     1    1    2 1   
     2    1   19 1   
     3    2    3 1   
     4    2    9 1   
     5    2   20 1   
     6    3    4 1   
     7    3    5 1   
     8    3   21 1   
     9    4   22 1   
    10    5    6 1   
    11    5    8 1   
    12    5   23 1   
    13    6    7 1   
    14    6   24 1   
    15    6   25 1   
    16    7   26 1   
    17    8    9 1   
    18    9   10 1   
    19    9   27 1   
    20   10   11 1   
    21   10   12 1   
    22   11   15 1   
    23   11   28 1   
    24   12   29 1   
    25   13   14 1   
    26   13   30 1   
    27   14   31 1   
    28   15   16 1   
    29   16   17 1   
    30   16   18 1   
    31   18   32 1   
    32   18   33 1   
@<TRIPOS>SUBSTRUCTURE
     1 NNR         1 TEMP              0 ****  ****    0 ROOT
