@<TRIPOS>MOLECULE
NNR
   33    34     1     0     0
SMALL
bcc


@<TRIPOS>ATOM
      1 O2R        -1.1060    2.8290    0.2580 oh        1 NNR     -0.566800
      2 C2R        -1.2840    1.5480   -0.2720 c3        1 NNR      0.090100
      3 C3R        -2.7500    1.2240   -0.6520 c3        1 NNR      0.094100
      4 O3R        -3.6050    2.2170   -0.1270 oh        1 NNR     -0.580800
      5 C4R        -3.0790   -0.0960    0.0660 c3        1 NNR      0.080100
      6 C5R        -3.1540   -1.2830   -0.8960 c3        1 NNR      0.109400
      7 O5R        -2.7790   -2.4800   -0.2510 oh        1 NNR     -0.603800
      8 O4R        -2.0460   -0.3320    1.0460 os        1 NNR     -0.383600
      9 C1R        -0.9130    0.4790    0.8120 c3        1 NNR      0.170800
     10 N1          0.2630   -0.3610    0.4300 na        1 NNR     -0.001100
     11 C2          1.4560    0.2680    0.2140 ca        1 NNR      0.006700
     12 C6          0.1870   -1.7240    0.3610 ca        1 NNR     -0.006300
     13 C5          1.3240   -2.4900    0.0750 ca        1 NNR     -0.152000
     14 C4          2.5530   -1.8620   -0.1470 ca        1 NNR      0.001000
     15 C3          2.6180   -0.4640   -0.0880 ca        1 NNR     -0.158600
     16 C7          3.8710    0.3420   -0.2730 c         1 NNR      0.668700
     17 O7          3.9320    1.4850    0.2210 o         1 NNR     -0.574100
     18 N7          4.9060   -0.1940   -0.9810 n         1 NNR     -0.645000
     19 HO2R       -1.8560    3.0370    0.8410 ho        1 NNR      0.444000
     20 H2R        -0.6090    1.5060   -1.1700 h1        1 NNR      0.104700
     21 H3R        -2.8650    1.1310   -1.7640 h1        1 NNR      0.086700
     22 HO3R       -3.6690    2.9270   -0.7810 ho        1 NNR      0.438000
     23 H4R        -4.0210   -0.0050    0.6790 h1        1 NNR      0.128700
     24 H5R1       -4.1940   -1.3550   -1.3130 h1        1 NNR      0.069700
     25 H5R2       -2.4200   -1.1780   -1.7410 h1        1 NNR      0.069700
     26 HO5R       -3.4490   -2.6790    0.4170 ho        1 NNR      0.427000
     27 H1R        -0.6440    0.9590    1.8040 h2        1 NNR      0.140700
     28 H2          1.4910    1.3810    0.3010 h4        1 NNR      0.240000
     29 H6         -0.8160   -2.1900    0.5350 h4        1 NNR      0.250000
     30 H5          1.2280   -3.5900    0.0350 ha        1 NNR      0.201000
     31 H4          3.4500   -2.4730   -0.3500 ha        1 NNR      0.184000
     32 HN71        4.8450   -1.0760   -1.4200 hn        1 NNR      0.334000
     33 HN72        5.7340    0.3440   -1.0980 hn        1 NNR      0.334000
@<TRIPOS>BOND
     1    1    2 1   
     2    1   19 1   
     3    2    3 1   
     4    2    9 1   
     5    2   20 1   
     6    3    4 1   
     7    3    5 1   
     8    3   21 1   
     9    4   22 1   
    10    5    6 1   
    11    5    8 1   
    12    5   23 1   
    13    6    7 1   
    14    6   24 1   
    15    6   25 1   
    16    7   26 1   
    17    8    9 1   
    18    9   10 1   
    19    9   27 1   
    20   10   11 1   
    21   10   12 2   
    22   11   15 ar  
    23   11   28 1   
    24   12   13 ar  
    25   12   29 1   
    26   13   14 ar  
    27   13   30 1   
    28   14   15 ar  
    29   14   31 1   
    30   15   16 1   
    31   16   17 2   
    32   16   18 1   
    33   18   32 1   
    34   18   33 1   
@<TRIPOS>SUBSTRUCTURE
     1 NNR         1 TEMP              0 ****  ****    0 ROOT
