@<TRIPOS>MOLECULE
NNR
   34    35     1     0     0
SMALL
bcc


@<TRIPOS>ATOM
      1 O2R        -0.3180    0.8150    0.3080 oh        1 NNR     -0.580800
      2 C2R         1.0090    0.4000    0.2050 c3        1 NNR      0.116100
      3 C3R         1.6950   -0.0710    1.5130 c3        1 NNR      0.102100
      4 O3R         1.0070    0.5330    2.5840 oh        1 NNR     -0.588800
      5 C4R         3.1230    0.5030    1.4160 c3        1 NNR      0.065100
      6 C5R         4.1300   -0.5080    0.8620 c3        1 NNR      0.108400
      7 O5R         5.0770    0.1470    0.0430 oh        1 NNR     -0.621800
      8 O4R         3.0580    1.6490    0.5270 os        1 NNR     -0.372600
      9 C1R         1.8840    1.6240   -0.2420 c3        1 NNR      0.169800
     10 N1          2.2290    1.5770   -1.7120 na        1 NNR      0.004900
     11 C2          1.1990    1.5980   -2.6060 ca        1 NNR      0.048700
     12 C6          3.5220    1.5690   -2.1530 ca        1 NNR      0.058700
     13 C5          3.8100    1.5950   -3.5310 ca        1 NNR     -0.135000
     14 C4          2.7730    1.6310   -4.4590 ca        1 NNR      0.000000
     15 C3          1.4430    1.6330   -3.9970 ca        1 NNR     -0.223600
     16 C7          0.2490    1.6480   -4.8520 c         1 NNR      0.562700
     17 O7         -0.9080    1.4920   -4.4940 o         1 NNR     -0.359100
     18 N7          0.4300    1.8920   -6.3280 nz        1 NNR     -0.750400
     19 HO2R       -0.5040    1.0970    1.2220 ho        1 NNR      0.469000
     20 H2R         1.0190   -0.4290   -0.5550 h1        1 NNR      0.093700
     21 H3R         1.7000   -1.1900    1.5860 h1        1 NNR      0.102700
     22 HO3R        0.8970   -0.1210    3.2890 ho        1 NNR      0.455000
     23 H4R         3.4620    0.9460    2.3940 h1        1 NNR      0.137700
     24 H5R1        3.6300   -1.2520    0.1850 h1        1 NNR      0.076700
     25 H5R2        4.6230   -1.0530    1.7100 h1        1 NNR      0.076700
     26 HO5R        5.7470    0.5390    0.6180 ho        1 NNR      0.438000
     27 H1R         1.3550    2.6160   -0.0950 h2        1 NNR      0.147700
     28 H2          0.1600    1.5820   -2.1860 h4        1 NNR      0.252000
     29 H6          4.3300    1.5240   -1.3690 h4        1 NNR      0.280000
     30 H5          4.8700    1.5840   -3.8530 ha        1 NNR      0.228000
     31 H4          3.0230    1.6490   -5.5350 ha        1 NNR      0.175000
     32 HN71       -0.4990    1.9360   -6.7820 hn        1 NNR      0.487467
     33 HN72        0.9190    2.7800   -6.4920 hn        1 NNR      0.487467
     34 H73         0.9650    1.1270   -6.7570 hn        1 NNR      0.487467
@<TRIPOS>BOND
     1    1    2 1   
     2    1   19 1   
     3    2    3 1   
     4    2    9 1   
     5    2   20 1   
     6    3    4 1   
     7    3    5 1   
     8    3   21 1   
     9    4   22 1   
    10    5    6 1   
    11    5    8 1   
    12    5   23 1   
    13    6    7 1   
    14    6   24 1   
    15    6   25 1   
    16    7   26 1   
    17    8    9 1   
    18    9   10 1   
    19    9   27 1   
    20   10   11 1   
    21   10   12 2   
    22   11   15 ar  
    23   11   28 1   
    24   12   13 ar  
    25   12   29 1   
    26   13   14 ar  
    27   13   30 1   
    28   14   15 ar  
    29   14   31 1   
    30   15   16 1   
    31   16   17 2   
    32   16   18 1   
    33   18   32 1   
    34   18   33 1   
    35   18   34 1   
@<TRIPOS>SUBSTRUCTURE
     1 NNR         1 TEMP              0 ****  ****    0 ROOT
