@<TRIPOS>MOLECULE
NNR
   34    35     1     0     0
SMALL
bcc


@<TRIPOS>ATOM
      1 O2R        -0.3110    0.7940    0.3060 oh        1 NNR     -0.580800
      2 C2R         1.0200    0.3920    0.2020 c3        1 NNR      0.116100
      3 C3R         1.7110   -0.0750    1.5090 c3        1 NNR      0.102100
      4 O3R         1.0180    0.5220    2.5820 oh        1 NNR     -0.588800
      5 C4R         3.1340    0.5130    1.4110 c3        1 NNR      0.065100
      6 C5R         4.1500   -0.4860    0.8550 c3        1 NNR      0.108400
      7 O5R         5.0900    0.1790    0.0360 oh        1 NNR     -0.621800
      8 O4R         3.0570    1.6600    0.5250 os        1 NNR     -0.372600
      9 C1R         1.8830    1.6260   -0.2430 c3        1 NNR      0.169800
     10 N1          2.2280    1.5850   -1.7140 na        1 NNR      0.004900
     11 C2          1.1960    1.5970   -2.6070 ca        1 NNR      0.048700
     12 C6          3.5190    1.5890   -2.1550 ca        1 NNR      0.058700
     13 C5          3.8070    1.6210   -3.5340 ca        1 NNR     -0.135000
     14 C4          2.7690    1.6480   -4.4620 ca        1 NNR      0.000000
     15 C3          1.4390    1.6360   -3.9980 ca        1 NNR     -0.223600
     16 C7          0.2440    1.6410   -4.8530 c         1 NNR      0.562700
     17 O7         -0.9110    1.4750   -4.4940 o         1 NNR     -0.359100
     18 N7          0.4220    1.8870   -6.3290 n4        1 NNR     -0.750400
     19 HO2R       -0.4990    1.0730    1.2210 ho        1 NNR      0.469000
     20 H2R         1.0370   -0.4350   -0.5600 h1        1 NNR      0.093700
     21 H3R         1.7270   -1.1930    1.5800 h1        1 NNR      0.102700
     22 HO3R        0.9140   -0.1350    3.2850 ho        1 NNR      0.455000
     23 H4R         3.4690    0.9590    2.3900 h1        1 NNR      0.137700
     24 H5R1        4.6490   -1.0280    1.7020 h1        1 NNR      0.076700
     25 H5R2        3.6560   -1.2340    0.1770 h1        1 NNR      0.076700
     26 HO5R        5.7560    0.5770    0.6120 ho        1 NNR      0.438000
     27 H1R         1.3440    2.6120   -0.0940 h2        1 NNR      0.147700
     28 H2          0.1580    1.5700   -2.1870 h4        1 NNR      0.252000
     29 H6          4.3290    1.5510   -1.3730 h4        1 NNR      0.280000
     30 H5          4.8670    1.6210   -3.8560 ha        1 NNR      0.228000
     31 H4          3.0180    1.6710   -5.5370 ha        1 NNR      0.175000
     32 HN71       -0.5080    1.9230   -6.7820 hn        1 NNR      0.487467
     33 HN72        0.9650    1.1280   -6.7580 hn        1 NNR      0.487467
     34 H73         0.9020    2.7800   -6.4920 hn        1 NNR      0.487467
@<TRIPOS>BOND
     1    1    2 1   
     2    1   19 1   
     3    2    3 1   
     4    2    9 1   
     5    2   20 1   
     6    3    4 1   
     7    3    5 1   
     8    3   21 1   
     9    4   22 1   
    10    5    6 1   
    11    5    8 1   
    12    5   23 1   
    13    6    7 1   
    14    6   24 1   
    15    6   25 1   
    16    7   26 1   
    17    8    9 1   
    18    9   10 1   
    19    9   27 1   
    20   10   11 1   
    21   10   12 2   
    22   11   15 ar  
    23   11   28 1   
    24   12   13 ar  
    25   12   29 1   
    26   13   14 ar  
    27   13   30 1   
    28   14   15 ar  
    29   14   31 1   
    30   15   16 1   
    31   16   17 2   
    32   16   18 1   
    33   18   32 1   
    34   18   33 1   
    35   18   34 1   
@<TRIPOS>SUBSTRUCTURE
     1 NNR         1 TEMP              0 ****  ****    0 ROOT
