@<TRIPOS>MOLECULE
NNR
   34    35     1     0     0
SMALL
bcc


@<TRIPOS>ATOM
      1 O2R        -0.3340    0.6450    0.2620 oh        1 NNR     -0.580800
      2 C2R         1.0160    0.3110    0.1770 c3        1 NNR      0.116100
      3 C3R         1.7060   -0.1400    1.4900 c3        1 NNR      0.102100
      4 O3R         0.9660    0.4060    2.5570 oh        1 NNR     -0.588800
      5 C4R         3.0990    0.5190    1.4270 c3        1 NNR      0.065100
      6 C5R         4.1740   -0.4220    0.8770 c3        1 NNR      0.108400
      7 O5R         5.0940    0.3000    0.0850 oh        1 NNR     -0.621800
      8 O4R         2.9820    1.6730    0.5550 os        1 NNR     -0.372600
      9 C1R         1.8250    1.5920   -0.2360 c3        1 NNR      0.169800
     10 N1          2.1980    1.5890   -1.7010 na        1 NNR      0.004900
     11 C2          1.1830    1.5630   -2.6120 ca        1 NNR      0.048700
     12 C6          3.4960    1.6630   -2.1180 ca        1 NNR      0.058700
     13 C5          3.8060    1.7280   -3.4900 ca        1 NNR     -0.135000
     14 C4          2.7850    1.7180   -4.4360 ca        1 NNR      0.000000
     15 C3          1.4480    1.6340   -3.9980 ca        1 NNR     -0.223600
     16 C7          0.2710    1.5930   -4.8740 c         1 NNR      0.562700
     17 O7         -0.8810    1.3630   -4.5400 o         1 NNR     -0.359100
     18 N7          0.4630    1.8700   -6.3430 n4        1 NNR     -0.750400
     19 HO2R       -0.5520    0.9020    1.1760 ho        1 NNR      0.469000
     20 H2R         1.0880   -0.5040   -0.5950 h1        1 NNR      0.093700
     21 H3R         1.7760   -1.2570    1.5460 h1        1 NNR      0.102700
     22 HO3R        0.8820   -0.2650    3.2500 ho        1 NNR      0.455000
     23 H4R         3.3950    0.9660    2.4170 h1        1 NNR      0.137700
     24 H5R1        4.6830   -0.9500    1.7260 h1        1 NNR      0.076700
     25 H5R2        3.7300   -1.1840    0.1800 h1        1 NNR      0.076700
     26 HO5R        5.7300    0.7230    0.6780 ho        1 NNR      0.438000
     27 H1R         1.2350    2.5480   -0.0840 h2        1 NNR      0.147700
     28 H2          0.1400    1.4790   -2.2120 h4        1 NNR      0.252000
     29 H6          4.2920    1.6530   -1.3200 h4        1 NNR      0.280000
     30 H5          4.8700    1.7840   -3.7920 ha        1 NNR      0.228000
     31 H4          3.0510    1.7680   -5.5060 ha        1 NNR      0.175000
     32 HN71       -0.4600    1.8670   -6.8130 hn        1 NNR      0.487467
     33 HN72        1.0500    1.1450   -6.7740 hn        1 NNR      0.487467
     34 H73         0.9010    2.7880   -6.4840 hn        1 NNR      0.487467
@<TRIPOS>BOND
     1    1    2 1   
     2    1   19 1   
     3    2    3 1   
     4    2    9 1   
     5    2   20 1   
     6    3    4 1   
     7    3    5 1   
     8    3   21 1   
     9    4   22 1   
    10    5    6 1   
    11    5    8 1   
    12    5   23 1   
    13    6    7 1   
    14    6   24 1   
    15    6   25 1   
    16    7   26 1   
    17    8    9 1   
    18    9   10 1   
    19    9   27 1   
    20   10   11 1   
    21   10   12 2   
    22   11   15 ar  
    23   11   28 1   
    24   12   13 ar  
    25   12   29 1   
    26   13   14 ar  
    27   13   30 1   
    28   14   15 ar  
    29   14   31 1   
    30   15   16 1   
    31   16   17 2   
    32   16   18 1   
    33   18   32 1   
    34   18   33 1   
    35   18   34 1   
@<TRIPOS>SUBSTRUCTURE
     1 NNR         1 TEMP              0 ****  ****    0 ROOT
