@<TRIPOS>MOLECULE
NNS
   20    20     1     0     0
SMALL
bcc


@<TRIPOS>ATOM
      1 C          -0.1090   -0.0470   -0.1580 c3        1 NNS     -0.178100
      2 C1          3.6100   -0.0350   -1.0180 ca        1 NNS      0.035600
      3 C2          4.3810   -0.5850    0.0270 ca        1 NNS     -0.134500
      4 C3          5.7660   -0.6620   -0.0850 ca        1 NNS     -0.158000
      5 C4          6.4040   -0.1950   -1.2380 ca        1 NNS      0.096100
      6 O           7.7700   -0.2420   -1.4120 oh        1 NNS     -0.499100
      7 C5          5.6560    0.3560   -2.2900 ca        1 NNS     -0.158000
      8 C6          4.2760    0.4340   -2.1790 ca        1 NNS     -0.134500
      9 N           2.2090    0.0700   -0.9680 n         1 NNS     -0.472100
     10 C7          1.3670   -0.2850    0.0760 c         1 NNS      0.665100
     11 O1          1.7730   -0.7720    1.1460 o         1 NNS     -0.593100
     12 H11        -0.3090    1.0370   -0.3370 hc        1 NNS      0.068367
     13 H12        -0.4690   -0.6360   -1.0350 hc        1 NNS      0.068367
     14 H13        -0.6690   -0.3730    0.7520 hc        1 NNS      0.068367
     15 H2          3.9000   -0.9600    0.9460 ha        1 NNS      0.153000
     16 H3          6.3540   -1.0940    0.7380 ha        1 NNS      0.143500
     17 H4          8.1550   -0.6410   -0.6180 ho        1 NNS      0.418000
     18 H5          6.1710    0.7200   -3.1910 ha        1 NNS      0.143500
     19 H6          3.7040    0.8700   -3.0130 ha        1 NNS      0.153000
     20 H1          1.7830    0.4590   -1.7790 hn        1 NNS      0.313500
@<TRIPOS>BOND
     1    1   10 1   
     2    1   12 1   
     3    1   13 1   
     4    1   14 1   
     5    2    3 ar  
     6    2    8 ar  
     7    2    9 1   
     8    3    4 ar  
     9    3   15 1   
    10    4    5 ar  
    11    4   16 1   
    12    5    6 1   
    13    5    7 ar  
    14    6   17 1   
    15    7    8 ar  
    16    7   18 1   
    17    8   19 1   
    18    9   10 1   
    19    9   20 1   
    20   10   11 2   
@<TRIPOS>SUBSTRUCTURE
     1 NNS         1 TEMP              0 ****  ****    0 ROOT
