@<TRIPOS>MOLECULE
NNS
   21    21     1     0     0
SMALL
bcc


@<TRIPOS>ATOM
      1 C           0.9420    0.9420    0.0290 c3        1 NNS     -0.182100
      2 C1          3.4050   -0.6620   -1.1430 ca        1 NNS     -0.124400
      3 C2          4.2890   -1.3690   -0.2990 ca        1 NNS     -0.057500
      4 C3          5.6280   -1.0240   -0.2630 ca        1 NNS     -0.171000
      5 C4          6.1000    0.0310   -1.0750 ca        1 NNS      0.201100
      6 O           7.4280    0.3090   -0.9840 oh        1 NNS     -0.454100
      7 C5          5.2190    0.7340   -1.9180 ca        1 NNS     -0.171000
      8 C6          3.8750    0.3880   -1.9520 ca        1 NNS     -0.057500
      9 N           1.9950   -1.0460   -1.1870 n4        1 NNS     -0.542200
     10 C7          1.2330   -0.5170    0.0250 c         1 NNS      0.559100
     11 O1          0.9360   -1.3650    0.8490 o         1 NNS     -0.402100
     12 H11         0.0380    1.1460   -0.6020 hc        1 NNS      0.114700
     13 H12         1.8060    1.5400   -0.3540 hc        1 NNS      0.114700
     14 H13         0.7190    1.2580    1.0840 hc        1 NNS      0.114700
     15 H2          3.9280   -2.1960    0.3370 ha        1 NNS      0.159000
     16 H3          6.3380   -1.5630    0.3880 ha        1 NNS      0.182000
     17 H4          7.6470    1.0390   -1.5890 ho        1 NNS      0.450000
     18 H5          5.5930    1.5530   -2.5530 ha        1 NNS      0.182000
     19 H6          3.1980    0.9430   -2.6230 ha        1 NNS      0.159000
     20 H1          1.5690   -0.6750   -2.0430 hn        1 NNS      0.461300
     21 HN3         1.9350   -2.0750   -1.2010 hn        1 NNS      0.461300
@<TRIPOS>BOND
     1    1   10 1   
     2    1   12 1   
     3    1   13 1   
     4    1   14 1   
     5    2    3 ar  
     6    2    8 ar  
     7    2    9 1   
     8    3    4 ar  
     9    3   15 1   
    10    4    5 ar  
    11    4   16 1   
    12    5    6 1   
    13    5    7 ar  
    14    6   17 1   
    15    7    8 ar  
    16    7   18 1   
    17    8   19 1   
    18    9   10 1   
    19    9   20 1   
    20    9   21 1   
    21   10   11 2   
@<TRIPOS>SUBSTRUCTURE
     1 NNS         1 TEMP              0 ****  ****    0 ROOT
