@<TRIPOS>MOLECULE
NNS
   20    20     1     0     0
SMALL
bcc


@<TRIPOS>ATOM
      1 C          -0.1070   -0.0350   -0.1490 c3        1 NNS     -0.178100
      2 C1          3.6100   -0.0310   -1.0160 ca        1 NNS      0.035600
      3 C2          4.3830   -0.5760    0.0300 ca        1 NNS     -0.134500
      4 C3          5.7660   -0.6610   -0.0870 ca        1 NNS     -0.158000
      5 C4          6.4030   -0.2050   -1.2460 ca        1 NNS      0.096100
      6 O           7.7680   -0.2600   -1.4250 oh        1 NNS     -0.499100
      7 C5          5.6530    0.3410   -2.3000 ca        1 NNS     -0.158000
      8 C6          4.2740    0.4260   -2.1830 ca        1 NNS     -0.134500
      9 N           2.2100    0.0820   -0.9610 ns        1 NNS     -0.472100
     10 C7          1.3680   -0.2820    0.0800 c         1 NNS      0.665100
     11 O1          1.7740   -0.7810    1.1450 o         1 NNS     -0.593100
     12 H11        -0.4700   -0.6140   -1.0320 hc        1 NNS      0.068367
     13 H12        -0.6670   -0.3700    0.7590 hc        1 NNS      0.068367
     14 H13        -0.3040    1.0510   -0.3150 hc        1 NNS      0.068367
     15 H2          3.9040   -0.9420    0.9540 ha        1 NNS      0.153000
     16 H3          6.3560   -1.0890    0.7370 ha        1 NNS      0.143500
     17 H4          8.1530   -0.6540   -0.6300 ho        1 NNS      0.418000
     18 H5          6.1660    0.6960   -3.2050 ha        1 NNS      0.143500
     19 H6          3.7000    0.8570   -3.0180 ha        1 NNS      0.153000
     20 H1          1.7830    0.4760   -1.7690 hn        1 NNS      0.313500
@<TRIPOS>BOND
     1    1   10 1   
     2    1   12 1   
     3    1   13 1   
     4    1   14 1   
     5    2    3 ar  
     6    2    8 ar  
     7    2    9 1   
     8    3    4 ar  
     9    3   15 1   
    10    4    5 ar  
    11    4   16 1   
    12    5    6 1   
    13    5    7 ar  
    14    6   17 1   
    15    7    8 ar  
    16    7   18 1   
    17    8   19 1   
    18    9   10 1   
    19    9   20 1   
    20   10   11 2   
@<TRIPOS>SUBSTRUCTURE
     1 NNS         1 TEMP              0 ****  ****    0 ROOT
