@<TRIPOS>MOLECULE
NNS
   20    20     1     0     0
SMALL
bcc


@<TRIPOS>ATOM
      1 C           0.2530    0.1240    4.0450 c3        1 NNS     -0.178100
      2 C1          0.3850    0.0940    0.2290 ca        1 NNS      0.035600
      3 C2         -0.9050    0.2060   -0.3300 ca        1 NNS     -0.134500
      4 C3         -1.0750    0.2150   -1.7110 ca        1 NNS     -0.158000
      5 C4          0.0350    0.1130   -2.5560 ca        1 NNS      0.096100
      6 O          -0.0640    0.1160   -3.9300 oh        1 NNS     -0.499100
      7 C5          1.3280    0.0010   -2.0200 ca        1 NNS     -0.158000
      8 C6          1.4970   -0.0090   -0.6440 ca        1 NNS     -0.134500
      9 N           0.6240    0.0790    1.6140 n         1 NNS     -0.472100
     10 C7         -0.3070    0.1680    2.6400 c         1 NNS      0.665100
     11 O1         -1.5310    0.2770    2.4430 o         1 NNS     -0.593100
     12 H11         0.9550    0.9750    4.2150 hc        1 NNS      0.068367
     13 H12        -0.5960    0.2040    4.7660 hc        1 NNS      0.068367
     14 H13         0.7910   -0.8380    4.2240 hc        1 NNS      0.068367
     15 H2         -1.7950    0.2880    0.3160 ha        1 NNS      0.153000
     16 H3         -2.0870    0.3040   -2.1330 ha        1 NNS      0.143500
     17 H4         -1.0010    0.1980   -4.1580 ho        1 NNS      0.418000
     18 H5          2.1910   -0.0790   -2.6960 ha        1 NNS      0.143500
     19 H6          2.5180   -0.0980   -0.2390 ha        1 NNS      0.153000
     20 H1          1.5800   -0.0050    1.8800 hn        1 NNS      0.313500
@<TRIPOS>BOND
     1    1   10 1   
     2    1   12 1   
     3    1   13 1   
     4    1   14 1   
     5    2    3 ar  
     6    2    8 ar  
     7    2    9 1   
     8    3    4 ar  
     9    3   15 1   
    10    4    5 ar  
    11    4   16 1   
    12    5    6 1   
    13    5    7 ar  
    14    6   17 1   
    15    7    8 ar  
    16    7   18 1   
    17    8   19 1   
    18    9   10 1   
    19    9   20 1   
    20   10   11 2   
@<TRIPOS>SUBSTRUCTURE
     1 NNS         1 TEMP              0 ****  ****    0 ROOT
