@<TRIPOS>MOLECULE
NNS
   20    17     1     0     0
SMALL
bcc


@<TRIPOS>ATOM
      1 C          -3.6330   -0.2540   -0.9270 c3        1 NNS     -0.179100
      2 C1          0.0000    0.0710    0.2790 c1        1 NNS      0.051200
      3 C2          0.7010   -1.0680    0.6430 c1        1 NNS     -0.110000
      4 C3          2.0850   -1.0390    0.7080 c1        1 NNS     -0.110000
      5 C4          2.7690    0.1290    0.4080 c1        1 NNS      0.079600
      6 O           4.1730    0.1630    0.4890 oh        1 NNS     -0.480600
      7 C5          2.0680    1.2680    0.0440 c1        1 NNS     -0.073500
      8 C6          0.6840    1.2390   -0.0210 c1        1 NNS     -0.064500
      9 N          -1.4180    0.0590    0.2740 n         1 NNS     -0.486700
     10 C7         -2.1200   -0.2810   -0.9110 c         1 NNS      0.665100
     11 O1         -1.5070   -0.5610   -1.9220 o         1 NNS     -0.591100
     12 H11        -3.9780   -0.8640   -0.2420 hc        1 NNS      0.068700
     13 H12        -3.9460    0.6560   -0.7430 hc        1 NNS      0.068700
     14 H13        -3.9550   -0.5380   -1.8090 hc        1 NNS      0.068700
     15 H2          0.2200   -1.8910    0.8540 ha        1 NNS      0.073000
     16 H3          2.5790   -1.8410    0.9650 ha        1 NNS      0.073000
     17 H4          4.4170    0.3630    1.3200 ho        1 NNS      0.416000
     18 H5          2.5490    2.0910   -0.1670 ha        1 NNS      0.096500
     19 H6          0.1900    2.0410   -0.2780 ha        1 NNS      0.120500
     20 H1         -1.8780    0.2560    1.0360 hn        1 NNS      0.312500
@<TRIPOS>BOND
     1    1   10 1   
     2    1   12 1   
     3    1   13 1   
     4    1   14 1   
     5    2    8 3   
     6    2    9 1   
     7    3    4 3   
     8    3   15 1   
     9    4   16 1   
    10    5    6 1   
    11    5    7 3   
    12    6   17 1   
    13    7   18 1   
    14    8   19 1   
    15    9   10 1   
    16    9   20 1   
    17   10   11 2   
@<TRIPOS>SUBSTRUCTURE
     1 NNS         1 TEMP              0 ****  ****    0 ROOT
