@<TRIPOS>MOLECULE
NNT
   20    18     1     0     0
SMALL
bcc


@<TRIPOS>ATOM
      1 C12        -2.3160   -0.2360   -0.2160 c3        1 NNT     -0.025000
      2 C13        -0.7960   -0.0430   -0.2600 c2        1 NNT     -0.134000
      3 C17        -0.0780    0.0920    0.9360 c2        1 NNT      0.003000
      4 C18         2.0080    0.0960    2.1400 c3        1 NNT     -0.132000
      5 C19         1.9540   -0.1260   -0.2590 c1        1 NNT     -0.071000
      6 C20         1.2420   -0.2620   -1.4560 c1        1 NNT     -0.071000
      7 C21        -0.1210   -0.2200   -1.4480 c1        1 NNT      0.028000
      8 N24        -2.9310    0.6420   -1.1310 n3        1 NNT     -0.352000
      9 N25         1.2860    0.0490    0.9210 n2        1 NNT     -0.037000
     10 CL28       -0.3680   -0.7320   -3.0770 cl        1 NNT      0.123000
     11 H12        -2.6360   -0.0490    0.6730 h1        1 NNT      0.127000
     12 H12A       -2.5460   -1.2050   -0.4680 h1        1 NNT      0.127000
     13 H17        -0.5580    0.1950    1.7930 h4        1 NNT      0.211000
     14 H18         1.6430    0.8500    2.7210 h1        1 NNT      0.142000
     15 H18A        2.9540    0.2570    1.9540 h1        1 NNT      0.142000
     16 H18B        1.9090   -0.7640    2.6160 h1        1 NNT      0.142000
     17 H19         2.9840   -0.1580   -0.2680 ha        1 NNT      0.211500
     18 H20         1.7250   -0.3890   -2.3030 ha        1 NNT      0.211500
     19 HN24       -2.7420    1.5240   -0.8930 hn        1 NNT      0.177000
     20 HN2A       -2.6140    0.4780   -1.9720 hn        1 NNT      0.177000
@<TRIPOS>BOND
     1    1    2 1   
     2    1    8 1   
     3    1   11 1   
     4    1   12 1   
     5    2    3 1   
     6    2    7 1   
     7    3    9 1   
     8    3   13 1   
     9    4    9 1   
    10    4   14 1   
    11    4   15 1   
    12    4   16 1   
    13    5    6 1   
    14    5   17 1   
    15    6   18 1   
    16    7   10 1   
    17    8   19 1   
    18    8   20 1   
@<TRIPOS>SUBSTRUCTURE
     1 NNT         1 TEMP              0 ****  ****    0 ROOT
