@<TRIPOS>MOLECULE
NNT
   20    19     1     0     0
SMALL
bcc


@<TRIPOS>ATOM
      1 C12         0.0400   -0.0380   -0.0790 c3        1 NNT      0.220000
      2 C13         1.5640    0.0430   -0.0710 ce        1 NNT     -0.352800
      3 C17         2.1410    0.1140    1.2440 ce        1 NNT      0.442500
      4 C19         4.8510    0.1790   -1.5550 c1        1 NNT      0.045500
      5 C20         3.6680    0.1110   -1.3540 ch        1 NNT     -0.302300
      6 C21         2.2720    0.0350   -1.2420 cf        1 NNT      0.301700
      7 N24        -0.6680    1.1250   -0.4920 n3        1 NNT     -0.918800
      8 N25         3.4110    0.0120    1.5750 nh        1 NNT     -0.242100
      9 CL28        1.4800   -0.0520   -2.7310 cl        1 NNT      0.033600
     10 H12        -0.3120   -0.3040    0.9610 h1        1 NNT      0.081200
     11 H12A       -0.2510   -0.8970   -0.7540 h1        1 NNT      0.081200
     12 H17         1.4140    0.2600    2.0860 h4        1 NNT      0.071800
     13 H18         3.0500    0.2360    3.6610 h1        1 NNT      0.098367
     14 H18A        4.6150    0.9440    3.0220 h1        1 NNT      0.098367
     15 H18B        4.4280   -0.8740    3.1850 h1        1 NNT      0.098367
     16 H19         4.1190   -0.1310    0.8720 hn        1 NNT      0.319700
     17 H20         5.9020    0.2400   -1.7340 ha        1 NNT      0.205500
     18 HN24       -0.5810    1.3280   -1.4650 hn        1 NNT      0.377800
     19 HN2A       -0.4790    1.9310    0.0640 hn        1 NNT      0.377800
     20 C18         3.8940    0.0850    2.9360 c3        1 NNT     -0.039400
@<TRIPOS>BOND
     1    1    2 1   
     2    1    7 1   
     3    1   10 1   
     4    1   11 1   
     5    2    3 1   
     6    2    6 2   
     7    3    8 2   
     8    3   12 1   
     9    4    5 3   
    10    4   17 1   
    11    5    6 1   
    12    6    9 1   
    13    7   18 1   
    14    7   19 1   
    15    8   16 1   
    16    8   20 1   
    17   13   20 1   
    18   14   20 1   
    19   15   20 1   
@<TRIPOS>SUBSTRUCTURE
     1 NNT         1 TEMP              0 ****  ****    0 ROOT
