@<TRIPOS>MOLECULE
NNT
   21    20     1     0     0
SMALL
bcc


@<TRIPOS>ATOM
      1 C12         0.1020   -0.0020   -0.0780 c3        1 NNT      0.163000
      2 C13         1.5970    0.1280   -0.0850 ce        1 NNT     -0.397800
      3 C17         2.1980    0.1940    1.2310 ce        1 NNT      0.426500
      4 C19         4.8670    0.1290   -1.6510 c1        1 NNT      0.168500
      5 C20         3.6890    0.1050   -1.3920 ch        1 NNT     -0.368300
      6 C21         2.3020    0.0680   -1.2670 cf        1 NNT      0.365700
      7 N24        -0.6160    1.2060   -0.5910 nz        1 NNT     -0.845600
      8 N25         3.4620    0.0330    1.5380 nu        1 NNT     -0.190100
      9 Cl28        1.4860   -0.0360   -2.7430 cl        1 NNT      0.042600
     10 H12        -0.2840   -0.2000    0.9670 hx        1 NNT      0.137700
     11 H12A       -0.2090   -0.8810   -0.7260 hx        1 NNT      0.137700
     12 H17         1.4980    0.3860    2.0850 h4        1 NNT      0.071800
     13 H18         3.1640    0.3060    3.6360 h1        1 NNT      0.118700
     14 H18A        4.7510    0.9180    2.9450 h1        1 NNT      0.118700
     15 H18B        4.4680   -0.8870    3.1390 h1        1 NNT      0.118700
     16 H19         4.1520   -0.1620    0.8260 hn        1 NNT      0.330700
     17 H20         5.9200    0.1520   -1.8700 ha        1 NNT      0.230500
     18 HN24       -0.3760    2.0390   -0.0410 hn        1 NNT      0.474467
     19 HN2A       -1.6330    1.0510   -0.5280 hn        1 NNT      0.474467
     20 C18         3.9790    0.0990    2.8920 c3        1 NNT     -0.053400
     21 H243       -0.3740    1.3840   -1.5740 hn        1 NNT      0.474467
@<TRIPOS>BOND
     1    1    2 1   
     2    1    7 1   
     3    1   10 1   
     4    1   11 1   
     5    2    3 1   
     6    2    6 2   
     7    3    8 2   
     8    3   12 1   
     9    4    5 3   
    10    4   17 1   
    11    5    6 1   
    12    6    9 1   
    13    7   18 1   
    14    7   19 1   
    15    7   21 1   
    16    8   16 1   
    17    8   20 1   
    18   13   20 1   
    19   14   20 1   
    20   15   20 1   
@<TRIPOS>SUBSTRUCTURE
     1 NNT         1 TEMP              0 ****  ****    0 ROOT
