@<TRIPOS>MOLECULE
NNT
   20    20     1     0     0
SMALL
bcc


@<TRIPOS>ATOM
      1 C12         1.3810    1.5390   -0.0700 c3        1 NNT      0.211100
      2 C13         0.2570    0.5310   -0.1130 ca        1 NNT     -0.091300
      3 C17        -1.0650    0.9030    0.1790 ca        1 NNT     -0.000300
      4 C19        -1.8370   -1.3040   -0.1840 ca        1 NNT     -0.037300
      5 C20        -0.5450   -1.7310   -0.4840 ca        1 NNT     -0.139000
      6 C21         0.5210   -0.8130   -0.4510 ca        1 NNT      0.093400
      7 N24         0.9540    2.8610    0.2920 n3        1 NNT     -0.958800
      8 N25        -2.0920    0.0020    0.1440 na        1 NNT      0.028900
      9 CL28        2.0700   -1.3420   -0.8140 cl        1 NNT      0.036600
     10 H12         2.1450    1.1370    0.6620 h1        1 NNT      0.076700
     11 H12A        1.8630    1.5260   -1.0950 h1        1 NNT      0.076700
     12 H17        -1.3200    1.9530    0.4500 h4        1 NNT      0.232000
     13 H18        -4.0780    0.3360   -0.4890 h1        1 NNT      0.101367
     14 H18A       -3.8810   -0.2590    1.2380 h1        1 NNT      0.101367
     15 H18B       -3.4680    1.4750    0.8120 h1        1 NNT      0.101367
     16 H19        -2.7000   -2.0020   -0.2010 h4        1 NNT      0.211000
     17 H20        -0.3750   -2.7920   -0.7440 ha        1 NNT      0.207000
     18 HN24        1.3620    3.1720    1.1480 hn        1 NNT      0.390800
     19 HN2A        1.1120    3.5250   -0.4370 hn        1 NNT      0.390800
     20 C18        -3.4560    0.4140    0.4440 c3        1 NNT     -0.031400
@<TRIPOS>BOND
     1    1    2 1   
     2    1    7 1   
     3    1   10 1   
     4    1   11 1   
     5    2    3 ar  
     6    2    6 ar  
     7    3    8 2   
     8    3   12 1   
     9    4    5 ar  
    10    4    8 1   
    11    4   16 1   
    12    5    6 ar  
    13    5   17 1   
    14    6    9 1   
    15    7   18 1   
    16    7   19 1   
    17    8   20 1   
    18   13   20 1   
    19   14   20 1   
    20   15   20 1   
@<TRIPOS>SUBSTRUCTURE
     1 NNT         1 TEMP              0 ****  ****    0 ROOT
