@<TRIPOS>MOLECULE
NNU
   16    16     1     0     0
SMALL
bcc


@<TRIPOS>ATOM
      1 N16        -1.9630   -1.7540   -0.6690 n3        1 NNU     -0.910800
      2 C17        -1.1310   -1.5770    0.4990 c3        1 NNU      0.211100
      3 C18         0.0770   -0.7310    0.2390 ca        1 NNU     -0.201600
      4 C22         1.3620   -1.3130    0.2720 ca        1 NNU      0.404200
      5 N23         2.5040   -0.6330    0.0700 nb        1 NNU     -0.664000
      6 C24         2.4000    0.6870   -0.1820 ca        1 NNU      0.402200
      7 C25         1.1750    1.3720   -0.2380 ca        1 NNU     -0.248300
      8 C26        -0.0050    0.6450   -0.0240 ca        1 NNU      0.072400
      9 CL27       -1.4930    1.4520   -0.0770 cl        1 NNU     -0.060400
     10 HN16       -1.4320   -2.0830   -1.4500 hn        1 NNU      0.354300
     11 HN1A       -2.7020   -2.3990   -0.4720 hn        1 NNU      0.354300
     12 H17        -1.7640   -1.0730    1.2880 h1        1 NNU      0.038200
     13 H17A       -0.7830   -2.5630    0.9360 h1        1 NNU      0.038200
     14 H22         1.4790   -2.3930    0.4770 h4        1 NNU      0.025100
     15 H24         3.3520    1.2230   -0.3470 h4        1 NNU      0.027100
     16 H25         1.1470    2.4500   -0.4470 ha        1 NNU      0.157000
@<TRIPOS>BOND
     1    1    2 1   
     2    1   10 1   
     3    1   11 1   
     4    2    3 1   
     5    2   12 1   
     6    2   13 1   
     7    3    4 ar  
     8    3    8 ar  
     9    4    5 ar  
    10    4   14 1   
    11    5    6 ar  
    12    6    7 ar  
    13    6   15 1   
    14    7    8 ar  
    15    7   16 1   
    16    8    9 1   
@<TRIPOS>SUBSTRUCTURE
     1 NNU         1 TEMP              0 ****  ****    0 ROOT
