@<TRIPOS>MOLECULE
NNU
   17    17     1     0     0
SMALL
bcc


@<TRIPOS>ATOM
      1 N16        -0.0250   -0.1050   -0.0760 n4        1 NNU     -0.846600
      2 C17         1.4580    0.0940    0.0320 c3        1 NNU      0.181100
      3 C18         1.9230    0.0370    1.4400 ca        1 NNU     -0.321600
      4 C22         2.4770    1.1880    2.0450 ca        1 NNU      0.458200
      5 N23         2.9910    1.1990    3.2870 nb        1 NNU     -0.633000
      6 C24         2.9770    0.0480    3.9830 ca        1 NNU      0.463200
      7 C25         2.4450   -1.1600    3.4790 ca        1 NNU     -0.222300
      8 C26         1.9110   -1.1550    2.1910 ca        1 NNU      0.063400
      9 CL27        1.2450   -2.5760    1.5420 cl        1 NNU     -0.065400
     10 HN16       -0.2770   -1.0300    0.2990 hn        1 NNU      0.462467
     11 HN1A       -0.5190    0.6110    0.4660 hn        1 NNU      0.462467
     12 H17         1.9520   -0.7190   -0.5800 hx        1 NNU      0.120200
     13 H17A        1.7020    1.0950   -0.4310 hx        1 NNU      0.120200
     14 H22         2.5230    2.1510    1.5010 h4        1 NNU      0.043100
     15 H24         3.4150    0.0910    5.0010 h4        1 NNU      0.064100
     16 H25         2.4610   -2.0740    4.0930 ha        1 NNU      0.189000
     17 H163       -0.3170   -0.0470   -1.0560 hn        1 NNU      0.462467
@<TRIPOS>BOND
     1    1    2 1   
     2    1   10 1   
     3    1   11 1   
     4    1   17 1   
     5    2    3 1   
     6    2   12 1   
     7    2   13 1   
     8    3    4 ar  
     9    3    8 ar  
    10    4    5 ar  
    11    4   14 1   
    12    5    6 ar  
    13    6    7 ar  
    14    6   15 1   
    15    7    8 ar  
    16    7   16 1   
    17    8    9 1   
@<TRIPOS>SUBSTRUCTURE
     1 NNU         1 TEMP              0 ****  ****    0 ROOT
