@<TRIPOS>MOLECULE
NNU
   17    17     1     0     0
SMALL
bcc


@<TRIPOS>ATOM
      1 N16        -0.0130   -0.1240   -0.0890 n4        1 NNU     -0.846600
      2 C17         1.4660    0.0960    0.0310 c3        1 NNU      0.181100
      3 C18         1.9220    0.0420    1.4430 ca        1 NNU     -0.321600
      4 C22         2.4550    1.1980    2.0540 ca        1 NNU      0.458200
      5 N23         2.9600    1.2130    3.3000 nb        1 NNU     -0.633000
      6 C24         2.9560    0.0600    3.9930 ca        1 NNU      0.463200
      7 C25         2.4450   -1.1540    3.4830 ca        1 NNU     -0.222300
      8 C26         1.9210   -1.1530    2.1900 ca        1 NNU      0.063400
      9 CL27        1.2800   -2.5810    1.5320 cl        1 NNU     -0.065400
     10 HN16       -0.2550   -1.0540    0.2810 hn        1 NNU      0.462467
     11 HN1A       -0.2980   -0.0680   -1.0700 hn        1 NNU      0.462467
     12 H17         1.7000    1.1010   -0.4280 hx        1 NNU      0.120200
     13 H17A        1.9760   -0.7090   -0.5800 hx        1 NNU      0.120200
     14 H22         2.4920    2.1630    1.5140 h4        1 NNU      0.043100
     15 H24         3.3860    0.1060    5.0150 h4        1 NNU      0.064100
     16 H25         2.4690   -2.0700    4.0940 ha        1 NNU      0.189000
     17 H163       -0.5200    0.5830    0.4520 hn        1 NNU      0.462467
@<TRIPOS>BOND
     1    1    2 1   
     2    1   10 1   
     3    1   11 1   
     4    1   17 1   
     5    2    3 1   
     6    2   12 1   
     7    2   13 1   
     8    3    4 ar  
     9    3    8 ar  
    10    4    5 ar  
    11    4   14 1   
    12    5    6 ar  
    13    6    7 ar  
    14    6   15 1   
    15    7    8 ar  
    16    7   16 1   
    17    8    9 1   
@<TRIPOS>SUBSTRUCTURE
     1 NNU         1 TEMP              0 ****  ****    0 ROOT
