@<TRIPOS>MOLECULE
NNU
   16    14     1     0     0
SMALL
bcc


@<TRIPOS>ATOM
      1 N16        -1.6970    0.4080   -1.6970 n3        1 NNU     -0.343000
      2 C17        -0.3080    0.0900   -1.6450 c3        1 NNU     -0.033000
      3 C18         0.1570    0.0970   -0.2050 c2        1 NNU     -0.129000
      4 C22         0.7160    1.2440    0.3370 c2        1 NNU     -0.061000
      5 N23         1.1800    1.2360    1.6180 n1        1 NNU     -0.138000
      6 C24         1.0970    0.1020    2.3670 c1        1 NNU     -0.123000
      7 C25         0.5390   -1.0460    1.8270 c1        1 NNU     -0.123000
      8 C26         0.0730   -1.0400    0.5440 c1        1 NNU     -0.006000
      9 CL27       -0.5690   -2.5010   -0.1570 cl        1 NNU      0.018000
     10 HN16       -1.8000    1.2860   -1.9370 hn        1 NNU      0.149500
     11 HN1A       -2.1090   -0.1280   -2.3150 hn        1 NNU      0.149500
     12 H17         0.1980    0.7550   -2.1550 h1        1 NNU      0.077500
     13 H17A       -0.1610   -0.7980   -2.0310 h1        1 NNU      0.077500
     14 H22         0.7760    2.0570   -0.1990 h4        1 NNU      0.162000
     15 H24         1.4300    0.0970    3.2840 ha        1 NNU      0.160500
     16 H25         0.4790   -1.8590    2.3640 ha        1 NNU      0.160500
@<TRIPOS>BOND
     1    1    2 1   
     2    1   10 1   
     3    1   11 1   
     4    2    3 1   
     5    2   12 1   
     6    2   13 1   
     7    3    4 1   
     8    3    8 1   
     9    4    5 1   
    10    4   14 1   
    11    6    7 1   
    12    6   15 1   
    13    7   16 1   
    14    8    9 1   
@<TRIPOS>SUBSTRUCTURE
     1 NNU         1 TEMP              0 ****  ****    0 ROOT
