@<TRIPOS>MOLECULE
NNU
   17    17     1     0     0
SMALL
bcc


@<TRIPOS>ATOM
      1 N16        -0.0180   -0.1210   -0.0830 nz        1 NNU     -0.846600
      2 C17         1.4620    0.0950    0.0320 c3        1 NNU      0.181100
      3 C18         1.9210    0.0410    1.4420 ca        1 NNU     -0.321600
      4 C22         2.4600    1.1960    2.0510 ca        1 NNU      0.458200
      5 N23         2.9690    1.2110    3.2950 nb        1 NNU     -0.633000
      6 C24         2.9640    0.0580    3.9890 ca        1 NNU      0.463200
      7 C25         2.4480   -1.1540    3.4810 ca        1 NNU     -0.222300
      8 C26         1.9200   -1.1530    2.1910 ca        1 NNU      0.063400
      9 Cl27        1.2730   -2.5800    1.5360 cl        1 NNU     -0.065400
     10 HN16       -0.2620   -1.0490    0.2890 hn        1 NNU      0.462467
     11 HN1A       -0.5220    0.5890    0.4580 hn        1 NNU      0.462467
     12 H17         1.9680   -0.7120   -0.5800 hx        1 NNU      0.120200
     13 H17A        1.6970    1.0990   -0.4290 hx        1 NNU      0.120200
     14 H22         2.4980    2.1610    1.5090 h4        1 NNU      0.043100
     15 H24         3.3980    0.1040    5.0090 h4        1 NNU      0.064100
     16 H25         2.4720   -2.0700    4.0930 ha        1 NNU      0.189000
     17 H163       -0.3060   -0.0650   -1.0640 hn        1 NNU      0.462467
@<TRIPOS>BOND
     1    1    2 1   
     2    1   10 1   
     3    1   11 1   
     4    1   17 1   
     5    2    3 1   
     6    2   12 1   
     7    2   13 1   
     8    3    4 ar  
     9    3    8 ar  
    10    4    5 ar  
    11    4   14 1   
    12    5    6 ar  
    13    6    7 ar  
    14    6   15 1   
    15    7    8 ar  
    16    7   16 1   
    17    8    9 1   
@<TRIPOS>SUBSTRUCTURE
     1 NNU         1 TEMP              0 ****  ****    0 ROOT
