@<TRIPOS>MOLECULE
NNV
   32    34     1     0     0
SMALL
bcc


@<TRIPOS>ATOM
      1 C01        -0.0880   -0.0050    0.0130 c2        1 NNV     -0.156200
      2 C02         1.3700    0.2400    0.0660 c3        1 NNV     -0.033200
      3 C03         1.9890    0.0620    1.4470 c3        1 NNV     -0.107500
      4 C04         1.3390   -1.0470    2.2200 ce        1 NNV      0.039400
      5 N05         2.1250   -1.7340    3.1490 ne        1 NNV     -0.515300
      6 C06         1.5690   -2.6870    3.8510 cf        1 NNV      0.370600
      7 C07         2.3690   -3.5080    4.7650 cf        1 NNV     -0.196600
      8 C08         1.9390   -4.6990    5.2040 c2        1 NNV     -0.189200
      9 C09         0.6410   -5.2950    4.8190 c3        1 NNV     -0.030200
     10 C10         0.0900   -3.0750    3.7970 c3        1 NNV      0.163200
     11 C11        -0.0170   -4.6080    3.6350 c3        1 NNV     -0.200700
     12 C12        -1.4800   -5.0840    3.4860 c         1 NNV      0.912600
     13 O13        -2.0700   -4.8390    2.3900 o         1 NNV     -0.854300
     14 O14        -2.0250   -5.7230    4.4310 o         1 NNV     -0.854300
     15 C15         0.0100   -1.4030    2.0030 cf        1 NNV      0.109000
     16 C16        -0.7270   -0.7700    0.9100 cf        1 NNV     -0.126000
     17 N17        -0.6660   -2.3120    2.8160 nu        1 NNV     -0.715000
     18 C18         2.0350    1.4360    2.1770 c         1 NNV      0.919600
     19 O19         2.5370    2.3970    1.5110 o         1 NNV     -0.850300
     20 O20         1.6270    1.5620    3.3600 o         1 NNV     -0.850300
     21 H011       -0.6320    0.4690   -0.8170 ha        1 NNV      0.089000
     22 H022        1.5960    1.2890   -0.2760 hc        1 NNV      0.038700
     23 H021        1.8630   -0.4620   -0.6650 hc        1 NNV      0.038700
     24 H031        3.0760   -0.1980    1.2900 hc        1 NNV      0.045700
     25 H071        3.3430   -3.0990    5.0760 ha        1 NNV      0.115000
     26 H081        2.5500   -5.2920    5.9020 ha        1 NNV      0.086000
     27 H092        0.7790   -6.3820    4.5720 hc        1 NNV      0.050200
     28 H091       -0.0650   -5.2540    5.6960 hc        1 NNV      0.050200
     29 H101       -0.3670   -2.8110    4.8010 h1        1 NNV      0.051700
     30 H111        0.5190   -4.9000    2.6910 hc        1 NNV      0.041700
     31 H161       -1.8120   -0.9470    0.8530 ha        1 NNV      0.115000
     32 H171       -1.3750   -2.8570    2.3510 hn        1 NNV      0.442800
@<TRIPOS>BOND
     1    1    2 1   
     2    1   16 2   
     3    1   21 1   
     4    2    3 1   
     5    2   22 1   
     6    2   23 1   
     7    3    4 1   
     8    3   18 1   
     9    3   24 1   
    10    4    5 1   
    11    4   15 2   
    12    5    6 2   
    13    6    7 1   
    14    6   10 1   
    15    7    8 2   
    16    7   25 1   
    17    8    9 1   
    18    8   26 1   
    19    9   11 1   
    20    9   27 1   
    21    9   28 1   
    22   10   11 1   
    23   10   17 1   
    24   10   29 1   
    25   11   12 1   
    26   11   30 1   
    27   12   13 1   
    28   12   14 1   
    29   15   16 1   
    30   15   17 1   
    31   16   31 1   
    32   17   32 1   
    33   18   19 1   
    34   18   20 1   
@<TRIPOS>SUBSTRUCTURE
     1 NNV         1 TEMP              0 ****  ****    0 ROOT
