@<TRIPOS>MOLECULE
NNV
   32    34     1     0     0
SMALL
bcc


@<TRIPOS>ATOM
      1 C01        -0.1190   -0.0050    0.0170 c2        1 NNV     -0.156200
      2 C02         1.3440    0.2190    0.0380 c3        1 NNV     -0.033200
      3 C03         1.9890    0.0410    1.4080 c3        1 NNV     -0.107500
      4 C04         1.3380   -1.0530    2.2020 ce        1 NNV      0.039400
      5 N05         2.1330   -1.7450    3.1200 ne        1 NNV     -0.515300
      6 C06         1.5770   -2.6840    3.8400 cf        1 NNV      0.370600
      7 C07         2.3830   -3.5110    4.7430 cf        1 NNV     -0.196600
      8 C08         1.9460   -4.6920    5.1990 c2        1 NNV     -0.189200
      9 C09         0.6310   -5.2720    4.8450 c3        1 NNV     -0.030200
     10 C10         0.0920   -3.0510    3.8190 c3        1 NNV      0.163200
     11 C11        -0.0410   -4.5830    3.6700 c3        1 NNV     -0.200700
     12 C12        -1.5130   -5.0380    3.5540 c         1 NNV      0.912600
     13 O13        -2.1220   -4.7920    2.4690 o         1 NNV     -0.854300
     14 O14        -2.0480   -5.6620    4.5160 o         1 NNV     -0.854300
     15 C15         0.0000   -1.3900    2.0150 cf        1 NNV      0.109000
     16 C16        -0.7500   -0.7540    0.9320 cf        1 NNV     -0.126000
     17 N17        -0.6720   -2.2830    2.8480 nh        1 NNV     -0.715000
     18 C18         2.0700    1.4190    2.1270 c         1 NNV      0.919600
     19 O19         2.5710    2.3680    1.4440 o         1 NNV     -0.850300
     20 O20         1.6890    1.5600    3.3170 o         1 NNV     -0.850300
     21 H011       -0.6730    0.4720   -0.8050 ha        1 NNV      0.089000
     22 H022        1.5780    1.2620   -0.3160 hc        1 NNV      0.038700
     23 H021        1.8110   -0.4950   -0.6970 hc        1 NNV      0.038700
     24 H031        3.0680   -0.2370    1.2310 hc        1 NNV      0.045700
     25 H071        3.3700   -3.1150    5.0310 ha        1 NNV      0.115000
     26 H081        2.5610   -5.2900    5.8890 ha        1 NNV      0.086000
     27 H092        0.7480   -6.3620    4.6030 hc        1 NNV      0.050200
     28 H091       -0.0560   -5.2140    5.7360 hc        1 NNV      0.050200
     29 H101       -0.3400   -2.7720    4.8300 h1        1 NNV      0.051700
     30 H111        0.4710   -4.8890    2.7180 hc        1 NNV      0.041700
     31 H161       -1.8390   -0.9150    0.8990 ha        1 NNV      0.115000
     32 H171       -1.3990   -2.8210    2.4020 hn        1 NNV      0.442800
@<TRIPOS>BOND
     1    1    2 1   
     2    1   16 2   
     3    1   21 1   
     4    2    3 1   
     5    2   22 1   
     6    2   23 1   
     7    3    4 1   
     8    3   18 1   
     9    3   24 1   
    10    4    5 1   
    11    4   15 2   
    12    5    6 2   
    13    6    7 1   
    14    6   10 1   
    15    7    8 2   
    16    7   25 1   
    17    8    9 1   
    18    8   26 1   
    19    9   11 1   
    20    9   27 1   
    21    9   28 1   
    22   10   11 1   
    23   10   17 1   
    24   10   29 1   
    25   11   12 1   
    26   11   30 1   
    27   12   13 1   
    28   12   14 1   
    29   15   16 1   
    30   15   17 1   
    31   16   31 1   
    32   17   32 1   
    33   18   19 1   
    34   18   20 1   
@<TRIPOS>SUBSTRUCTURE
     1 NNV         1 TEMP              0 ****  ****    0 ROOT
