@<TRIPOS>MOLECULE
NNV
   32    34     1     0     0
SMALL
bcc


@<TRIPOS>ATOM
      1 C01         2.6820    2.1460   -0.6920 c2        1 NNV     -0.156200
      2 C02         3.2780    0.9320   -1.2930 c3        1 NNV     -0.033200
      3 C03         2.7660   -0.3780   -0.7050 c3        1 NNV     -0.107500
      4 C04         1.3150   -0.3030   -0.3340 ce        1 NNV      0.039400
      5 N05         0.5710   -1.4840   -0.3940 ne        1 NNV     -0.515300
      6 C06        -0.6900   -1.4440   -0.0490 cf        1 NNV      0.370600
      7 C07        -1.5430   -2.6280   -0.1910 cf        1 NNV     -0.196600
      8 C08        -2.8800   -2.5370   -0.2110 c2        1 NNV     -0.189200
      9 C09        -3.6160   -1.2580   -0.0950 c3        1 NNV     -0.030200
     10 C10        -1.4170   -0.2130    0.4950 c3        1 NNV      0.163200
     11 C11        -2.7400   -0.0330   -0.2830 c3        1 NNV     -0.200700
     12 C12        -3.5050    1.2410    0.1440 c         1 NNV      0.912600
     13 O13        -3.0350    2.3610   -0.2230 o         1 NNV     -0.854300
     14 O14        -4.5770    1.1300    0.8050 o         1 NNV     -0.854300
     15 C15         0.7190    0.9010    0.0310 cf        1 NNV      0.109000
     16 C16         1.4900    2.1390   -0.0760 cf        1 NNV     -0.126000
     17 N17        -0.5780    0.9740    0.5380 nh        1 NNV     -0.715000
     18 C18         3.7170   -0.8410    0.4370 c         1 NNV      0.919600
     19 O19         4.9560   -0.8580    0.1490 o         1 NNV     -0.850300
     20 O20         3.2680   -1.2030    1.5550 o         1 NNV     -0.850300
     21 H011        3.2670    3.0730   -0.7840 ha        1 NNV      0.089000
     22 H022        3.0690    0.9600   -2.3990 hc        1 NNV      0.038700
     23 H021        4.3960    0.9500   -1.1640 hc        1 NNV      0.038700
     24 H031        2.8930   -1.1680   -1.5010 hc        1 NNV      0.045700
     25 H071       -1.0320   -3.6000   -0.2800 ha        1 NNV      0.115000
     26 H081       -3.5010   -3.4410   -0.3030 ha        1 NNV      0.086000
     27 H092       -4.4460   -1.2270   -0.8510 hc        1 NNV      0.050200
     28 H091       -4.1050   -1.1990    0.9180 hc        1 NNV      0.050200
     29 H101       -1.6890   -0.4300    1.5750 h1        1 NNV      0.051700
     30 H111       -2.4940    0.0850   -1.3730 hc        1 NNV      0.041700
     31 H161        1.0580    3.0520    0.3610 ha        1 NNV      0.115000
     32 H171       -1.0780    1.8210    0.3180 hn        1 NNV      0.442800
@<TRIPOS>BOND
     1    1    2 1   
     2    1   16 2   
     3    1   21 1   
     4    2    3 1   
     5    2   22 1   
     6    2   23 1   
     7    3    4 1   
     8    3   18 1   
     9    3   24 1   
    10    4    5 1   
    11    4   15 2   
    12    5    6 2   
    13    6    7 1   
    14    6   10 1   
    15    7    8 2   
    16    7   25 1   
    17    8    9 1   
    18    8   26 1   
    19    9   11 1   
    20    9   27 1   
    21    9   28 1   
    22   10   11 1   
    23   10   17 1   
    24   10   29 1   
    25   11   12 1   
    26   11   30 1   
    27   12   13 1   
    28   12   14 1   
    29   15   16 1   
    30   15   17 1   
    31   16   31 1   
    32   17   32 1   
    33   18   19 1   
    34   18   20 1   
@<TRIPOS>SUBSTRUCTURE
     1 NNV         1 TEMP              0 ****  ****    0 ROOT
