@<TRIPOS>MOLECULE
NNV
   32    28     1     0     0
SMALL
bcc


@<TRIPOS>ATOM
      1 C01        -0.7140    2.2090   -3.0640 c1        1 NNV     -0.152000
      2 C02         0.7940    2.1730   -3.0880 c2        1 NNV     -0.116000
      3 C03         1.4400    2.1160   -1.6710 c3        1 NNV     -0.101000
      4 C04         0.9120    0.9830   -0.8160 c1        1 NNV     -0.097000
      5 N05         1.7410    0.2470    0.2710 n1        1 NNV     -0.087000
      6 C06         1.0070   -0.6560    1.1920 c1        1 NNV     -0.079000
      7 C07         1.5720   -1.9080    1.5130 c2        1 NNV     -0.110000
      8 C08         0.7510   -3.1080    1.3830 c1        1 NNV     -0.185000
      9 C09        -0.8060   -2.9670    1.2990 c2        1 NNV     -0.113000
     10 C10        -0.4500   -0.5250    1.1910 c2        1 NNV      0.041000
     11 C11        -1.3250   -1.7030    1.9670 c3        1 NNV     -0.190000
     12 C12        -1.1110   -1.7680    3.3560 c1        1 NNV      0.332000
     13 O13        -1.7410   -2.6070    4.0520 o         1 NNV     -0.595000
     14 O14        -0.2850   -0.9910    3.9030 os        1 NNV     -0.583000
     15 C15        -0.6040    0.6270   -0.9250 c1        1 NNV      0.027000
     16 C16        -1.4500    1.3400   -2.0200 c2        1 NNV     -0.126000
     17 N17        -1.0680   -0.3710   -0.1080 n2        1 NNV     -0.270000
     18 C18         1.3080    3.5060   -0.9240 c2        1 NNV      0.339000
     19 O19         0.1690    3.9940   -0.7000 o         1 NNV     -0.585000
     20 O20         2.3420    4.1280   -0.5660 o         1 NNV     -0.585000
     21 H011       -1.2060    2.5870   -3.8180 ha        1 NNV      0.089000
     22 H022        1.1160    2.9380   -3.6050 ha        1 NNV      0.078000
     23 H021        1.1260    1.4300   -3.6310 ha        1 NNV      0.078000
     24 H031        2.4100    2.0450   -1.7520 hc        1 NNV      0.085000
     25 H071        2.4320   -1.9510    1.9730 ha        1 NNV      0.115000
     26 H081        1.1730   -3.9720    1.2110 ha        1 NNV      0.086000
     27 H092       -1.1740   -3.1770    0.4170 ha        1 NNV      0.089500
     28 H091       -1.1870   -3.7070    1.8140 ha        1 NNV      0.089500
     29 H101       -0.6350    0.3050    1.6750 h4        1 NNV      0.091000
     30 H111       -2.2860   -1.5260    1.9250 hc        1 NNV      0.081000
     31 H161       -2.3750    1.0700   -2.1750 ha        1 NNV      0.115000
     32 H171       -1.8750   -0.7640   -0.2790 hn        1 NNV      0.238000
@<TRIPOS>BOND
     1    1   16 1   
     2    1   21 1   
     3    2    3 1   
     4    2   22 1   
     5    2   23 1   
     6    3    4 1   
     7    3   18 1   
     8    3   24 1   
     9    4   15 1   
    10    5    6 1   
    11    6    7 1   
    12    7    8 1   
    13    7   25 1   
    14    8   26 1   
    15    9   11 1   
    16    9   27 1   
    17    9   28 1   
    18   10   11 1   
    19   10   17 1   
    20   10   29 1   
    21   11   12 1   
    22   11   30 1   
    23   12   13 1   
    24   15   16 1   
    25   16   31 1   
    26   17   32 1   
    27   18   19 1   
    28   18   20 1   
@<TRIPOS>SUBSTRUCTURE
     1 NNV         1 TEMP              0 ****  ****    0 ROOT
