@<TRIPOS>MOLECULE
NNV
   32    34     1     0     0
SMALL
bcc


@<TRIPOS>ATOM
      1 C01        -0.1090    0.0170    0.0370 c2        1 NNV     -0.156200
      2 C02         1.3530    0.2420    0.0650 c3        1 NNV     -0.033200
      3 C03         1.9940    0.0560    1.4350 c3        1 NNV     -0.107500
      4 C04         1.3410   -1.0440    2.2200 ce        1 NNV      0.039400
      5 N05         2.1330   -1.7410    3.1360 ne        1 NNV     -0.515300
      6 C06         1.5760   -2.6860    3.8480 cf        1 NNV      0.370600
      7 C07         2.3790   -3.5180    4.7480 cf        1 NNV     -0.196600
      8 C08         1.9400   -4.7030    5.1950 c2        1 NNV     -0.189200
      9 C09         0.6270   -5.2810    4.8330 c3        1 NNV     -0.030200
     10 C10         0.0900   -3.0530    3.8200 c3        1 NNV      0.163200
     11 C11        -0.0410   -4.5850    3.6600 c3        1 NNV     -0.200700
     12 C12        -1.5130   -5.0400    3.5370 c         1 NNV      0.912600
     13 O13        -2.1180   -4.7870    2.4510 o         1 NNV     -0.854300
     14 O14        -2.0500   -5.6700    4.4920 o         1 NNV     -0.854300
     15 C15         0.0040   -1.3810    2.0260 cf        1 NNV      0.109000
     16 C16        -0.7430   -0.7380    0.9450 cf        1 NNV     -0.126000
     17 N17        -0.6710   -2.2800    2.8510 nh        1 NNV     -0.715000
     18 C18         2.0720    1.4290    2.1630 c         1 NNV      0.919600
     19 O19         2.5750    2.3820    1.4880 o         1 NNV     -0.850300
     20 O20         1.6860    1.5610    3.3530 o         1 NNV     -0.850300
     21 H011       -0.6610    0.4990   -0.7840 ha        1 NNV      0.089000
     22 H022        1.8230   -0.4670   -0.6740 hc        1 NNV      0.038700
     23 H021        1.5880    1.2870   -0.2820 hc        1 NNV      0.038700
     24 H031        3.0740   -0.2210    1.2600 hc        1 NNV      0.045700
     25 H071        3.3650   -3.1230    5.0420 ha        1 NNV      0.115000
     26 H081        2.5540   -5.3040    5.8830 ha        1 NNV      0.086000
     27 H092       -0.0620   -5.2290    5.7220 hc        1 NNV      0.050200
     28 H091        0.7460   -6.3690    4.5840 hc        1 NNV      0.050200
     29 H101       -0.3450   -2.7820    4.8310 h1        1 NNV      0.051700
     30 H111        0.4740   -4.8840    2.7070 hc        1 NNV      0.041700
     31 H161       -1.8310   -0.9000    0.9080 ha        1 NNV      0.115000
     32 H171       -1.3960   -2.8140    2.3990 hn        1 NNV      0.442800
@<TRIPOS>BOND
     1    1    2 1   
     2    1   16 2   
     3    1   21 1   
     4    2    3 1   
     5    2   22 1   
     6    2   23 1   
     7    3    4 1   
     8    3   18 1   
     9    3   24 1   
    10    4    5 1   
    11    4   15 2   
    12    5    6 2   
    13    6    7 1   
    14    6   10 1   
    15    7    8 2   
    16    7   25 1   
    17    8    9 1   
    18    8   26 1   
    19    9   11 1   
    20    9   27 1   
    21    9   28 1   
    22   10   11 1   
    23   10   17 1   
    24   10   29 1   
    25   11   12 1   
    26   11   30 1   
    27   12   13 1   
    28   12   14 1   
    29   15   16 1   
    30   15   17 1   
    31   16   31 1   
    32   17   32 1   
    33   18   19 1   
    34   18   20 1   
@<TRIPOS>SUBSTRUCTURE
     1 NNV         1 TEMP              0 ****  ****    0 ROOT
