@<TRIPOS>MOLECULE
NNW
   17    17     1     0     0
SMALL
bcc


@<TRIPOS>ATOM
      1 C15         0.0170    0.0030   -0.0030 c3        1 NNW      0.166100
      2 C16         1.5070    0.0210   -0.0020 ca        1 NNW     -0.153300
      3 C17         2.2140    0.0120    1.2060 ca        1 NNW     -0.223300
      4 C18         3.6220   -0.0130    1.1530 ca        1 NNW      0.421200
      5 C19         3.6240   -0.0200   -1.1520 ca        1 NNW      0.421200
      6 C20         2.2160    0.0040   -1.2080 ca        1 NNW     -0.223300
      7 N23        -0.5410    1.3960   -0.0010 nz        1 NNW     -0.842600
      8 N24         4.3190   -0.0250    0.0010 nb        1 NNW     -0.607000
      9 H15        -0.3780   -0.5230    0.9160 hx        1 NNW      0.118700
     10 H15A       -0.3770   -0.5210   -0.9220 hx        1 NNW      0.118700
     11 H17         1.7000    0.0010    2.1780 ha        1 NNW      0.154000
     12 H18         4.2240   -0.0280    2.0830 h4        1 NNW      0.056100
     13 H19         4.2280   -0.0410   -2.0810 h4        1 NNW      0.056100
     14 H20         1.7040   -0.0130   -2.1800 ha        1 NNW      0.154000
     15 HN23       -0.2170    1.9030   -0.8320 hn        1 NNW      0.461800
     16 HN2A       -0.2170    1.9010    0.8300 hn        1 NNW      0.461800
     17 H233       -1.5650    1.3670   -0.0020 hn        1 NNW      0.461800
@<TRIPOS>BOND
     1    1    2 1   
     2    1    7 1   
     3    1    9 1   
     4    1   10 1   
     5    2    3 ar  
     6    2    6 ar  
     7    3    4 ar  
     8    3   11 1   
     9    4    8 ar  
    10    4   12 1   
    11    5    6 ar  
    12    5    8 ar  
    13    5   13 1   
    14    6   14 1   
    15    7   15 1   
    16    7   16 1   
    17    7   17 1   
@<TRIPOS>SUBSTRUCTURE
     1 NNW         1 TEMP              0 ****  ****    0 ROOT
