@<TRIPOS>MOLECULE
NNW
   17    17     1     0     0
SMALL
bcc


@<TRIPOS>ATOM
      1 C15         0.0170    0.0050   -0.0010 c3        1 NNW      0.166100
      2 C16         1.5070    0.0210   -0.0010 ca        1 NNW     -0.153300
      3 C17         2.2140    0.0110    1.2060 ca        1 NNW     -0.223300
      4 C18         3.6220   -0.0150    1.1520 ca        1 NNW      0.421200
      5 C19         3.6230   -0.0220   -1.1530 ca        1 NNW      0.421200
      6 C20         2.2150    0.0040   -1.2080 ca        1 NNW     -0.223300
      7 N23        -0.5400    1.3980   -0.0020 n4        1 NNW     -0.842600
      8 N24         4.3180   -0.0290   -0.0010 nb        1 NNW     -0.607000
      9 H15        -0.3780   -0.5200    0.9180 hx        1 NNW      0.118700
     10 H15A       -0.3790   -0.5210   -0.9200 hx        1 NNW      0.118700
     11 H17         1.7010   -0.0000    2.1780 ha        1 NNW      0.154000
     12 H18         4.2250   -0.0320    2.0810 h4        1 NNW      0.056100
     13 H19         4.2260   -0.0440   -2.0820 h4        1 NNW      0.056100
     14 H20         1.7020   -0.0130   -2.1800 ha        1 NNW      0.154000
     15 HN23       -0.2160    1.9030   -0.8330 hn        1 NNW      0.461800
     16 HN2A       -0.2150    1.9040    0.8290 hn        1 NNW      0.461800
     17 H233       -1.5630    1.3710   -0.0010 hn        1 NNW      0.461800
@<TRIPOS>BOND
     1    1    2 1   
     2    1    7 1   
     3    1    9 1   
     4    1   10 1   
     5    2    3 ar  
     6    2    6 ar  
     7    3    4 ar  
     8    3   11 1   
     9    4    8 ar  
    10    4   12 1   
    11    5    6 ar  
    12    5    8 ar  
    13    5   13 1   
    14    6   14 1   
    15    7   15 1   
    16    7   16 1   
    17    7   17 1   
@<TRIPOS>SUBSTRUCTURE
     1 NNW         1 TEMP              0 ****  ****    0 ROOT
