@<TRIPOS>MOLECULE
NNW
   16    16     1     0     0
SMALL
bcc


@<TRIPOS>ATOM
      1 C15         1.9720    0.1940   -0.4970 c3        1 NNW      0.199100
      2 C16         0.4960    0.1180   -0.2400 ca        1 NNW     -0.055300
      3 C17        -0.3010    1.2580   -0.3940 ca        1 NNW     -0.236300
      4 C18        -1.6860    1.1440   -0.1840 ca        1 NNW      0.389700
      5 C19        -1.5150   -1.0940    0.3090 ca        1 NNW      0.389700
      6 C20        -0.1210   -1.0850    0.1180 ca        1 NNW     -0.236300
      7 N23         2.7720   -0.5340    0.4600 n3        1 NNW     -0.916800
      8 N24        -2.2960   -0.0060    0.1640 nb        1 NNW     -0.664000
      9 H15         2.1720   -0.2600   -1.5130 h1        1 NNW      0.038200
     10 H15A        2.2670    1.2860   -0.5620 h1        1 NNW      0.038200
     11 H17         0.1380    2.2250   -0.6740 ha        1 NNW      0.150000
     12 H18        -2.3470    2.0220   -0.2980 h4        1 NNW      0.021600
     13 H19        -2.0380   -2.0250    0.5940 h4        1 NNW      0.021600
     14 H20         0.4650   -2.0060    0.2460 ha        1 NNW      0.150000
     15 HN23        3.7430   -0.3340    0.3220 hn        1 NNW      0.354800
     16 HN2A        2.5150   -0.3050    1.3990 hn        1 NNW      0.354800
@<TRIPOS>BOND
     1    1    2 1   
     2    1    7 1   
     3    1    9 1   
     4    1   10 1   
     5    2    3 ar  
     6    2    6 ar  
     7    3    4 ar  
     8    3   11 1   
     9    4    8 ar  
    10    4   12 1   
    11    5    6 ar  
    12    5    8 ar  
    13    5   13 1   
    14    6   14 1   
    15    7   15 1   
    16    7   16 1   
@<TRIPOS>SUBSTRUCTURE
     1 NNW         1 TEMP              0 ****  ****    0 ROOT
