@<TRIPOS>MOLECULE
NNW
   17    17     1     0     0
SMALL
bcc


@<TRIPOS>ATOM
      1 C15         0.0170    0.0050   -0.0030 c3        1 NNW      0.166100
      2 C16         1.5060    0.0210   -0.0010 ca        1 NNW     -0.153300
      3 C17         2.2130    0.0100    1.2070 ca        1 NNW     -0.223300
      4 C18         3.6210   -0.0160    1.1530 ca        1 NNW      0.421200
      5 C19         3.6230   -0.0230   -1.1510 ca        1 NNW      0.421200
      6 C20         2.2160    0.0040   -1.2080 ca        1 NNW     -0.223300
      7 N23        -0.5390    1.3990   -0.0020 n4        1 NNW     -0.842600
      8 N24         4.3180   -0.0300    0.0020 nb        1 NNW     -0.607000
      9 H15        -0.3780   -0.5190   -0.9230 hx        1 NNW      0.118700
     10 H15A       -0.3800   -0.5200    0.9150 hx        1 NNW      0.118700
     11 H17         1.6990   -0.0010    2.1780 ha        1 NNW      0.154000
     12 H18         4.2230   -0.0330    2.0830 h4        1 NNW      0.056100
     13 H19         4.2280   -0.0440   -2.0800 h4        1 NNW      0.056100
     14 H20         1.7040   -0.0130   -2.1800 ha        1 NNW      0.154000
     15 HN23       -1.5630    1.3720   -0.0030 hn        1 NNW      0.461800
     16 HN2A       -0.2150    1.9040    0.8300 hn        1 NNW      0.461800
     17 H233       -0.2140    1.9050   -0.8330 hn        1 NNW      0.461800
@<TRIPOS>BOND
     1    1    2 1   
     2    1    7 1   
     3    1    9 1   
     4    1   10 1   
     5    2    3 ar  
     6    2    6 ar  
     7    3    4 ar  
     8    3   11 1   
     9    4    8 ar  
    10    4   12 1   
    11    5    6 ar  
    12    5    8 ar  
    13    5   13 1   
    14    6   14 1   
    15    7   15 1   
    16    7   16 1   
    17    7   17 1   
@<TRIPOS>SUBSTRUCTURE
     1 NNW         1 TEMP              0 ****  ****    0 ROOT
