@<TRIPOS>MOLECULE
NNW
   16    14     1     0     0
SMALL
bcc


@<TRIPOS>ATOM
      1 C15        -1.6130   -0.2110    0.0260 c3        1 NNW     -0.045000
      2 C16        -0.1000   -0.2110    0.0260 c2        1 NNW     -0.048000
      3 C17         0.5820   -0.2110    1.2080 c2        1 NNW     -0.181000
      4 C18         1.9680   -0.2110    1.2070 c1        1 NNW     -0.074000
      5 C19         1.9700   -0.2110   -1.1540 c1        1 NNW     -0.077000
      6 C20         0.5840   -0.2110   -1.1560 c1        1 NNW     -0.161000
      7 N23        -2.0880    1.1170   -0.1840 n3        1 NNW     -0.349000
      8 N24         2.6500   -0.2110    0.0270 n1        1 NNW     -0.138000
      9 H15        -1.9380   -0.7900   -0.6900 h1        1 NNW      0.077500
     10 H15A       -1.9380   -0.5410    0.8850 h1        1 NNW      0.077500
     11 H17         0.0950   -0.2110    2.0530 ha        1 NNW      0.141000
     12 H18         2.4570   -0.2110    2.0520 ha        1 NNW      0.158000
     13 H19         2.4590   -0.2110   -1.9980 ha        1 NNW      0.159000
     14 H20         0.0960   -0.2110   -2.0020 ha        1 NNW      0.159000
     15 HN23       -2.4960    1.4170    0.5740 hn        1 NNW      0.150000
     16 HN2A       -2.6860    1.1200   -0.8730 hn        1 NNW      0.150000
@<TRIPOS>BOND
     1    1    2 1   
     2    1    7 1   
     3    1    9 1   
     4    1   10 1   
     5    2    3 1   
     6    2    6 1   
     7    3    4 1   
     8    3   11 1   
     9    4   12 1   
    10    5    8 1   
    11    5   13 1   
    12    6   14 1   
    13    7   15 1   
    14    7   16 1   
@<TRIPOS>SUBSTRUCTURE
     1 NNW         1 TEMP              0 ****  ****    0 ROOT
