@<TRIPOS>MOLECULE
NNX
   21    21     1     0     0
SMALL
bcc


@<TRIPOS>ATOM
      1 CL2         0.9340   -1.5000    0.8790 cl        1 NNX      0.008600
      2 N18         5.8580   -1.0290   -1.3890 n4        1 NNX     -0.845600
      3 C19         5.2020    0.2510   -0.9840 c3        1 NNX      0.157000
      4 C20         4.0970    0.0820    0.0100 c2        1 NNX     -0.176300
      5 N21         4.3940    0.0490    1.4380 nh        1 NNX      0.037400
      6 C22         2.7760    0.0040   -0.3380 c2        1 NNX     -0.041200
      7 C23         1.6290    0.0700    0.6490 c3        1 NNX      0.022100
      8 C24         2.0990    0.7940    1.9050 c2        1 NNX     -0.046300
      9 C25         3.3770    0.4840    2.1170 c1        1 NNX      0.154100
     10 HN18        6.0060    0.9400   -0.5770 hx        1 NNX      0.152200
     11 HN1A        6.5870   -0.8300   -2.0920 hn        1 NNX      0.478800
     12 H19         5.1760   -1.6780   -1.8030 hn        1 NNX      0.478800
     13 H19A        4.7820    0.7320   -1.9220 hx        1 NNX      0.152200
     14 H22         2.4670   -0.1070   -1.3970 ha        1 NNX      0.218000
     15 H24         0.8070    0.7320    0.2210 h1        1 NNX      0.193700
     16 H25         1.4530    1.4880    2.4690 ha        1 NNX      0.266000
     17 H27         5.4920   -0.6320    3.1110 h1        1 NNX      0.112033
     18 H27A        5.5280   -1.7180    1.6350 h1        1 NNX      0.112033
     19 H27B        6.4790   -0.1270    1.6520 h1        1 NNX      0.112033
     20 H183        6.2980   -1.4880   -0.5820 hn        1 NNX      0.478800
     21 C27         5.5400   -0.6490    1.9830 c3        1 NNX     -0.025400
@<TRIPOS>BOND
     1    1    7 1   
     2    2    3 1   
     3    2   11 1   
     4    2   12 1   
     5    2   20 1   
     6    3    4 1   
     7    3   10 1   
     8    3   13 1   
     9    4    5 1   
    10    4    6 2   
    11    5    9 2   
    12    5   21 1   
    13    6    7 1   
    14    6   14 1   
    15    7    8 1   
    16    7   15 1   
    17    8    9 2   
    18    8   16 1   
    19   17   21 1   
    20   18   21 1   
    21   19   21 1   
@<TRIPOS>SUBSTRUCTURE
     1 NNX         1 TEMP              0 ****  ****    0 ROOT
