@<TRIPOS>MOLECULE
NNX
   21    21     1     0     0
SMALL
bcc


@<TRIPOS>ATOM
      1 CL2         0.5370   -0.7050    0.0860 cl        1 NNX     -0.027400
      2 N18         5.2930   -1.5750   -1.5770 n4        1 NNX     -0.845600
      3 C19         5.3750   -0.2180   -0.9520 c3        1 NNX      0.156000
      4 C20         4.3040    0.0020    0.0840 c2        1 NNX     -0.220300
      5 N21         4.6440    0.0680    1.4840 nh        1 NNX      0.039500
      6 C22         3.0110    0.1560   -0.3120 c2        1 NNX      0.005800
      7 C23         1.8740    0.2820    0.6380 c3        1 NNX      0.016100
      8 C24         2.2680   -0.0880    2.0240 c2        1 NNX     -0.046200
      9 C25         3.5580   -0.1960    2.3940 c2        1 NNX     -0.185100
     10 HN18        5.4760   -2.3140   -0.8870 hn        1 NNX      0.479800
     11 HN1A        4.3600   -1.7340   -1.9800 hn        1 NNX      0.479800
     12 H19         5.9930   -1.6480   -2.3310 hn        1 NNX      0.479800
     13 H19A        5.2420    0.5490   -1.7800 hx        1 NNX      0.140200
     14 H22         2.7510    0.1800   -1.3900 ha        1 NNX      0.198000
     15 H24         1.4910    1.3520    0.6300 h1        1 NNX      0.178700
     16 H25         1.4550   -0.2700    2.7580 ha        1 NNX      0.234000
     17 H27         3.8800   -0.4710    3.4200 h4        1 NNX      0.226000
     18 H27A        5.9720    0.5390    3.0430 h4        1 NNX      0.088800
     19 H27B        6.6430    0.7510    1.2760 h4        1 NNX      0.088800
     20 H183        6.4220   -0.1030   -0.5460 hx        1 NNX      0.140200
     21 C27         5.8020    0.4680    1.9420 c2        1 NNX      0.373100
@<TRIPOS>BOND
     1    1    7 1   
     2    2    3 1   
     3    2   10 1   
     4    2   11 1   
     5    2   12 1   
     6    3    4 1   
     7    3   13 1   
     8    3   20 1   
     9    4    5 1   
    10    4    6 2   
    11    5    9 1   
    12    5   21 2   
    13    6    7 1   
    14    6   14 1   
    15    7    8 1   
    16    7   15 1   
    17    8    9 2   
    18    8   16 1   
    19    9   17 1   
    20   18   21 1   
    21   19   21 1   
@<TRIPOS>SUBSTRUCTURE
     1 NNX         1 TEMP              0 ****  ****    0 ROOT
