@<TRIPOS>MOLECULE
NNX
   21    21     1     0     0
SMALL
bcc


@<TRIPOS>ATOM
      1 Cl2         0.5270   -0.6720    0.1720 cl        1 NNX     -0.027400
      2 N18         5.2360   -1.6180   -1.5800 nz        1 NNX     -0.845600
      3 C19         5.3450   -0.2520   -0.9790 c3        1 NNX      0.156000
      4 C20         4.3000   -0.0050    0.0760 c2        1 NNX     -0.220300
      5 N21         4.6710    0.0800    1.4670 nh        1 NNX      0.039500
      6 C22         3.0000    0.1570   -0.2940 c2        1 NNX      0.005800
      7 C23         1.8860    0.3090    0.6790 c3        1 NNX      0.016100
      8 C24         2.3060   -0.0430    2.0610 c2        1 NNX     -0.046200
      9 C25         3.6030   -0.1590    2.4050 c2        1 NNX     -0.185100
     10 HN18        5.4280   -2.3480   -0.8830 hn        1 NNX      0.479800
     11 HN1A        4.2940   -1.7740   -1.9610 hn        1 NNX      0.479800
     12 H19         5.9190   -1.7100   -2.3480 hn        1 NNX      0.479800
     13 H19A        5.2020    0.5030   -1.8160 hx        1 NNX      0.140200
     14 H22         2.7160    0.1660   -1.3660 ha        1 NNX      0.198000
     15 H24         1.5130    1.3830    0.6610 h1        1 NNX      0.178700
     16 H25         1.5080   -0.2050    2.8150 ha        1 NNX      0.234000
     17 H27         3.9440   -0.4200    3.4280 h4        1 NNX      0.226000
     18 H27A        6.0380    0.5610    2.9890 h4        1 NNX      0.088800
     19 H27B        6.6720    0.7380    1.2050 h4        1 NNX      0.088800
     20 H183        6.4030   -0.1410   -0.5990 hx        1 NNX      0.140200
     21 C27         5.8430    0.4750    1.8930 c2        1 NNX      0.373100
@<TRIPOS>BOND
     1    1    7 1   
     2    2    3 1   
     3    2   10 1   
     4    2   11 1   
     5    2   12 1   
     6    3    4 1   
     7    3   13 1   
     8    3   20 1   
     9    4    5 1   
    10    4    6 2   
    11    5    9 1   
    12    5   21 2   
    13    6    7 1   
    14    6   14 1   
    15    7    8 1   
    16    7   15 1   
    17    8    9 2   
    18    8   16 1   
    19    9   17 1   
    20   18   21 1   
    21   19   21 1   
@<TRIPOS>SUBSTRUCTURE
     1 NNX         1 TEMP              0 ****  ****    0 ROOT
