@<TRIPOS>MOLECULE
NNX
   20    18     1     0     0
SMALL
bcc


@<TRIPOS>ATOM
      1 CL2        -3.9180    0.0930   -0.4140 cl        1 NNX      0.127000
      2 N18         0.8040    0.2930   -2.6280 n3        1 NNX     -0.362000
      3 C19         1.2200   -0.1950   -1.3750 c3        1 NNX     -0.021000
      4 C20         0.0960   -0.0250   -0.3640 c2        1 NNX      0.020000
      5 N21         0.3840    0.0130    0.9700 n3        1 NNX     -0.048000
      6 C22        -1.2350   -0.0130   -0.7920 c1        1 NNX     -0.169000
      7 C23        -2.2480    0.0360    0.1260 c1        1 NNX      0.039000
      8 C24        -1.9580    0.0730    1.4660 c1        1 NNX     -0.151000
      9 C25        -0.6340    0.0620    1.8920 c1        1 NNX      0.008000
     10 C27         1.7670   -0.0570    1.4180 c3        1 NNX     -0.130000
     11 HN18        0.3250   -0.3470   -3.0590 hn        1 NNX      0.192000
     12 HN1A        0.2820    1.0360   -2.5070 hn        1 NNX      0.192000
     13 H19         1.4480   -1.1450   -1.4540 h1        1 NNX      0.134000
     14 H19A        1.9950    0.2980   -1.0800 h1        1 NNX      0.134000
     15 H22        -1.4400   -0.1020   -1.7350 ha        1 NNX      0.197000
     16 H24        -2.6900    0.1080    2.1290 ha        1 NNX      0.210000
     17 H25        -0.4260    0.0890    2.8600 ha        1 NNX      0.211000
     18 H27         1.7990    0.0420    2.3830 h1        1 NNX      0.139333
     19 H27A        2.1480   -0.9210    1.1660 h1        1 NNX      0.139333
     20 H27B        2.2810    0.6610    0.9990 h1        1 NNX      0.139333
@<TRIPOS>BOND
     1    1    7 1   
     2    2    3 1   
     3    2   11 1   
     4    2   12 1   
     5    3    4 1   
     6    3   13 1   
     7    3   14 1   
     8    4    5 1   
     9    4    6 1   
    10    5    9 1   
    11    5   10 1   
    12    6   15 1   
    13    7    8 1   
    14    8   16 1   
    15    9   17 1   
    16   10   18 1   
    17   10   19 1   
    18   10   20 1   
@<TRIPOS>SUBSTRUCTURE
     1 NNX         1 TEMP              0 ****  ****    0 ROOT
