@<TRIPOS>MOLECULE
NNX
   20    20     1     0     0
SMALL
bcc


@<TRIPOS>ATOM
      1 CL2         3.0860   -0.3560    0.2090 cl        1 NNX      0.045600
      2 N18        -2.9180   -1.5170   -0.5070 n3        1 NNX     -0.948800
      3 C19        -1.9810   -1.4040    0.5740 c3        1 NNX      0.198100
      4 C20        -0.8940   -0.3750    0.2830 ca        1 NNX      0.036400
      5 N21        -1.2020    0.9270   -0.0340 na        1 NNX      0.042900
      6 C22         0.4490   -0.7850    0.3630 ca        1 NNX     -0.160000
      7 C23         1.4860    0.1240    0.1150 ca        1 NNX      0.111400
      8 C24         1.1540    1.4500   -0.2210 ca        1 NNX     -0.146000
      9 C25        -0.1880    1.8170   -0.2860 ca        1 NNX     -0.025300
     10 HN18       -2.5930   -2.1250   -1.2310 hn        1 NNX      0.393300
     11 HN1A       -3.8210   -1.8030   -0.1880 hn        1 NNX      0.393300
     12 H19        -2.5160   -1.0790    1.5160 h1        1 NNX      0.079200
     13 H19A       -1.4520   -2.3770    0.8100 h1        1 NNX      0.079200
     14 H22         0.6750   -1.8350    0.6230 ha        1 NNX      0.202000
     15 H24         1.9340    2.2030   -0.4320 ha        1 NNX      0.208000
     16 H25        -0.4830    2.8560   -0.5480 h4        1 NNX      0.210000
     17 H27        -3.1820    0.9440    0.7190 h1        1 NNX      0.100700
     18 H27A       -2.6090    2.5110   -0.0340 h1        1 NNX      0.100700
     19 H27B       -3.0210    1.0750   -1.1050 h1        1 NNX      0.100700
     20 C27        -2.5810    1.3910   -0.1180 c3        1 NNX     -0.020400
@<TRIPOS>BOND
     1    1    7 1   
     2    2    3 1   
     3    2   10 1   
     4    2   11 1   
     5    3    4 1   
     6    3   12 1   
     7    3   13 1   
     8    4    5 1   
     9    4    6 ar  
    10    5    9 2   
    11    5   20 1   
    12    6    7 ar  
    13    6   14 1   
    14    7    8 ar  
    15    8    9 ar  
    16    8   15 1   
    17    9   16 1   
    18   17   20 1   
    19   18   20 1   
    20   19   20 1   
@<TRIPOS>SUBSTRUCTURE
     1 NNX         1 TEMP              0 ****  ****    0 ROOT
