@<TRIPOS>MOLECULE
NNY
   16    16     1     0     0
SMALL
bcc


@<TRIPOS>ATOM
      1 C12         2.6110    0.5780   -0.4710 c3        1 NNY      0.108500
      2 C13         1.2910   -0.1360   -0.2480 ca        1 NNY      0.423600
      3 C17         0.0820   -2.0930   -0.0710 ca        1 NNY      0.409200
      4 C18        -1.1300   -1.4070    0.1280 ca        1 NNY     -0.245300
      5 C19        -1.0910   -0.0090    0.1300 ca        1 NNY      0.054400
      6 C20         0.1300    0.6450   -0.0610 ca        1 NNY     -0.244300
      7 N23         3.0090    1.3640    0.6710 n3        1 NNY     -0.913800
      8 N24         1.2700   -1.4900   -0.2540 nb        1 NNY     -0.653000
      9 CL27       -2.5120    0.8870    0.3600 cl        1 NNY     -0.080400
     10 H12         3.4330   -0.1700   -0.6680 h1        1 NNY      0.047700
     11 H12A        2.4820    1.1940   -1.4120 h1        1 NNY      0.047700
     12 H17         0.1030   -3.1990   -0.0820 h4        1 NNY      0.028100
     13 H18        -2.0680   -1.9580    0.2770 ha        1 NNY      0.158000
     14 H20         0.1890    1.7420   -0.0700 ha        1 NNY      0.152000
     15 HN23        3.8540    1.8610    0.4720 hn        1 NNY      0.354300
     16 HN2A        2.2950    2.0090    0.9430 hn        1 NNY      0.354300
@<TRIPOS>BOND
     1    1    2 1   
     2    1    7 1   
     3    1   10 1   
     4    1   11 1   
     5    2    6 ar  
     6    2    8 ar  
     7    3    4 ar  
     8    3    8 ar  
     9    3   12 1   
    10    4    5 ar  
    11    4   13 1   
    12    5    6 ar  
    13    5    9 1   
    14    6   14 1   
    15    7   15 1   
    16    7   16 1   
@<TRIPOS>SUBSTRUCTURE
     1 NNY         1 TEMP              0 ****  ****    0 ROOT
