@<TRIPOS>MOLECULE
NNY
   17    17     1     0     0
SMALL
bcc


@<TRIPOS>ATOM
      1 C12         0.0610    0.3900    0.4300 c3        1 NNY      0.067500
      2 C13         1.5580    0.2790    0.2590 ca        1 NNY      0.334600
      3 C17         3.4620    0.5520   -1.0130 ca        1 NNY      0.438200
      4 C18         4.2830    0.0410    0.0130 ca        1 NNY     -0.203300
      5 C19         3.6770   -0.3610    1.2080 ca        1 NNY      0.062400
      6 C20         2.2820   -0.2420    1.3430 ca        1 NNY     -0.209300
      7 N23        -0.6400    0.9880   -0.7430 n4        1 NNY     -0.826600
      8 N24         2.1300    0.6740   -0.9070 nb        1 NNY     -0.715000
      9 CL27        4.5950   -0.9800    2.4760 cl        1 NNY     -0.008400
     10 H12        -0.1590    1.0350    1.3320 hx        1 NNY      0.118700
     11 H12A       -0.3670   -0.6430    0.6000 hx        1 NNY      0.118700
     12 H17         3.9010    0.8820   -1.9760 h4        1 NNY      0.055100
     13 H18         5.3720   -0.0350   -0.1340 ha        1 NNY      0.188000
     14 H20         1.7780   -0.5500    2.2710 ha        1 NNY      0.172000
     15 HN23       -1.6460    1.0390   -0.5600 hn        1 NNY      0.469133
     16 HN2A       -0.2770    1.9320   -0.9250 hn        1 NNY      0.469133
     17 H233       -0.4730    0.4170   -1.5810 hn        1 NNY      0.469133
@<TRIPOS>BOND
     1    1    2 1   
     2    1    7 1   
     3    1   10 1   
     4    1   11 1   
     5    2    6 ar  
     6    2    8 ar  
     7    3    4 ar  
     8    3    8 ar  
     9    3   12 1   
    10    4    5 ar  
    11    4   13 1   
    12    5    6 ar  
    13    5    9 1   
    14    6   14 1   
    15    7   15 1   
    16    7   16 1   
    17    7   17 1   
@<TRIPOS>SUBSTRUCTURE
     1 NNY         1 TEMP              0 ****  ****    0 ROOT
