@<TRIPOS>MOLECULE
NNY
   17    17     1     0     0
SMALL
bcc


@<TRIPOS>ATOM
      1 C12         0.0580    0.3890    0.4160 c3        1 NNY      0.067500
      2 C13         1.5570    0.2830    0.2600 ca        1 NNY      0.334600
      3 C17         3.4710    0.5510   -0.9990 ca        1 NNY      0.438200
      4 C18         4.2860    0.0580    0.0410 ca        1 NNY     -0.203300
      5 C19         3.6710   -0.3330    1.2350 ca        1 NNY      0.062400
      6 C20         2.2750   -0.2210    1.3560 ca        1 NNY     -0.209300
      7 N23        -0.6370    0.9510   -0.7780 nz        1 NNY     -0.826600
      8 N24         2.1380    0.6660   -0.9060 nb        1 NNY     -0.715000
      9 Cl27        4.5810   -0.9310    2.5200 cl        1 NNY     -0.008400
     10 H12        -0.3640   -0.6410    0.6110 hx        1 NNY      0.118700
     11 H12A       -0.1720    1.0570    1.2980 hx        1 NNY      0.118700
     12 H17         3.9170    0.8720   -1.9610 h4        1 NNY      0.055100
     13 H18         5.3770   -0.0140   -0.0950 ha        1 NNY      0.188000
     14 H20         1.7640   -0.5210    2.2840 ha        1 NNY      0.172000
     15 HN23       -0.2800    1.8930   -0.9820 hn        1 NNY      0.468800
     16 HN2A       -1.6450    0.9990   -0.6050 hn        1 NNY      0.468800
     17 H233       -0.4580    0.3600   -1.5990 hn        1 NNY      0.468800
@<TRIPOS>BOND
     1    1    2 1   
     2    1    7 1   
     3    1   10 1   
     4    1   11 1   
     5    2    6 ar  
     6    2    8 ar  
     7    3    4 ar  
     8    3    8 ar  
     9    3   12 1   
    10    4    5 ar  
    11    4   13 1   
    12    5    6 ar  
    13    5    9 1   
    14    6   14 1   
    15    7   15 1   
    16    7   16 1   
    17    7   17 1   
@<TRIPOS>SUBSTRUCTURE
     1 NNY         1 TEMP              0 ****  ****    0 ROOT
