@<TRIPOS>MOLECULE
NNY
   16    14     1     0     0
SMALL
bcc


@<TRIPOS>ATOM
      1 C12        -1.8690    0.0340    0.0710 c3        1 NNY     -0.034000
      2 C13        -0.3270    0.0260    0.0410 c2        1 NNY     -0.048000
      3 C17         1.7010   -0.0510   -1.1770 c1        1 NNY     -0.118000
      4 C18         2.4170    0.0190    0.0100 c1        1 NNY     -0.118000
      5 C19         1.7560    0.0920    1.2030 c1        1 NNY     -0.022000
      6 C20         0.3870    0.0960    1.2260 c2        1 NNY     -0.179000
      7 N23        -2.3690   -0.1430   -1.2490 n3        1 NNY     -0.327000
      8 N24         0.3330   -0.0470   -1.1530 n1        1 NNY     -0.152000
      9 CL27        2.6470    0.1950    2.6780 cl        1 NNY      0.000000
     10 H12        -2.1970   -0.7170    0.6590 h1        1 NNY      0.105000
     11 H12A       -2.1770    0.8640    0.4180 h1        1 NNY      0.105000
     12 H17         2.1770   -0.1030   -2.0340 ha        1 NNY      0.161500
     13 H18         3.3720    0.0170   -0.0060 ha        1 NNY      0.161500
     14 H20        -0.0810    0.1480    2.0690 ha        1 NNY      0.158000
     15 HN23       -2.7610   -0.9620   -1.3170 hn        1 NNY      0.153000
     16 HN2A       -3.0100    0.5320   -1.4400 hn        1 NNY      0.153000
@<TRIPOS>BOND
     1    1    2 1   
     2    1    7 1   
     3    1   10 1   
     4    1   11 1   
     5    2    6 1   
     6    2    8 1   
     7    3    4 1   
     8    3   12 1   
     9    4   13 1   
    10    5    6 1   
    11    5    9 1   
    12    6   14 1   
    13    7   15 1   
    14    7   16 1   
@<TRIPOS>SUBSTRUCTURE
     1 NNY         1 TEMP              0 ****  ****    0 ROOT
