@<TRIPOS>MOLECULE
NNY
   17    17     1     0     0
SMALL
bcc


@<TRIPOS>ATOM
      1 C12         0.0620    0.3890    0.4360 c3        1 NNY      0.067500
      2 C13         1.5570    0.2720    0.2560 ca        1 NNY      0.334600
      3 C17         3.4730    0.6680   -0.9660 ca        1 NNY      0.438200
      4 C18         4.2800    0.0220   -0.0060 ca        1 NNY     -0.203300
      5 C19         3.6610   -0.5130    1.1270 ca        1 NNY      0.062400
      6 C20         2.2680   -0.3900    1.2710 ca        1 NNY     -0.209300
      7 N23        -0.6280    1.1020   -0.6770 n4        1 NNY     -0.826600
      8 N24         2.1430    0.7970   -0.8510 nb        1 NNY     -0.715000
      9 CL27        4.5620   -1.2970    2.3150 cl        1 NNY     -0.008400
     10 H12        -0.3810   -0.6480    0.5110 hx        1 NNY      0.118700
     11 H12A       -0.1500    0.9520    1.3930 hx        1 NNY      0.118700
     12 H17         3.9220    1.1060   -1.8790 h4        1 NNY      0.055100
     13 H18         5.3690   -0.0520   -0.1570 ha        1 NNY      0.188000
     14 H20         1.7540   -0.8010    2.1520 ha        1 NNY      0.172000
     15 HN23       -0.2550    2.0550   -0.7690 hn        1 NNY      0.468800
     16 HN2A       -1.6340    1.1460   -0.4940 hn        1 NNY      0.468800
     17 H233       -0.4630    0.6110   -1.5650 hn        1 NNY      0.468800
@<TRIPOS>BOND
     1    1    2 1   
     2    1    7 1   
     3    1   10 1   
     4    1   11 1   
     5    2    6 ar  
     6    2    8 ar  
     7    3    4 ar  
     8    3    8 ar  
     9    3   12 1   
    10    4    5 ar  
    11    4   13 1   
    12    5    6 ar  
    13    5    9 1   
    14    6   14 1   
    15    7   15 1   
    16    7   16 1   
    17    7   17 1   
@<TRIPOS>SUBSTRUCTURE
     1 NNY         1 TEMP              0 ****  ****    0 ROOT
