@<TRIPOS>MOLECULE
NNZ
   20    20     1     0     0
SMALL
bcc


@<TRIPOS>ATOM
      1 N16         2.6630   -0.1290    0.5160 n3        1 NNZ     -0.948800
      2 C17         1.8280   -0.5910   -0.5570 c3        1 NNZ      0.197100
      3 C18         0.3490   -0.3560   -0.2730 ca        1 NNZ      0.023400
      4 C22        -0.5290   -1.4570   -0.3320 ca        1 NNZ     -0.149000
      5 C23        -1.8920   -1.2910   -0.0890 ca        1 NNZ     -0.012000
      6 C24        -2.3720   -0.0130    0.2180 ca        1 NNZ     -0.137000
      7 C25        -1.4790    1.0580    0.2640 ca        1 NNZ     -0.038300
      8 N26        -0.1390    0.8950    0.0180 na        1 NNZ      0.052900
      9 C27         0.7320    2.0620    0.0800 c3        1 NNZ     -0.022400
     10 HN16        2.7310   -0.7960    1.2580 hn        1 NNZ      0.392300
     11 HN1A        3.5730    0.1280    0.1920 hn        1 NNZ      0.392300
     12 H17         2.0870   -0.0390   -1.5100 h1        1 NNZ      0.077700
     13 H17A        1.9450   -1.6960   -0.7700 h1        1 NNZ      0.077700
     14 H22        -0.1200   -2.4550   -0.5710 ha        1 NNZ      0.193000
     15 H23        -2.5800   -2.1540   -0.1350 ha        1 NNZ      0.192000
     16 H24        -3.4420    0.1640    0.4230 ha        1 NNZ      0.200000
     17 H25        -1.8250    2.0860    0.5040 h4        1 NNZ      0.208000
     18 H27         1.4820    2.0180   -0.7560 h1        1 NNZ      0.100700
     19 H27A        0.1200    2.9980   -0.0240 h1        1 NNZ      0.100700
     20 H27B        1.2730    2.0710    1.0670 h1        1 NNZ      0.100700
@<TRIPOS>BOND
     1    1    2 1   
     2    1   10 1   
     3    1   11 1   
     4    2    3 1   
     5    2   12 1   
     6    2   13 1   
     7    3    4 ar  
     8    3    8 2   
     9    4    5 ar  
    10    4   14 1   
    11    5    6 ar  
    12    5   15 1   
    13    6    7 ar  
    14    6   16 1   
    15    7    8 1   
    16    7   17 1   
    17    8    9 1   
    18    9   18 1   
    19    9   19 1   
    20    9   20 1   
@<TRIPOS>SUBSTRUCTURE
     1 NNZ         1 TEMP              0 ****  ****    0 ROOT
