@<TRIPOS>MOLECULE
NNZ
   21    21     1     0     0
SMALL
bcc


@<TRIPOS>ATOM
      1 N16        -0.0810    0.3160   -0.0820 n4        1 NNZ     -0.841600
      2 C17         1.3460   -0.1090    0.0050 c3        1 NNZ      0.141100
      3 C18         1.8830   -0.0970    1.4190 ca        1 NNZ     -0.098600
      4 C22         2.2130    1.1380    1.9880 ca        1 NNZ     -0.105000
      5 C23         2.7870    1.2040    3.2730 ca        1 NNZ      0.004000
      6 C24         3.0210    0.0180    3.9600 ca        1 NNZ     -0.096000
      7 C25         2.6820   -1.2090    3.3560 ca        1 NNZ      0.013700
      8 N26         2.1190   -1.2720    2.1150 na        1 NNZ      0.049900
      9 C27         1.8280   -2.5740    1.5240 c3        1 NNZ     -0.048400
     10 HN16       -0.3580    0.3740   -1.0760 hn        1 NNZ      0.481467
     11 HN1A       -0.2150    1.2400    0.3480 hn        1 NNZ      0.481467
     12 H17         1.4390   -1.1240   -0.4870 hx        1 NNZ      0.151700
     13 H17A        1.9660    0.6210   -0.6090 hx        1 NNZ      0.151700
     14 H22         2.0490    2.0710    1.4190 ha        1 NNZ      0.197000
     15 H23         3.0520    2.1850    3.7160 ha        1 NNZ      0.224000
     16 H24         3.4770    0.0090    4.9720 ha        1 NNZ      0.234000
     17 H25         2.8700   -2.1750    3.8840 h4        1 NNZ      0.239000
     18 H27         2.5410   -2.7710    0.6740 h1        1 NNZ      0.112367
     19 H27A        0.7660   -2.5960    1.1610 h1        1 NNZ      0.112367
     20 H27B        1.9590   -3.3870    2.2930 h1        1 NNZ      0.112367
     21 H163       -0.6990   -0.3560    0.3890 hn        1 NNZ      0.481467
@<TRIPOS>BOND
     1    1    2 1   
     2    1   10 1   
     3    1   11 1   
     4    1   21 1   
     5    2    3 1   
     6    2   12 1   
     7    2   13 1   
     8    3    4 ar  
     9    3    8 2   
    10    4    5 ar  
    11    4   14 1   
    12    5    6 ar  
    13    5   15 1   
    14    6    7 ar  
    15    6   16 1   
    16    7    8 1   
    17    7   17 1   
    18    8    9 1   
    19    9   18 1   
    20    9   19 1   
    21    9   20 1   
@<TRIPOS>SUBSTRUCTURE
     1 NNZ         1 TEMP              0 ****  ****    0 ROOT
