@<TRIPOS>MOLECULE
NNZ
   21    21     1     0     0
SMALL
bcc


@<TRIPOS>ATOM
      1 N16        -0.0570    0.3070   -0.1110 nz        1 NNZ     -0.841600
      2 C17         1.3710   -0.1090   -0.0010 c3        1 NNZ      0.141100
      3 C18         1.8850   -0.0960    1.4210 ca        1 NNZ     -0.098600
      4 C22         2.1990    1.1400    1.9970 ca        1 NNZ     -0.105000
      5 C23         2.7510    1.2080    3.2910 ca        1 NNZ      0.004000
      6 C24         2.9810    0.0230    3.9810 ca        1 NNZ     -0.096000
      7 C25         2.6570   -1.2060    3.3700 ca        1 NNZ      0.013700
      8 N26         2.1160   -1.2700    2.1200 na        1 NNZ      0.049900
      9 C27         1.8410   -2.5730    1.5230 c3        1 NNZ     -0.048400
     10 HN16       -0.3180    0.3640   -1.1090 hn        1 NNZ      0.481467
     11 HN1A       -0.2030    1.2300    0.3180 hn        1 NNZ      0.481467
     12 H17         1.4780   -1.1240   -0.4930 hx        1 NNZ      0.151700
     13 H17A        1.9960    0.6250   -0.6040 hx        1 NNZ      0.151700
     14 H22         2.0390    2.0730    1.4260 ha        1 NNZ      0.197000
     15 H23         3.0050    2.1900    3.7390 ha        1 NNZ      0.224000
     16 H24         3.4200    0.0160    5.0000 ha        1 NNZ      0.234000
     17 H25         2.8430   -2.1700    3.9010 h4        1 NNZ      0.239000
     18 H27         1.9630   -3.3860    2.2950 h1        1 NNZ      0.112367
     19 H27A        2.5690   -2.7650    0.6860 h1        1 NNZ      0.112367
     20 H27B        0.7860   -2.6010    1.1430 h1        1 NNZ      0.112367
     21 H163       -0.6790   -0.3690    0.3490 hn        1 NNZ      0.481467
@<TRIPOS>BOND
     1    1    2 1   
     2    1   10 1   
     3    1   11 1   
     4    1   21 1   
     5    2    3 1   
     6    2   12 1   
     7    2   13 1   
     8    3    4 ar  
     9    3    8 2   
    10    4    5 ar  
    11    4   14 1   
    12    5    6 ar  
    13    5   15 1   
    14    6    7 ar  
    15    6   16 1   
    16    7    8 1   
    17    7   17 1   
    18    8    9 1   
    19    9   18 1   
    20    9   19 1   
    21    9   20 1   
@<TRIPOS>SUBSTRUCTURE
     1 NNZ         1 TEMP              0 ****  ****    0 ROOT
