@<TRIPOS>MOLECULE
NNZ
   20    18     1     0     0
SMALL
bcc


@<TRIPOS>ATOM
      1 N16        -2.2400    0.2910   -1.6690 n3        1 NNZ     -0.397000
      2 C17        -0.7360    0.2060   -1.5970 c3        1 NNZ     -0.019000
      3 C18        -0.3010    0.0930   -0.1340 c2        1 NNZ      0.043000
      4 C22        -1.0610    0.7170    0.8630 c2        1 NNZ     -0.123000
      5 C23        -0.5660    0.7890    2.1940 c1        1 NNZ     -0.016000
      6 C24         0.6270    0.2600    2.4910 c1        1 NNZ     -0.076500
      7 C25         1.4090   -0.3830    1.4560 c1        1 NNZ     -0.076500
      8 N26         0.9280   -0.4500    0.1720 n2        1 NNZ     -0.044000
      9 C27         1.7670   -0.9570   -0.8860 c3        1 NNZ     -0.132000
     10 HN16       -2.4700    0.8680   -2.2910 hn        1 NNZ      0.200000
     11 HN1A       -2.5740   -0.5110   -1.8710 hn        1 NNZ      0.200000
     12 H17        -0.4270   -0.5880   -2.0950 h1        1 NNZ      0.110000
     13 H17A       -0.3540    0.9930   -1.9810 h1        1 NNZ      0.110000
     14 H22        -1.9560    1.1140    0.6350 ha        1 NNZ      0.215000
     15 H23        -1.1450    1.2630    2.9580 ha        1 NNZ      0.191000
     16 H24         0.9740    0.3110    3.4170 ha        1 NNZ      0.201500
     17 H25         2.2660   -0.7630    1.6680 ha        1 NNZ      0.201500
     18 H27         2.0020   -0.2700   -1.4420 h1        1 NNZ      0.136333
     19 H27A        1.2820   -1.6230   -1.3870 h1        1 NNZ      0.136333
     20 H27B        2.5760   -1.3600   -0.5030 h1        1 NNZ      0.136333
@<TRIPOS>BOND
     1    1    2 1   
     2    1   10 1   
     3    1   11 1   
     4    2    3 1   
     5    2   12 1   
     6    2   13 1   
     7    3    4 1   
     8    3    8 1   
     9    4    5 1   
    10    4   14 1   
    11    5   15 1   
    12    6    7 1   
    13    6   16 1   
    14    7   17 1   
    15    8    9 1   
    16    9   18 1   
    17    9   19 1   
    18    9   20 1   
@<TRIPOS>SUBSTRUCTURE
     1 NNZ         1 TEMP              0 ****  ****    0 ROOT
