@<TRIPOS>MOLECULE
NNZ
   21    21     1     0     0
SMALL
bcc


@<TRIPOS>ATOM
      1 N16        -0.0850    0.2510   -0.1040 n4        1 NNZ     -0.841600
      2 C17         1.3530   -0.1350   -0.0010 c3        1 NNZ      0.141100
      3 C18         1.8770   -0.0950    1.4170 ca        1 NNZ     -0.098600
      4 C22         2.1730    1.1530    1.9750 ca        1 NNZ     -0.105000
      5 C23         2.7350    1.2460    3.2640 ca        1 NNZ      0.004000
      6 C24         2.9910    0.0730    3.9650 ca        1 NNZ     -0.096000
      7 C25         2.6870   -1.1680    3.3710 ca        1 NNZ      0.013700
      8 N26         2.1360   -1.2570    2.1270 na        1 NNZ      0.049900
      9 C27         1.8810   -2.5710    1.5470 c3        1 NNZ     -0.048400
     10 HN16       -0.3550    0.2920   -1.1000 hn        1 NNZ      0.481467
     11 HN1A       -0.2460    1.1760    0.3160 hn        1 NNZ      0.481467
     12 H17         1.4760   -1.1520   -0.4820 hx        1 NNZ      0.151700
     13 H17A        1.9580    0.6050   -0.6170 hx        1 NNZ      0.151700
     14 H22         1.9910    2.0760    1.3950 ha        1 NNZ      0.197000
     15 H23         2.9730    2.2380    3.6990 ha        1 NNZ      0.224000
     16 H24         3.4390    0.0860    4.9810 ha        1 NNZ      0.234000
     17 H25         2.8940   -2.1230    3.9110 h4        1 NNZ      0.239000
     18 H27         2.0240   -3.3730    2.3270 h1        1 NNZ      0.112367
     19 H27A        2.6060   -2.7600    0.7060 h1        1 NNZ      0.112367
     20 H27B        0.8240   -2.6230    1.1750 h1        1 NNZ      0.112367
     21 H163       -0.6890   -0.4320    0.3690 hn        1 NNZ      0.481467
@<TRIPOS>BOND
     1    1    2 1   
     2    1   10 1   
     3    1   11 1   
     4    1   21 1   
     5    2    3 1   
     6    2   12 1   
     7    2   13 1   
     8    3    4 ar  
     9    3    8 2   
    10    4    5 ar  
    11    4   14 1   
    12    5    6 ar  
    13    5   15 1   
    14    6    7 ar  
    15    6   16 1   
    16    7    8 1   
    17    7   17 1   
    18    8    9 1   
    19    9   18 1   
    20    9   19 1   
    21    9   20 1   
@<TRIPOS>SUBSTRUCTURE
     1 NNZ         1 TEMP              0 ****  ****    0 ROOT
