@<TRIPOS>MOLECULE
NO1
   25    24     1     0     0
SMALL
bcc


@<TRIPOS>ATOM
      1 C           0.0250   -0.0680    0.0960 c2        1 NO1      0.377000
      2 O           1.2710   -0.1880    0.0510 o         1 NO1     -0.524000
      3 OXT        -0.6950    0.0030    1.1270 o         1 NO1     -0.524000
      4 CG         -0.1820   -0.0370   -2.6220 c2        1 NO1     -0.147000
      5 CD1        -0.7260    0.0020   -1.2460 c2        1 NO1     -0.007000
      6 NE1        -2.0550    0.1170   -1.3320 na        1 NO1     -0.037000
      7 CD2        -1.3580    0.0800   -3.5310 c2        1 NO1      0.170000
      8 CE2        -2.4990    0.1640   -2.6830 c2        1 NO1     -0.259000
      9 CE3        -1.2990    0.1150   -4.9230 c2        1 NO1     -0.394000
     10 CZ2        -3.8980    0.2100   -2.9880 c2        1 NO1     -0.320000
     11 CZ3        -2.5330    0.3490   -5.7000 c3        1 NO1     -0.133000
     12 CH2        -4.5000    0.0410   -4.1570 c1        1 NO1      0.035000
     13 CF         -0.0420   -0.0480   -5.5460 c1        1 NO1     -0.072000
     14 OH          0.1600    0.0100   -6.8360 oh        1 NO1     -0.202000
     15 HB1C        2.7210   -2.8880   -3.3510 ha        1 NO1      0.000000
     16 HB2C        2.3660   -2.3190   -3.2520 ha        1 NO1      0.000000
     17 HB3C        1.8710   -0.2260   -2.1150 ha        1 NO1      0.165500
     18 HE1        -2.6600    0.1640   -0.5450 hn        1 NO1      0.261000
     19 HZ2        -4.5850    0.4010   -2.1350 ha        1 NO1      0.154000
     20 HZ3        -3.3950   -0.3170   -5.3420 hc        1 NO1      0.070000
     21 HF1C       -2.4140    0.0860   -6.7810 hc        1 NO1      0.070000
     22 HF2C        1.4650   -0.1780   -3.9710 ha        1 NO1      0.165500
     23 HH2        -2.8650    1.4150   -5.6360 hc        1 NO1      0.070000
     24 HH         -0.6310    0.1840   -7.3900 ho        1 NO1      0.113000
     25 CB          1.1190   -0.1520   -2.9200 c2        1 NO1     -0.032000
@<TRIPOS>BOND
     1    1    2 1   
     2    1    3 1   
     3    1    5 1   
     4    4    5 1   
     5    4    7 1   
     6    4   25 1   
     7    5    6 1   
     8    6    8 1   
     9    6   18 1   
    10    7    8 1   
    11    7    9 1   
    12    8   10 1   
    13    9   11 1   
    14    9   13 1   
    15   10   12 1   
    16   10   19 1   
    17   11   20 1   
    18   11   21 1   
    19   11   23 1   
    20   13   14 1   
    21   14   24 1   
    22   15   16 1   
    23   17   25 1   
    24   22   25 1   
@<TRIPOS>SUBSTRUCTURE
     1 NO1         1 TEMP              0 ****  ****    0 ROOT
