@<TRIPOS>MOLECULE
NO1
   25    26     1     0     0
SMALL
bcc


@<TRIPOS>ATOM
      1 C          -3.1770   -0.1630    0.0140 c         1 NO1      0.927800
      2 O          -3.5670   -1.3590    0.0340 o         1 NO1     -0.817300
      3 OXT        -3.9370    0.8470    0.0020 o         1 NO1     -0.817300
      4 CG         -0.5790   -0.7740    0.0030 cc        1 NO1     -0.170400
      5 CD1        -1.6750    0.1060    0.0050 cd        1 NO1     -0.067300
      6 NE1        -1.2050    1.4230    0.0030 na        1 NO1     -0.167400
      7 CD2         0.6230    0.0310    0.0050 ca        1 NO1     -0.079800
      8 CE2         0.1850    1.4180    0.0020 ca        1 NO1     -0.065200
      9 CE3         1.9990   -0.2370    0.0110 ca        1 NO1     -0.060300
     10 CZ2         1.1070    2.4740    0.0000 ca        1 NO1     -0.147000
     11 CZ3         2.8970    0.8250    0.0090 ca        1 NO1     -0.149000
     12 CH2         2.4570    2.1580    0.0020 ca        1 NO1     -0.150000
     13 CF          2.4580   -1.6550    0.0370 c3        1 NO1      0.178700
     14 OH          3.8660   -1.7210   -0.1680 oh        1 NO1     -0.608800
     15 HB1C       -0.2810   -2.6450   -0.9790 hc        1 NO1      0.035033
     16 HB2C       -0.0270   -2.6710    0.8140 hc        1 NO1      0.035033
     17 HB3C       -1.7180   -2.5630    0.1330 hc        1 NO1      0.035033
     18 HE1        -1.8000    2.2110    0.0010 hn        1 NO1      0.309700
     19 HZ2         0.7680    3.5180   -0.0040 ha        1 NO1      0.115000
     20 HZ3         3.9770    0.6150    0.0090 ha        1 NO1      0.128000
     21 HF1C        2.2110   -2.1140    1.0360 h1        1 NO1      0.032700
     22 HF2C        1.9310   -2.2410   -0.7670 h1        1 NO1      0.032700
     23 HH2         3.2030    2.9650   -0.0010 ha        1 NO1      0.107000
     24 HH          4.0780   -2.6590   -0.2190 ho        1 NO1      0.386000
     25 CB         -0.6540   -2.2350   -0.0050 c3        1 NO1     -0.021900
@<TRIPOS>BOND
     1    1    2 1   
     2    1    3 1   
     3    1    5 1   
     4    4    5 2   
     5    4    7 1   
     6    4   25 1   
     7    5    6 1   
     8    6    8 1   
     9    6   18 1   
    10    7    8 ar  
    11    7    9 ar  
    12    8   10 ar  
    13    9   11 ar  
    14    9   13 1   
    15   10   12 ar  
    16   10   19 1   
    17   11   12 ar  
    18   11   20 1   
    19   12   23 1   
    20   13   14 1   
    21   13   21 1   
    22   13   22 1   
    23   14   24 1   
    24   15   25 1   
    25   16   25 1   
    26   17   25 1   
@<TRIPOS>SUBSTRUCTURE
     1 NO1         1 TEMP              0 ****  ****    0 ROOT
