@<TRIPOS>MOLECULE
NO1
   25    24     1     0     0
SMALL
bcc


@<TRIPOS>ATOM
      1 C           0.0020   -0.0570    0.1030 c2        1 NO1      0.377000
      2 O           1.2510   -0.1570    0.0650 o         1 NO1     -0.524000
      3 OXT        -0.7250    0.0010    1.1290 o         1 NO1     -0.524000
      4 CG         -0.1870   -0.0250   -2.6160 c2        1 NO1     -0.147000
      5 CD1        -0.7410    0.0030   -1.2450 c2        1 NO1     -0.007000
      6 NE1        -2.0710    0.0980   -1.3390 na        1 NO1     -0.037000
      7 CD2        -1.3590    0.0750   -3.5330 c2        1 NO1      0.170000
      8 CE2        -2.5060    0.1410   -2.6930 c2        1 NO1     -0.259000
      9 CE3        -1.2900    0.1140   -4.9250 c2        1 NO1     -0.394000
     10 CZ2        -3.9030    0.1660   -3.0070 c2        1 NO1     -0.320000
     11 CZ3        -2.5230    0.3300   -5.7100 c3        1 NO1     -0.133000
     12 CH2        -4.4950   -0.0100   -4.1810 c1        1 NO1      0.035000
     13 CF         -0.0270   -0.0290   -5.5400 c1        1 NO1     -0.072000
     14 OH          0.1820    0.0350   -6.8280 oh        1 NO1     -0.202000
     15 HB1C        2.7450   -2.8410   -3.3270 ha        1 NO1      0.000000
     16 HB2C        2.3850   -2.2750   -3.2300 ha        1 NO1      0.000000
     17 HB3C        1.8660   -0.1840   -2.0960 ha        1 NO1      0.165500
     18 HE1        -2.6810    0.1350   -0.5560 hn        1 NO1      0.261000
     19 HZ2        -4.5990    0.3450   -2.1580 ha        1 NO1      0.154000
     20 HZ3        -3.3770   -0.3490   -5.3580 hc        1 NO1      0.070000
     21 HF1C       -2.3930    0.0700   -6.7900 hc        1 NO1      0.070000
     22 HF2C        1.4710   -0.1390   -3.9540 ha        1 NO1      0.165500
     23 HH2        -2.8710    1.3910   -5.6460 hc        1 NO1      0.070000
     24 HH         -0.6080    0.1970   -7.3870 ho        1 NO1      0.113000
     25 CB          1.1180   -0.1190   -2.9060 c2        1 NO1     -0.032000
@<TRIPOS>BOND
     1    1    2 1   
     2    1    3 1   
     3    1    5 1   
     4    4    5 1   
     5    4    7 1   
     6    4   25 1   
     7    5    6 1   
     8    6    8 1   
     9    6   18 1   
    10    7    8 1   
    11    7    9 1   
    12    8   10 1   
    13    9   11 1   
    14    9   13 1   
    15   10   12 1   
    16   10   19 1   
    17   11   20 1   
    18   11   21 1   
    19   11   23 1   
    20   13   14 1   
    21   14   24 1   
    22   15   16 1   
    23   17   25 1   
    24   22   25 1   
@<TRIPOS>SUBSTRUCTURE
     1 NO1         1 TEMP              0 ****  ****    0 ROOT
