@<TRIPOS>MOLECULE
NO1
   25    21     1     0     0
SMALL
bcc


@<TRIPOS>ATOM
      1 C           1.8650    0.0080    3.2200 c1        1 NO1      0.846000
      2 O           3.0320   -0.5090    3.2190 o         1 NO1     -0.784000
      3 OXT         1.3900    0.5170    4.2970 o         1 NO1     -0.784000
      4 CB         -0.3260   -1.9080    1.7870 c3        1 NO1     -0.023900
      5 CG          0.1520   -0.6240    1.1310 ce        1 NO1     -0.209000
      6 CD1         1.0610    0.0440    1.9570 c1        1 NO1      0.262500
      7 NE1         1.5320    1.1380    1.2740 ne        1 NO1     -0.462400
      8 CD2         0.0720    0.0690   -0.0620 cg        1 NO1     -0.093300
      9 CE2         0.9240    1.1600    0.0230 cg        1 NO1      0.033000
     10 CE3        -0.7510   -0.0980   -1.2050 c1        1 NO1     -0.064100
     11 CZ2         0.9730    2.1100   -1.0350 c1        1 NO1     -0.089500
     12 CZ3        -0.7000    0.8500   -2.2590 c1        1 NO1     -0.101000
     13 CH2         0.1570    1.9450   -2.1690 c1        1 NO1     -0.101000
     14 CF         -1.6770   -1.1210   -1.8170 c3        1 NO1      0.140500
     15 OH         -2.9760   -0.5300   -2.0200 oh        1 NO1     -0.618800
     16 HB1C       -0.8510   -2.4150    1.1580 hc        1 NO1      0.037033
     17 HB2C        0.4300   -2.4270    2.0630 hc        1 NO1      0.037033
     18 HB3C       -0.8830   -1.6880    2.5800 hc        1 NO1      0.037033
     19 HE1         2.1550    1.7500    1.5880 DU        1 NO1      0.261000
     20 HZ2         1.7320    2.7220   -1.3060 ha        1 NO1      0.059500
     21 HZ3        -0.8820    0.8230   -3.2320 ha        1 NO1      0.055500
     22 HF1C       -1.7580   -1.8950   -1.2110 h1        1 NO1      0.053700
     23 HF2C       -1.3060   -1.4230   -2.6950 h1        1 NO1      0.053700
     24 HH2         0.1560    2.6340   -2.8860 ha        1 NO1      0.055500
     25 HH         -3.5230   -1.1330   -2.3980 ho        1 NO1      0.396000
@<TRIPOS>BOND
     1    1    2 2   
     2    1    3 2   
     3    4    5 1   
     4    4   16 1   
     5    4   17 1   
     6    4   18 1   
     7    5    6 2   
     8    5    8 1   
     9    6    7 2   
    10    7    9 1   
    11    8   10 3   
    12    9   11 3   
    13   10   14 1   
    14   11   20 1   
    15   12   13 3   
    16   12   21 1   
    17   13   24 1   
    18   14   15 1   
    19   14   22 1   
    20   14   23 1   
    21   15   25 1   
@<TRIPOS>SUBSTRUCTURE
     1 NO1         1 TEMP              0 ****  ****    0 ROOT
