@<TRIPOS>MOLECULE
NO2
    3     2     1     0     0
SMALL
bcc


@<TRIPOS>ATOM
      1 N           0.0000   -0.4380    0.0010 n2        1 NO2      0.087400
      2 O1         -1.0350    0.1920   -0.0000 o         1 NO2     -0.543700
      3 O2          1.0350    0.1930   -0.0010 o         1 NO2     -0.543700
@<TRIPOS>BOND
     1    1    2 2   
     2    1    3 2   
@<TRIPOS>SUBSTRUCTURE
     1 NO2         1 TEMP              0 ****  ****    0 ROOT
