@<TRIPOS>MOLECULE
NO3
    4     3     1     0     0
SMALL
bcc


@<TRIPOS>ATOM
      1 N           0.0000   -0.0000   -0.0000 no        1 NO3      0.535700
      2 O1         -1.2250    0.0170   -0.0000 o         1 NO3     -0.699700
      3 O2          0.6270    1.0530   -0.0000 o         1 NO3     -0.418000
      4 O3          0.5980   -1.0690   -0.0000 o         1 NO3     -0.418000
@<TRIPOS>BOND
     1    1    2 2   
     2    1    3 1   
     3    1    4 1   
@<TRIPOS>SUBSTRUCTURE
     1 NO3         1 TEMP              0 ****  ****    0 ROOT
