@<TRIPOS>MOLECULE
NOA
   24    25     1     0     0
SMALL
bcc


@<TRIPOS>ATOM
      1 C          -0.1130    0.0090    0.2820 c         1 NOA      0.924600
      2 CA          1.4050    0.0190   -0.0600 c3        1 NOA     -0.012600
      3 C1          3.4910   -0.0070    1.0870 ca        1 NOA      0.184100
      4 C2          4.2140    0.0330   -0.0970 ca        1 NOA     -0.260000
      5 C3          5.6220    0.0500   -0.0590 ca        1 NOA     -0.073000
      6 C4          6.3040    0.0280    1.1340 ca        1 NOA     -0.202000
      7 C4A         5.5920   -0.0090    2.3630 ca        1 NOA     -0.001000
      8 C5          6.2670   -0.0300    3.6150 ca        1 NOA     -0.150000
      9 C6          5.5590   -0.0600    4.7920 ca        1 NOA     -0.121000
     10 C7          4.1460   -0.0700    4.7770 ca        1 NOA     -0.173000
     11 C8          3.4650   -0.0510    3.5820 ca        1 NOA     -0.066000
     12 C1A         4.1750   -0.0240    2.3530 ca        1 NOA     -0.073000
     13 O          -0.5430    0.8120    1.1470 o         1 NOA     -0.819300
     14 OXT        -0.8110   -0.7930   -0.3960 o         1 NOA     -0.819300
     15 O1          2.1290   -0.0410    1.1750 os        1 NOA     -0.283900
     16 HA1         1.6610    0.9670   -0.5980 h1        1 NOA      0.024700
     17 HA2         1.6710   -0.8680   -0.6890 h1        1 NOA      0.024700
     18 H2          3.7020    0.0500   -1.0680 ha        1 NOA      0.143000
     19 H3          6.1730    0.0810   -1.0110 ha        1 NOA      0.113000
     20 H4          7.4020    0.0400    1.1590 ha        1 NOA      0.116000
     21 H5          7.3660   -0.0200    3.6180 ha        1 NOA      0.117000
     22 H6          6.0840   -0.0760    5.7580 ha        1 NOA      0.113000
     23 H7          3.5990   -0.0900    5.7300 ha        1 NOA      0.123000
     24 H8          2.3620   -0.0530    3.5450 ha        1 NOA      0.172000
@<TRIPOS>BOND
     1    1    2 1   
     2    1   13 1   
     3    1   14 1   
     4    2   15 1   
     5    2   16 1   
     6    2   17 1   
     7    3    4 ar  
     8    3   12 ar  
     9    3   15 1   
    10    4    5 ar  
    11    4   18 1   
    12    5    6 ar  
    13    5   19 1   
    14    6    7 ar  
    15    6   20 1   
    16    7    8 ar  
    17    7   12 ar  
    18    8    9 ar  
    19    8   21 1   
    20    9   10 ar  
    21    9   22 1   
    22   10   11 ar  
    23   10   23 1   
    24   11   12 ar  
    25   11   24 1   
@<TRIPOS>SUBSTRUCTURE
     1 NOA         1 TEMP              0 ****  ****    0 ROOT
