@<TRIPOS>MOLECULE
NOA
   24    25     1     0     0
SMALL
bcc


@<TRIPOS>ATOM
      1 C           0.6770   -0.0000    3.5280 c         1 NOA      0.925600
      2 CA         -0.4120   -0.0000    2.4200 c3        1 NOA     -0.014600
      3 C1         -0.5750    0.0000    0.0460 ca        1 NOA      0.182100
      4 C2         -1.9620    0.0000    0.0740 ca        1 NOA     -0.263000
      5 C3         -2.6890    0.0000   -1.1320 ca        1 NOA     -0.073000
      6 C4         -2.0510    0.0000   -2.3490 ca        1 NOA     -0.203000
      7 C4A        -0.6320    0.0000   -2.4120 ca        1 NOA     -0.002000
      8 C5          0.0590    0.0000   -3.6550 ca        1 NOA     -0.151000
      9 C6          1.4330    0.0000   -3.6920 ca        1 NOA     -0.121000
     10 C7          2.1820    0.0000   -2.4930 ca        1 NOA     -0.174000
     11 C8          1.5420    0.0000   -1.2760 ca        1 NOA     -0.066000
     12 C1A         0.1230    0.0000   -1.2140 ca        1 NOA     -0.073000
     13 O           1.8930    0.0000    3.2160 o         1 NOA     -0.820800
     14 OXT         0.2140   -0.0000    4.7030 o         1 NOA     -0.820800
     15 O1          0.2370    0.0000    1.1430 os        1 NOA     -0.277900
     16 HA1        -1.0470   -0.9160    2.5160 h1        1 NOA      0.026700
     17 HA2        -1.0470    0.9160    2.5160 h1        1 NOA      0.026700
     18 H2         -2.5050    0.0000    1.0290 ha        1 NOA      0.143000
     19 H3         -3.7880    0.0000   -1.0830 ha        1 NOA      0.113000
     20 H4         -2.6220    0.0000   -3.2880 ha        1 NOA      0.115000
     21 H5         -0.5300    0.0000   -4.5830 ha        1 NOA      0.117000
     22 H6          1.9650    0.0000   -4.6540 ha        1 NOA      0.112000
     23 H7          3.2800    0.0000   -2.5460 ha        1 NOA      0.123000
     24 H8          2.1030    0.0000   -0.3240 ha        1 NOA      0.177000
@<TRIPOS>BOND
     1    1    2 1   
     2    1   13 1   
     3    1   14 1   
     4    2   15 1   
     5    2   16 1   
     6    2   17 1   
     7    3    4 ar  
     8    3   12 ar  
     9    3   15 1   
    10    4    5 ar  
    11    4   18 1   
    12    5    6 ar  
    13    5   19 1   
    14    6    7 ar  
    15    6   20 1   
    16    7    8 ar  
    17    7   12 ar  
    18    8    9 ar  
    19    8   21 1   
    20    9   10 ar  
    21    9   22 1   
    22   10   11 ar  
    23   10   23 1   
    24   11   12 ar  
    25   11   24 1   
@<TRIPOS>SUBSTRUCTURE
     1 NOA         1 TEMP              0 ****  ****    0 ROOT
