@<TRIPOS>MOLECULE
NOA
   24    19     1     0     0
SMALL
bcc


@<TRIPOS>ATOM
      1 C          -3.7720    0.6610   -1.4090 c1        1 NOA      0.344000
      2 CA         -2.2680    0.8150   -1.4170 c2        1 NOA     -0.113000
      3 C1         -0.2780   -0.2720   -0.7760 c1        1 NOA      0.139000
      4 C2          0.4690   -0.3140   -1.9470 c1        1 NOA     -0.260000
      5 C3          1.8600   -0.3490   -1.8860 c1        1 NOA     -0.142250
      6 C4          2.5020   -0.3400   -0.6550 c1        1 NOA     -0.142250
      7 C4A         1.7450   -0.2960    0.5340 c1        1 NOA     -0.037000
      8 C5          2.3940   -0.2960    1.7830 c1        1 NOA     -0.108000
      9 C6          1.6470   -0.2620    2.9540 c1        1 NOA     -0.142250
     10 C7          0.2550   -0.2280    2.8920 c1        1 NOA     -0.142250
     11 C8         -0.3850   -0.2280    1.6610 c1        1 NOA     -0.108000
     12 C1A         0.3720   -0.2630    0.4730 c1        1 NOA     -0.037000
     13 O          -4.3380   -0.0400   -2.2870 o         1 NOA     -0.554000
     14 OXT        -4.4620    1.2710   -0.5490 o         1 NOA     -0.554000
     15 O1         -1.6750   -0.3500   -0.8960 os        1 NOA     -0.167000
     16 HA1        -1.9600    0.9550   -2.3370 h4        1 NOA      0.064000
     17 HA2        -2.0150    1.5850   -0.8670 h4        1 NOA      0.064000
     18 H2          0.1540   -0.3970   -2.8690 ha        1 NOA      0.143000
     19 H3          2.4410   -0.3840   -2.6690 ha        1 NOA      0.116250
     20 H4          3.4760   -0.2960   -0.7100 ha        1 NOA      0.116250
     21 H5          3.3670   -0.3200    1.8260 ha        1 NOA      0.144500
     22 H6          2.0970   -0.2620    3.8190 ha        1 NOA      0.116250
     23 H7         -0.2690   -0.2040    3.7140 ha        1 NOA      0.116250
     24 H8         -1.3580   -0.1890    1.6180 ha        1 NOA      0.144500
@<TRIPOS>BOND
     1    1   13 1   
     2    1   14 1   
     3    2   15 1   
     4    2   16 1   
     5    2   17 1   
     6    3    4 1   
     7    3   15 1   
     8    4   18 1   
     9    5    6 1   
    10    5   19 1   
    11    6   20 1   
    12    7    8 1   
    13    7   12 1   
    14    8   21 1   
    15    9   10 1   
    16    9   22 1   
    17   10   23 1   
    18   11   12 1   
    19   11   24 1   
@<TRIPOS>SUBSTRUCTURE
     1 NOA         1 TEMP              0 ****  ****    0 ROOT
