@<TRIPOS>MOLECULE
NOC
   35    37     1     0     0
SMALL
bcc


@<TRIPOS>ATOM
      1 C6'         0.0320    0.1940    0.0590 c3        1 NOC      0.136400
      2 O6'        -0.1390    1.4680    0.6620 oh        1 NOC     -0.615800
      3 C5'         1.8700   -1.4410   -0.5270 c3        1 NOC     -0.087400
      4 C4'         1.5310   -0.0700    0.0450 c3        1 NOC     -0.111700
      5 C3'         2.1210   -0.0130    1.4630 c3        1 NOC      0.121100
      6 O3'         2.6600    1.2560    1.7670 oh        1 NOC     -0.601800
      7 C2'         3.2870   -1.0210    1.4700 c3        1 NOC      0.129100
      8 O2'         3.4380   -1.6750    2.7110 oh        1 NOC     -0.596800
      9 C1'         2.8760   -2.1110    0.4370 c3        1 NOC      0.034000
     10 N9          4.0110   -2.7190   -0.2230 na        1 NOC     -0.227000
     11 C8          5.0370   -2.0580   -0.9310 cc        1 NOC      0.501700
     12 N7          6.0220   -2.8700   -1.3680 nd        1 NOC     -0.588100
     13 C5          5.6540   -4.1420   -0.9260 ca        1 NOC     -0.139200
     14 C6          6.2270   -5.4220   -1.0280 ca        1 NOC      0.518200
     15 N6          7.5120   -5.5590   -1.7380 n4        1 NOC     -0.815300
     16 N1          5.6390   -6.5200   -0.4930 nb        1 NOC     -0.679000
     17 C2          4.4530   -6.3240    0.1560 ca        1 NOC      0.671900
     18 N3          3.7690   -5.1670    0.3460 nb        1 NOC     -0.610000
     19 C4          4.3690   -4.0750   -0.1880 ca        1 NOC      0.463800
     20 H6'1       -0.5090   -0.5860    0.6600 h1        1 NOC      0.036700
     21 H6'2       -0.3720    0.1990   -0.9880 h1        1 NOC      0.036700
     22 HO6'       -1.0760    1.6880    0.5990 ho        1 NOC      0.423000
     23 H5'1        2.2830   -1.3320   -1.5620 hc        1 NOC      0.067200
     24 H5'2        0.9570   -2.0860   -0.6000 hc        1 NOC      0.067200
     25 HC4'        2.0210    0.7360   -0.5710 hc        1 NOC      0.085700
     26 HC3'        1.3500   -0.2970    2.2320 h1        1 NOC      0.069700
     27 HO3'        1.9300    1.8890    1.7010 ho        1 NOC      0.442000
     28 HC2'        4.2440   -0.4980    1.1940 h1        1 NOC      0.064700
     29 HO2'        3.5160   -0.9840    3.3840 ho        1 NOC      0.434000
     30 HC1'        2.3480   -2.9360    1.0080 h1        1 NOC      0.125700
     31 HC8         5.0060   -0.9680   -1.1010 h5        1 NOC      0.109800
     32 HN61        8.2220   -5.0150   -1.2330 hn        1 NOC      0.477800
     33 HN62        7.4030   -5.1750   -2.6850 hn        1 NOC      0.477800
     34 HC2         3.9900   -7.2440    0.5860 h5        1 NOC      0.100100
     35 H63         7.8050   -6.5430   -1.7940 hn        1 NOC      0.477800
@<TRIPOS>BOND
     1    1    2 1   
     2    1    4 1   
     3    1   20 1   
     4    1   21 1   
     5    2   22 1   
     6    3    4 1   
     7    3    9 1   
     8    3   23 1   
     9    3   24 1   
    10    4    5 1   
    11    4   25 1   
    12    5    6 1   
    13    5    7 1   
    14    5   26 1   
    15    6   27 1   
    16    7    8 1   
    17    7    9 1   
    18    7   28 1   
    19    8   29 1   
    20    9   10 1   
    21    9   30 1   
    22   10   11 1   
    23   10   19 1   
    24   11   12 2   
    25   11   31 1   
    26   12   13 1   
    27   13   14 ar  
    28   13   19 ar  
    29   14   15 1   
    30   14   16 ar  
    31   15   32 1   
    32   15   33 1   
    33   15   35 1   
    34   16   17 ar  
    35   17   18 ar  
    36   17   34 1   
    37   18   19 ar  
@<TRIPOS>SUBSTRUCTURE
     1 NOC         1 TEMP              0 ****  ****    0 ROOT
