@<TRIPOS>MOLECULE
NOC
   34    36     1     0     0
SMALL
bcc


@<TRIPOS>ATOM
      1 C6'         0.1350    0.2060   -0.1080 c3        1 NOC      0.134400
      2 O6'         0.1220    1.6090    0.1160 oh        1 NOC     -0.616800
      3 C5'         1.7330   -1.7410   -0.2000 c3        1 NOC     -0.090400
      4 C4'         1.5790   -0.2470    0.0370 c3        1 NOC     -0.109700
      5 C3'         2.1240    0.0180    1.4470 c3        1 NOC      0.114100
      6 O3'         2.7670    1.2740    1.5480 oh        1 NOC     -0.606800
      7 C2'         3.1840   -1.0720    1.7080 c3        1 NOC      0.128100
      8 O2'         3.0620   -1.6010    3.0140 oh        1 NOC     -0.590800
      9 C1'         2.8660   -2.2440    0.7280 c3        1 NOC      0.058000
     10 N9          4.0280   -2.7180    0.0260 na        1 NOC     -0.260000
     11 C8          4.9850   -1.9440   -0.6780 cc        1 NOC      0.400700
     12 N7          5.9480   -2.6750   -1.2560 nd        1 NOC     -0.543100
     13 C5          5.6350   -4.0060   -0.9420 ca        1 NOC     -0.235200
     14 C6          6.2640   -5.2560   -1.2610 ca        1 NOC      0.760200
     15 N6          7.3850   -5.2830   -2.0500 nv        1 NOC     -0.957500
     16 N1          5.7040   -6.4190   -0.7850 nb        1 NOC     -0.796000
     17 C2          4.5670   -6.3130   -0.0480 ca        1 NOC      0.686900
     18 N3          3.8630   -5.2190    0.3230 nb        1 NOC     -0.734000
     19 C4          4.4210   -4.0560   -0.1340 ca        1 NOC      0.464800
     20 H6'1       -0.5240   -0.3060    0.6440 h1        1 NOC      0.032200
     21 H6'2       -0.2410   -0.0240   -1.1410 h1        1 NOC      0.032200
     22 HO6'       -0.7880    1.9030   -0.0090 ho        1 NOC      0.411000
     23 H5'1        1.9390   -1.9500   -1.2790 hc        1 NOC      0.064700
     24 H5'2        0.7910   -2.2830    0.0730 hc        1 NOC      0.064700
     25 HC4'        2.2060    0.3290   -0.6990 hc        1 NOC      0.078700
     26 HC3'        1.3010   -0.0460    2.2120 h1        1 NOC      0.056700
     27 HO3'        2.1250    1.9360    1.2510 ho        1 NOC      0.429000
     28 HC2'        4.2130   -0.6450    1.5580 h1        1 NOC      0.069700
     29 HO2'        3.2970   -0.8880    3.6220 ho        1 NOC      0.415000
     30 HC1'        2.4750   -3.1110    1.3450 h1        1 NOC      0.119700
     31 HC8         4.9100   -0.8510   -0.7170 h5        1 NOC      0.075800
     32 HN61        7.8720   -6.1320   -2.1980 hn        1 NOC      0.446300
     33 HN62        7.8190   -4.4250   -2.2820 hn        1 NOC      0.446300
     34 HC2         4.1540   -7.2840    0.3060 h5        1 NOC      0.051100
@<TRIPOS>BOND
     1    1    2 1   
     2    1    4 1   
     3    1   20 1   
     4    1   21 1   
     5    2   22 1   
     6    3    4 1   
     7    3    9 1   
     8    3   23 1   
     9    3   24 1   
    10    4    5 1   
    11    4   25 1   
    12    5    6 1   
    13    5    7 1   
    14    5   26 1   
    15    6   27 1   
    16    7    8 1   
    17    7    9 1   
    18    7   28 1   
    19    8   29 1   
    20    9   10 1   
    21    9   30 1   
    22   10   11 1   
    23   10   19 1   
    24   11   12 2   
    25   11   31 1   
    26   12   13 1   
    27   13   14 ar  
    28   13   19 ar  
    29   14   15 1   
    30   14   16 ar  
    31   15   32 1   
    32   15   33 1   
    33   16   17 ar  
    34   17   18 ar  
    35   17   34 1   
    36   18   19 ar  
@<TRIPOS>SUBSTRUCTURE
     1 NOC         1 TEMP              0 ****  ****    0 ROOT
