@<TRIPOS>MOLECULE
NOC
   34    32     1     0     0
SMALL
bcc


@<TRIPOS>ATOM
      1 C6'        -3.5010    2.0430   -0.2770 c3        1 NOC      0.134400
      2 O6'        -3.8880    3.3690   -0.4940 oh        1 NOC     -0.616800
      3 C5'        -1.4330    0.5890   -0.8030 c3        1 NOC     -0.090400
      4 C4'        -1.9260    1.9590   -0.2330 c3        1 NOC     -0.109700
      5 C3'        -1.4960    1.9830    1.0610 c3        1 NOC      0.114100
      6 O3'        -1.1670    3.2980    1.4300 oh        1 NOC     -0.606800
      7 C2'        -0.1530    1.0230    1.1240 c3        1 NOC      0.128100
      8 O2'         0.0350    0.5440    2.4320 oh        1 NOC     -0.590800
      9 C1'        -0.3880    0.0050    0.3000 c3        1 NOC      0.058000
     10 N9          0.8430   -0.4220   -0.3400 n3        1 NOC     -0.103400
     11 C8          1.7410    0.2590   -1.0600 c1        1 NOC      0.165400
     12 N7          2.7900   -0.5860   -1.3400 ne        1 NOC     -0.388400
     13 C5          2.5220   -1.7910   -0.7820 cg        1 NOC     -0.192000
     14 C6          3.2140   -2.9860   -0.7900 c1        1 NOC      0.620600
     15 N6          4.4700   -3.3120   -1.3540 n3        1 NOC     -0.820400
     16 N1          2.6910   -4.0810   -0.1720 n1        1 NOC     -0.595800
     17 C2          1.4830   -3.9980    0.4540 c1        1 NOC      0.407300
     18 N3          0.7980   -2.8170    0.4630 n1        1 NOC     -0.533800
     19 C4          1.3270   -1.7090   -0.1620 c1        1 NOC      0.017700
     20 H6'1       -3.8580    1.7410    0.5500 h1        1 NOC      0.032200
     21 H6'2       -3.8340    1.4900   -0.9900 h1        1 NOC      0.032200
     22 HO6'       -4.7930    3.4200   -0.5150 ho        1 NOC      0.411000
     23 H5'1       -2.1290    0.0240   -0.9030 hc        1 NOC      0.064700
     24 H5'2       -0.9650    0.7300   -1.6890 hc        1 NOC      0.064700
     25 HC4'       -1.5260    2.7110   -0.7460 hc        1 NOC      0.078700
     26 HC3'       -2.2180    1.6150    1.6780 h1        1 NOC      0.056700
     27 HO3'       -1.5600    3.4950    2.1530 ho        1 NOC      0.429000
     28 HC2'        0.6310    1.5190    0.8340 h1        1 NOC      0.069700
     29 HO2'        0.5000    1.0830    2.8580 ho        1 NOC      0.415000
     30 HC1'       -0.7910   -0.7380    0.7890 h1        1 NOC      0.119700
     31 HC8         1.7150    1.1830   -1.2420 DU        1 NOC      0.206000
     32 HN61        5.1290   -3.6900   -0.8280 hn        1 NOC      0.446300
     33 HN62        4.6260   -3.1760   -2.2980 hn        1 NOC      0.446300
     34 HC2         1.1110   -4.7790    0.8950 ha        1 NOC      0.130500
@<TRIPOS>BOND
     1    1    2 1   
     2    1    4 1   
     3    1   20 1   
     4    1   21 1   
     5    2   22 1   
     6    3    4 1   
     7    3    9 1   
     8    3   23 1   
     9    3   24 1   
    10    4    5 1   
    11    4   25 1   
    12    5    6 1   
    13    5    7 1   
    14    5   26 1   
    15    6   27 1   
    16    7    8 1   
    17    7    9 1   
    18    7   28 1   
    19    8   29 1   
    20    9   10 1   
    21    9   30 1   
    22   10   11 2   
    23   10   19 1   
    24   11   12 2   
    25   12   13 1   
    26   13   19 3   
    27   14   15 1   
    28   14   16 3   
    29   15   32 1   
    30   15   33 1   
    31   17   18 3   
    32   17   34 1   
@<TRIPOS>SUBSTRUCTURE
     1 NOC         1 TEMP              0 ****  ****    0 ROOT
