@<TRIPOS>MOLECULE
NOC
   34    36     1     0     0
SMALL
bcc


@<TRIPOS>ATOM
      1 C6'        -4.0450    1.2030    0.9710 c3        1 NOC      0.134400
      2 O6'        -5.1600    0.3370    1.1330 oh        1 NOC     -0.616800
      3 C5'        -1.5680    1.1310    0.5110 c3        1 NOC     -0.090400
      4 C4'        -2.8410    0.3180    0.6880 c3        1 NOC     -0.109700
      5 C3'        -3.0140   -0.4880   -0.6050 c3        1 NOC      0.114100
      6 O3'        -3.5840   -1.7620   -0.3730 oh        1 NOC     -0.606800
      7 C2'        -1.5930   -0.7070   -1.1660 c3        1 NOC      0.128100
      8 O2'        -1.5570   -0.4950   -2.5640 oh        1 NOC     -0.590800
      9 C1'        -0.6900    0.3970   -0.5320 c3        1 NOC      0.058000
     10 N9          0.5390   -0.1240    0.0020 na        1 NOC     -0.260000
     11 C8          0.6990   -1.2300    0.8750 cc        1 NOC      0.400700
     12 N7          1.9720   -1.4600    1.2250 nd        1 NOC     -0.543100
     13 C5          2.7150   -0.4670    0.5710 ca        1 NOC     -0.235200
     14 C6          4.1180   -0.1640    0.5350 ca        1 NOC      0.760200
     15 N6          5.0030   -0.9060    1.2740 nh        1 NOC     -0.957500
     16 N1          4.5480    0.8980   -0.2260 nb        1 NOC     -0.796000
     17 C2          3.6040    1.6150   -0.8930 ca        1 NOC      0.686900
     18 N3          2.2610    1.4550   -0.9490 nb        1 NOC     -0.734000
     19 C4          1.8270    0.3920   -0.2060 ca        1 NOC      0.464800
     20 H6'1       -3.8780    1.7960    1.9090 h1        1 NOC      0.032200
     21 H6'2       -4.2340    1.9090    0.1180 h1        1 NOC      0.032200
     22 HO6'       -5.9170    0.8940    1.3460 ho        1 NOC      0.411000
     23 H5'1       -1.0460    1.2650    1.4910 hc        1 NOC      0.064700
     24 H5'2       -1.8030    2.1510    0.1140 hc        1 NOC      0.064700
     25 HC4'       -2.7240   -0.4040    1.5430 hc        1 NOC      0.078700
     26 HC3'       -3.6440    0.0760   -1.3470 h1        1 NOC      0.056700
     27 HO3'       -4.4140   -1.6090    0.1000 ho        1 NOC      0.429000
     28 HC2'       -1.2450   -1.7480   -0.9240 h1        1 NOC      0.069700
     29 HO2'       -2.0830   -1.2000   -2.9630 ho        1 NOC      0.415000
     30 HC1'       -0.4110    1.1270   -1.3530 h1        1 NOC      0.119700
     31 HC8        -0.1660   -1.8190    1.2060 h5        1 NOC      0.075800
     32 HN61        5.9770   -0.7590    1.1830 hn        1 NOC      0.446300
     33 HN62        4.6740   -1.7250    1.7220 hn        1 NOC      0.446300
     34 HC2         4.0050    2.4650   -1.4880 h5        1 NOC      0.051100
@<TRIPOS>BOND
     1    1    2 1   
     2    1    4 1   
     3    1   20 1   
     4    1   21 1   
     5    2   22 1   
     6    3    4 1   
     7    3    9 1   
     8    3   23 1   
     9    3   24 1   
    10    4    5 1   
    11    4   25 1   
    12    5    6 1   
    13    5    7 1   
    14    5   26 1   
    15    6   27 1   
    16    7    8 1   
    17    7    9 1   
    18    7   28 1   
    19    8   29 1   
    20    9   10 1   
    21    9   30 1   
    22   10   11 1   
    23   10   19 1   
    24   11   12 2   
    25   11   31 1   
    26   12   13 1   
    27   13   14 ar  
    28   13   19 ar  
    29   14   15 1   
    30   14   16 ar  
    31   15   32 1   
    32   15   33 1   
    33   16   17 ar  
    34   17   18 ar  
    35   17   34 1   
    36   18   19 ar  
@<TRIPOS>SUBSTRUCTURE
     1 NOC         1 TEMP              0 ****  ****    0 ROOT
