@<TRIPOS>MOLECULE
NOC
   34    36     1     0     0
SMALL
bcc


@<TRIPOS>ATOM
      1 C6'         0.1480    0.2150   -0.0960 c3        1 NOC      0.134400
      2 O6'         0.1400    1.6170    0.1360 oh        1 NOC     -0.616800
      3 C5'         1.7400   -1.7360   -0.1990 c3        1 NOC     -0.090400
      4 C4'         1.5910   -0.2430    0.0460 c3        1 NOC     -0.109700
      5 C3'         2.1370    0.0130    1.4570 c3        1 NOC      0.114100
      6 O3'         2.7840    1.2660    1.5640 oh        1 NOC     -0.606800
      7 C2'         3.1930   -1.0820    1.7120 c3        1 NOC      0.128100
      8 O2'         3.0710   -1.6170    3.0160 oh        1 NOC     -0.590800
      9 C1'         2.8710   -2.2490    0.7260 c3        1 NOC      0.058000
     10 N9          4.0310   -2.7240    0.0230 na        1 NOC     -0.260000
     11 C8          4.9910   -1.9510   -0.6790 cc        1 NOC      0.400700
     12 N7          5.9510   -2.6830   -1.2600 nd        1 NOC     -0.543100
     13 C5          5.6330   -4.0140   -0.9510 ca        1 NOC     -0.235200
     14 C6          6.2580   -5.2660   -1.2740 ca        1 NOC      0.760200
     15 N6          7.3780   -5.2930   -2.0640 nh        1 NOC     -0.957500
     16 N1          5.6940   -6.4280   -0.8040 nb        1 NOC     -0.796000
     17 C2          4.5560   -6.3210   -0.0660 ca        1 NOC      0.686900
     18 N3          3.8570   -5.2250    0.3090 nb        1 NOC     -0.734000
     19 C4          4.4190   -4.0630   -0.1430 ca        1 NOC      0.464800
     20 H6'1       -0.2290   -0.0080   -1.1300 h1        1 NOC      0.032200
     21 H6'2       -0.5120   -0.2990    0.6540 h1        1 NOC      0.032200
     22 HO6'       -0.7690    1.9140    0.0130 ho        1 NOC      0.411000
     23 H5'1        0.7960   -2.2760    0.0700 hc        1 NOC      0.064700
     24 H5'2        1.9460   -1.9410   -1.2790 hc        1 NOC      0.064700
     25 HC4'        2.2200    0.3340   -0.6870 hc        1 NOC      0.078700
     26 HC3'        1.3150   -0.0520    2.2220 h1        1 NOC      0.056700
     27 HO3'        2.1450    1.9310    1.2710 ho        1 NOC      0.429000
     28 HC2'        4.2240   -0.6590    1.5630 h1        1 NOC      0.069700
     29 HO2'        3.3080   -0.9090    3.6270 ho        1 NOC      0.415000
     30 HC1'        2.4760   -3.1170    1.3400 h1        1 NOC      0.119700
     31 HC8         4.9200   -0.8570   -0.7130 h5        1 NOC      0.075800
     32 HN61        7.8630   -6.1430   -2.2150 hn        1 NOC      0.446300
     33 HN62        7.8160   -4.4360   -2.2930 hn        1 NOC      0.446300
     34 HC2         4.1400   -7.2910    0.2830 h5        1 NOC      0.051100
@<TRIPOS>BOND
     1    1    2 1   
     2    1    4 1   
     3    1   20 1   
     4    1   21 1   
     5    2   22 1   
     6    3    4 1   
     7    3    9 1   
     8    3   23 1   
     9    3   24 1   
    10    4    5 1   
    11    4   25 1   
    12    5    6 1   
    13    5    7 1   
    14    5   26 1   
    15    6   27 1   
    16    7    8 1   
    17    7    9 1   
    18    7   28 1   
    19    8   29 1   
    20    9   10 1   
    21    9   30 1   
    22   10   11 1   
    23   10   19 1   
    24   11   12 2   
    25   11   31 1   
    26   12   13 1   
    27   13   14 ar  
    28   13   19 ar  
    29   14   15 1   
    30   14   16 ar  
    31   15   32 1   
    32   15   33 1   
    33   16   17 ar  
    34   17   18 ar  
    35   17   34 1   
    36   18   19 ar  
@<TRIPOS>SUBSTRUCTURE
     1 NOC         1 TEMP              0 ****  ****    0 ROOT
