@<TRIPOS>MOLECULE
NOE
    9     8     1     0     0
SMALL
bcc


@<TRIPOS>ATOM
      1 C1         -0.4700   -0.0000   -0.2210 c3        1 NOE     -0.052200
      2 C2          1.0430   -0.0000   -0.2210 c3        1 NOE     -0.080100
      3 N          -0.9440   -0.0000    1.1200 n2        1 NOE      0.005100
      4 O1         -2.1460   -0.0000    1.3440 o         1 NOE     -0.143300
      5 HC11       -0.7950    0.7970   -0.6810 h1        1 NOE      0.067200
      6 HC12       -0.7950   -0.7970   -0.6810 h1        1 NOE      0.067200
      7 HC21        1.3690    0.7970    0.2400 hc        1 NOE      0.045367
      8 HC22        1.3690   -0.7970    0.2400 hc        1 NOE      0.045367
      9 HC23        1.3690   -0.0000   -1.1410 hc        1 NOE      0.045367
@<TRIPOS>BOND
     1    1    2 1   
     2    1    3 1   
     3    1    5 1   
     4    1    6 1   
     5    2    7 1   
     6    2    8 1   
     7    2    9 1   
     8    3    4 2   
@<TRIPOS>SUBSTRUCTURE
     1 NOE         1 TEMP              0 ****  ****    0 ROOT
