@<TRIPOS>MOLECULE
NOE
    9     8     1     0     0
SMALL
bcc


@<TRIPOS>ATOM
      1 C1          0.0190    0.0500    0.0440 c3        1 NOE     -0.052200
      2 C2          1.5320   -0.0120   -0.0080 c3        1 NOE     -0.080100
      3 N          -0.5070    0.0270    1.4310 n2        1 NOE      0.005100
      4 O1         -1.2560    0.8510    1.7450 o         1 NOE     -0.143300
      5 HC11       -0.3400    0.9460   -0.5370 h1        1 NOE      0.067200
      6 HC12       -0.4090   -0.8720   -0.4440 h1        1 NOE      0.067200
      7 HC21        1.9840    0.9040    0.4420 hc        1 NOE      0.045367
      8 HC22        1.9210   -0.9050    0.5370 hc        1 NOE      0.045367
      9 HC23        1.8530   -0.0780   -1.0750 hc        1 NOE      0.045367
@<TRIPOS>BOND
     1    1    2 1   
     2    1    3 1   
     3    1    5 1   
     4    1    6 1   
     5    2    7 1   
     6    2    8 1   
     7    2    9 1   
     8    3    4 2   
@<TRIPOS>SUBSTRUCTURE
     1 NOE         1 TEMP              0 ****  ****    0 ROOT
