@<TRIPOS>MOLECULE
NOE
    9     8     1     0     0
SMALL
bcc


@<TRIPOS>ATOM
      1 C1          0.0220    0.0630    0.0330 c3        1 NOE     -0.052200
      2 C2          1.5340   -0.0200    0.0070 c3        1 NOE     -0.080100
      3 N          -0.5300    0.0100    1.4090 n2        1 NOE      0.005100
      4 O1         -1.2720    0.8360    1.7320 o         1 NOE     -0.143300
      5 HC11       -0.4100   -0.8380   -0.4880 h1        1 NOE      0.067200
      6 HC12       -0.3120    0.9810   -0.5280 h1        1 NOE      0.067200
      7 HC21        1.9920    0.8750    0.4910 hc        1 NOE      0.045367
      8 HC22        1.9000   -0.9350    0.5330 hc        1 NOE      0.045367
      9 HC23        1.8750   -0.0620   -1.0560 hc        1 NOE      0.045367
@<TRIPOS>BOND
     1    1    2 1   
     2    1    3 1   
     3    1    5 1   
     4    1    6 1   
     5    2    7 1   
     6    2    8 1   
     7    2    9 1   
     8    3    4 2   
@<TRIPOS>SUBSTRUCTURE
     1 NOE         1 TEMP              0 ****  ****    0 ROOT
