@<TRIPOS>MOLECULE
NOE
    9     8     1     0     0
SMALL
bcc


@<TRIPOS>ATOM
      1 C1          0.5550    0.0960    0.5430 c3        1 NOE     -0.052200
      2 C2         -0.3690    0.0740    1.7430 c3        1 NOE     -0.080100
      3 N          -0.0770   -0.4650   -0.6760 n2        1 NOE      0.005100
      4 O1         -0.0520    0.1670   -1.6450 o         1 NOE     -0.143300
      5 HC11        0.9390    1.1430    0.3840 h1        1 NOE      0.067200
      6 HC12        1.4420   -0.5700    0.7420 h1        1 NOE      0.067200
      7 HC21        0.1960    0.4280    2.6390 hc        1 NOE      0.045367
      8 HC22       -1.2440    0.7500    1.5860 hc        1 NOE      0.045367
      9 HC23       -0.7470   -0.9570    1.9450 hc        1 NOE      0.045367
@<TRIPOS>BOND
     1    1    2 1   
     2    1    3 1   
     3    1    5 1   
     4    1    6 1   
     5    2    7 1   
     6    2    8 1   
     7    2    9 1   
     8    3    4 2   
@<TRIPOS>SUBSTRUCTURE
     1 NOE         1 TEMP              0 ****  ****    0 ROOT
