@<TRIPOS>MOLECULE
NOE
    9     8     1     0     0
SMALL
bcc


@<TRIPOS>ATOM
      1 C1          0.0210    0.0430    0.0410 c3        1 NOE     -0.052200
      2 C2          1.5350   -0.0010   -0.0010 c3        1 NOE     -0.080100
      3 N          -0.5140    0.0190    1.4240 n2        1 NOE      0.005100
      4 O1         -1.2760    0.8340    1.7300 o         1 NOE     -0.143300
      5 HC11       -0.3920   -0.8850   -0.4460 h1        1 NOE      0.067200
      6 HC12       -0.3440    0.9330   -0.5450 h1        1 NOE      0.067200
      7 HC21        1.9740    0.9220    0.4490 hc        1 NOE      0.045367
      8 HC22        1.9310   -0.8880    0.5500 hc        1 NOE      0.045367
      9 HC23        1.8640   -0.0670   -1.0660 hc        1 NOE      0.045367
@<TRIPOS>BOND
     1    1    2 1   
     2    1    3 1   
     3    1    5 1   
     4    1    6 1   
     5    2    7 1   
     6    2    8 1   
     7    2    9 1   
     8    3    4 2   
@<TRIPOS>SUBSTRUCTURE
     1 NOE         1 TEMP              0 ****  ****    0 ROOT
