@<TRIPOS>MOLECULE
NOG
   51    54     1     0     0
SMALL
bcc


@<TRIPOS>ATOM
      1 C1          1.5930    0.1480    2.9430 c3        1 NOG     -0.071400
      2 C2          1.5730   -0.1390    4.4270 c3        1 NOG     -0.182400
      3 C3          0.3100    0.3660    5.0650 c         1 NOG      0.569300
      4 C4         -0.9090    0.1960    4.2650 ce        1 NOG     -0.267200
      5 C5         -0.8930   -0.1690    2.9700 c2        1 NOG     -0.031400
      6 C6         -2.1730   -0.4330    2.2520 c3        1 NOG     -0.054200
      7 C7         -2.1840    0.1160    0.8420 c3        1 NOG     -0.073400
      8 C8         -0.9540   -0.3520    0.0820 c3        1 NOG     -0.049700
      9 C9          0.3060    0.1620    0.7930 c3        1 NOG     -0.052700
     10 C10         0.3780   -0.4140    2.2130 c3        1 NOG     -0.034500
     11 C11         1.5690   -0.1600    0.0040 c3        1 NOG     -0.074400
     12 C12         1.5090    0.3080   -1.4420 c3        1 NOG     -0.066400
     13 C13         0.2960   -0.2800   -2.1400 c3        1 NOG     -0.022000
     14 C14        -0.9510    0.1750   -1.3360 c3        1 NOG     -0.069700
     15 C15        -2.1250   -0.1480   -2.2480 c3        1 NOG     -0.069400
     16 C16        -1.6020    0.1290   -3.6570 c3        1 NOG     -0.105400
     17 C17        -0.0570    0.3190   -3.5460 c3        1 NOG      0.235900
     18 C18         0.3940   -1.8030   -2.2570 c3        1 NOG     -0.057400
     19 C19         1.7380   -2.3200   -2.7050 c3        1 NOG     -0.091100
     20 C20         0.2860    1.7260   -3.6480 c1        1 NOG     -0.167100
     21 C21         0.5610    2.8860   -3.7430 c1        1 NOG     -0.135500
     22 O3          0.2970    0.8580    6.2000 o         1 NOG     -0.536100
     23 O17         0.6050   -0.4300   -4.5570 oh        1 NOG     -0.579800
     24 HC11        1.6440    1.2580    2.7810 hc        1 NOG      0.051200
     25 HC12        2.5240   -0.3000    2.5050 hc        1 NOG      0.051200
     26 HC21        2.4640    0.3310    4.9200 hc        1 NOG      0.070700
     27 HC22        1.6300   -1.2460    4.6090 hc        1 NOG      0.070700
     28 HC4        -1.8550    0.3760    4.8010 ha        1 NOG      0.148000
     29 HC61       -3.0370   -0.0010    2.8240 hc        1 NOG      0.055700
     30 HC62       -2.3210   -1.5480    2.2180 hc        1 NOG      0.055700
     31 HC71       -2.2130    1.2370    0.8680 hc        1 NOG      0.047700
     32 HC72       -3.1090   -0.2330    0.3120 hc        1 NOG      0.047700
     33 HC8        -0.9510   -1.4760    0.0840 hc        1 NOG      0.056700
     34 HC9         0.2240    1.2840    0.8740 hc        1 NOG      0.055700
     35 H10C        0.4980   -1.5340    2.1330 hc        1 NOG      0.063700
     36 H111        1.7520   -1.2660    0.0320 hc        1 NOG      0.043200
     37 H112        2.4460    0.3410    0.4940 hc        1 NOG      0.043200
     38 H121        2.4490    0.0100   -1.9740 hc        1 NOG      0.052200
     39 H122        1.4520    1.4290   -1.4680 hc        1 NOG      0.052200
     40 H14C       -0.8970    1.3040   -1.2610 hc        1 NOG      0.054700
     41 H151       -2.4300   -1.2190   -2.1390 hc        1 NOG      0.046200
     42 H152       -3.0120    0.4880   -2.0100 hc        1 NOG      0.046200
     43 H161       -1.8130   -0.7330   -4.3380 hc        1 NOG      0.055200
     44 H162       -2.0800    1.0410   -4.0880 hc        1 NOG      0.055200
     45 H181       -0.3890   -2.1500   -2.9840 hc        1 NOG      0.040700
     46 H182        0.1540   -2.2700   -1.2650 hc        1 NOG      0.040700
     47 H191        1.6570   -3.4080   -2.9480 hc        1 NOG      0.037367
     48 H192        2.0950   -1.7820   -3.6170 hc        1 NOG      0.037367
     49 H193        2.5030   -2.2010   -1.9010 hc        1 NOG      0.037367
     50 H21C        0.8070    3.9150   -3.8260 ha        1 NOG      0.166500
     51 H17O        0.3730   -0.0250   -5.4020 ho        1 NOG      0.404000
@<TRIPOS>BOND
     1    1    2 1   
     2    1   10 1   
     3    1   24 1   
     4    1   25 1   
     5    2    3 1   
     6    2   26 1   
     7    2   27 1   
     8    3    4 1   
     9    3   22 2   
    10    4    5 2   
    11    4   28 1   
    12    5    6 1   
    13    5   10 1   
    14    6    7 1   
    15    6   29 1   
    16    6   30 1   
    17    7    8 1   
    18    7   31 1   
    19    7   32 1   
    20    8    9 1   
    21    8   14 1   
    22    8   33 1   
    23    9   10 1   
    24    9   11 1   
    25    9   34 1   
    26   10   35 1   
    27   11   12 1   
    28   11   36 1   
    29   11   37 1   
    30   12   13 1   
    31   12   38 1   
    32   12   39 1   
    33   13   14 1   
    34   13   17 1   
    35   13   18 1   
    36   14   15 1   
    37   14   40 1   
    38   15   16 1   
    39   15   41 1   
    40   15   42 1   
    41   16   17 1   
    42   16   43 1   
    43   16   44 1   
    44   17   20 1   
    45   17   23 1   
    46   18   19 1   
    47   18   45 1   
    48   18   46 1   
    49   19   47 1   
    50   19   48 1   
    51   19   49 1   
    52   20   21 3   
    53   21   50 1   
    54   23   51 1   
@<TRIPOS>SUBSTRUCTURE
     1 NOG         1 TEMP              0 ****  ****    0 ROOT
