@<TRIPOS>MOLECULE
NOG
   51    52     1     0     0
SMALL
bcc


@<TRIPOS>ATOM
      1 C1          3.0450    1.3600   -0.3970 c3        1 NOG     -0.150000
      2 C2          4.5550    1.4160   -0.3440 c3        1 NOG     -0.211000
      3 C3          5.1110    1.4430    1.1490 c2        1 NOG      0.262000
      4 C4          4.2030    0.7230    2.3100 c2        1 NOG     -0.251000
      5 C5          2.7640    0.2240    1.8770 c1        1 NOG     -0.020000
      6 C6          2.0340   -0.8320    2.6380 c2        1 NOG     -0.137000
      7 C7          0.4290   -0.6470    2.3570 c3        1 NOG     -0.154000
      8 C8          0.0840   -0.5550    0.8160 c3        1 NOG     -0.095000
      9 C9          0.8160    0.4300    0.1520 c3        1 NOG     -0.087000
     10 C10         2.3940    0.3000    0.3690 c3        1 NOG     -0.079000
     11 C11         0.4540    0.4820   -1.3340 c3        1 NOG     -0.154000
     12 C12        -1.1190    0.6310   -1.5500 c3        1 NOG     -0.134000
     13 C13        -1.8340   -0.2700   -0.8750 c3        1 NOG     -0.013000
     14 C14        -1.5060   -0.4060    0.5790 c3        1 NOG     -0.088000
     15 C15        -1.9590   -1.6250    0.9180 c3        1 NOG     -0.155000
     16 C16        -2.5090   -1.8940    0.1880 c3        1 NOG     -0.180000
     17 C17        -1.9500   -1.0080   -1.1860 c3        1 NOG      0.189000
     18 C18        -3.3000    0.3620   -0.8730 c3        1 NOG     -0.159000
     19 C19        -3.2420    1.7750   -0.3270 c3        1 NOG     -0.209000
     20 C20        -3.1430   -1.0340   -2.6440 c1        1 NOG     -0.194000
     21 C21        -3.9080   -1.0490   -3.5770 c1        1 NOG     -0.192000
     22 O3          6.2990    1.7060    1.3640 o         1 NOG     -0.300000
     23 O17        -0.7470   -1.5700   -1.7610 oh        1 NOG     -0.313000
     24 HC11        2.7760    1.2560   -1.3550 hc        1 NOG      0.090500
     25 HC12        2.6980    2.2260   -0.0730 hc        1 NOG      0.090500
     26 HC21        4.8610    2.1730   -0.8510 hc        1 NOG      0.109500
     27 HC22        4.9630    0.6780   -0.8450 hc        1 NOG      0.109500
     28 HC4         4.6390    0.3490    3.1260 ha        1 NOG      0.147000
     29 HC61        2.3980   -0.8980    3.5600 ha        1 NOG      0.094000
     30 HC62        2.2450   -1.7310    2.3000 ha        1 NOG      0.094000
     31 HC71        0.1240    0.1660    2.7970 hc        1 NOG      0.084500
     32 HC72       -0.0430   -1.4050    2.7370 hc        1 NOG      0.084500
     33 HC8         0.3490   -1.4140    0.4190 hc        1 NOG      0.105000
     34 HC9         0.5560    1.2610    0.5280 hc        1 NOG      0.091000
     35 H10C        2.6640   -0.5350   -0.0230 hc        1 NOG      0.106000
     36 H111        0.9080    1.2440   -1.7500 hc        1 NOG      0.090500
     37 H112        0.7620   -0.3570   -1.7690 hc        1 NOG      0.090500
     38 H121       -1.3870    1.5060   -1.2730 hc        1 NOG      0.085000
     39 H122       -1.3150    0.5300   -2.5240 hc        1 NOG      0.085000
     40 H14C       -1.9120    0.3160    1.1360 hc        1 NOG      0.095000
     41 H151       -1.2160   -2.2430    1.0280 hc        1 NOG      0.085000
     42 H152       -2.4980   -1.5740    1.7600 hc        1 NOG      0.085000
     43 H161       -2.4150   -2.8470    0.0330 hc        1 NOG      0.091500
     44 H162       -3.4320   -1.6750    0.3700 hc        1 NOG      0.091500
     45 H181       -3.8860   -0.1820   -0.3100 hc        1 NOG      0.085500
     46 H182       -3.6470    0.3800   -1.7810 hc        1 NOG      0.085500
     47 H191       -3.1350    2.4070   -1.0650 hc        1 NOG      0.073667
     48 H192       -4.0850    1.9760    0.1630 hc        1 NOG      0.073667
     49 H193       -2.4800    1.8570    0.2850 hc        1 NOG      0.073667
     50 H21C       -4.5250   -1.0610   -4.3310 DU        1 NOG      0.224000
     51 H17O       -0.9390   -2.3640   -2.1390 ho        1 NOG      0.201000
@<TRIPOS>BOND
     1    1    2 1   
     2    1   10 1   
     3    1   24 1   
     4    1   25 1   
     5    2    3 1   
     6    2   26 1   
     7    2   27 1   
     8    3    4 1   
     9    3   22 1   
    10    4    5 1   
    11    4   28 1   
    12    5   10 1   
    13    6    7 1   
    14    6   29 1   
    15    6   30 1   
    16    7    8 1   
    17    7   31 1   
    18    7   32 1   
    19    8    9 1   
    20    8   14 1   
    21    8   33 1   
    22    9   10 1   
    23    9   11 1   
    24    9   34 1   
    25   10   35 1   
    26   11   12 1   
    27   11   36 1   
    28   11   37 1   
    29   12   13 1   
    30   12   38 1   
    31   12   39 1   
    32   13   14 1   
    33   13   17 1   
    34   13   18 1   
    35   14   15 1   
    36   14   40 1   
    37   15   16 1   
    38   15   41 1   
    39   15   42 1   
    40   16   17 1   
    41   16   43 1   
    42   16   44 1   
    43   17   20 1   
    44   17   23 1   
    45   18   19 1   
    46   18   45 1   
    47   18   46 1   
    48   19   47 1   
    49   19   48 1   
    50   19   49 1   
    51   20   21 1   
    52   23   51 1   
@<TRIPOS>SUBSTRUCTURE
     1 NOG         1 TEMP              0 ****  ****    0 ROOT
