@<TRIPOS>MOLECULE
NOG
   51    54     1     0     0
SMALL
bcc


@<TRIPOS>ATOM
      1 C1          0.0550    0.0550    0.0770 c3        1 NOG     -0.071400
      2 C2          1.5660    0.0610    0.0510 c3        1 NOG     -0.182400
      3 C3          2.1380   -0.0090    1.4390 c         1 NOG      0.569300
      4 C4          1.4200   -0.8890    2.3690 ce        1 NOG     -0.267200
      5 C5          0.2160   -1.4220    2.0950 c2        1 NOG     -0.031400
      6 C6         -0.4020   -2.3980    3.0390 c3        1 NOG     -0.054200
      7 C7         -1.8880   -2.1820    3.2230 c3        1 NOG     -0.073400
      8 C8         -2.5850   -2.1180    1.8750 c3        1 NOG     -0.049700
      9 C9         -2.0200   -0.9390    1.0690 c3        1 NOG     -0.052700
     10 C10        -0.5210   -1.1460    0.8190 c3        1 NOG     -0.034500
     11 C11        -2.7740   -0.7390   -0.2400 c3        1 NOG     -0.074400
     12 C12        -4.2790   -0.6230   -0.0550 c3        1 NOG     -0.066400
     13 C13        -4.8190   -1.8400    0.6740 c3        1 NOG     -0.022000
     14 C14        -4.0760   -1.9150    2.0350 c3        1 NOG     -0.069700
     15 C15        -4.8760   -2.9250    2.8450 c3        1 NOG     -0.069400
     16 C16        -6.3270   -2.6820    2.4320 c3        1 NOG     -0.105400
     17 C17        -6.3000   -1.7480    1.1820 c3        1 NOG      0.235900
     18 C18        -4.6540   -3.1160   -0.1550 c3        1 NOG     -0.057400
     19 C19        -5.0400   -2.9830   -1.6070 c3        1 NOG     -0.091100
     20 C20        -6.6720   -0.3950    1.5560 c1        1 NOG     -0.167100
     21 C21        -6.9890    0.7150    1.8710 c1        1 NOG     -0.135500
     22 O3          3.1610    0.6060    1.7620 o         1 NOG     -0.536100
     23 O17        -7.1750   -2.2450    0.1770 oh        1 NOG     -0.579800
     24 HC11       -0.3110    1.0000    0.5580 hc        1 NOG      0.051200
     25 HC12       -0.3210    0.0470   -0.9800 hc        1 NOG      0.051200
     26 HC21        1.9360    0.9840   -0.4680 hc        1 NOG      0.070700
     27 HC22        1.9480   -0.8270   -0.5220 hc        1 NOG      0.070700
     28 HC4         1.9420   -1.1010    3.3170 ha        1 NOG      0.148000
     29 HC61       -0.2240   -3.4300    2.6260 hc        1 NOG      0.055700
     30 HC62        0.1060   -2.3480    4.0390 hc        1 NOG      0.055700
     31 HC71       -2.0700   -1.2340    3.7920 hc        1 NOG      0.047700
     32 HC72       -2.3160   -3.0250    3.8270 hc        1 NOG      0.047700
     33 HC8        -2.3750   -3.0780    1.3280 hc        1 NOG      0.056700
     34 HC9        -2.1460   -0.0060    1.6880 hc        1 NOG      0.055700
     35 H10C       -0.3950   -2.0610    0.1680 hc        1 NOG      0.063700
     36 H111       -2.4120    0.2030   -0.7320 hc        1 NOG      0.043200
     37 H112       -2.5470   -1.5910   -0.9340 hc        1 NOG      0.043200
     38 H121       -4.7750   -0.5140   -1.0540 hc        1 NOG      0.052200
     39 H122       -4.5110    0.3030    0.5350 hc        1 NOG      0.052200
     40 H14C       -4.2130   -0.9110    2.5390 hc        1 NOG      0.054700
     41 H151       -4.5620   -3.9700    2.6000 hc        1 NOG      0.046200
     42 H152       -4.7340   -2.7710    3.9420 hc        1 NOG      0.046200
     43 H161       -6.9060   -2.2100    3.2620 hc        1 NOG      0.055200
     44 H162       -6.8300   -3.6420    2.1560 hc        1 NOG      0.055200
     45 H181       -5.2800   -3.9220    0.3140 hc        1 NOG      0.040700
     46 H182       -3.5860   -3.4570   -0.1070 hc        1 NOG      0.040700
     47 H191       -4.2940   -2.3660   -2.1660 hc        1 NOG      0.037367
     48 H192       -5.0740   -3.9960   -2.0780 hc        1 NOG      0.037367
     49 H193       -6.0450   -2.5100   -1.7170 hc        1 NOG      0.037367
     50 H21C       -7.2680    1.7000    2.1480 ha        1 NOG      0.166500
     51 H17O       -8.0730   -2.1600    0.5210 ho        1 NOG      0.404000
@<TRIPOS>BOND
     1    1    2 1   
     2    1   10 1   
     3    1   24 1   
     4    1   25 1   
     5    2    3 1   
     6    2   26 1   
     7    2   27 1   
     8    3    4 1   
     9    3   22 2   
    10    4    5 2   
    11    4   28 1   
    12    5    6 1   
    13    5   10 1   
    14    6    7 1   
    15    6   29 1   
    16    6   30 1   
    17    7    8 1   
    18    7   31 1   
    19    7   32 1   
    20    8    9 1   
    21    8   14 1   
    22    8   33 1   
    23    9   10 1   
    24    9   11 1   
    25    9   34 1   
    26   10   35 1   
    27   11   12 1   
    28   11   36 1   
    29   11   37 1   
    30   12   13 1   
    31   12   38 1   
    32   12   39 1   
    33   13   14 1   
    34   13   17 1   
    35   13   18 1   
    36   14   15 1   
    37   14   40 1   
    38   15   16 1   
    39   15   41 1   
    40   15   42 1   
    41   16   17 1   
    42   16   43 1   
    43   16   44 1   
    44   17   20 1   
    45   17   23 1   
    46   18   19 1   
    47   18   45 1   
    48   18   46 1   
    49   19   47 1   
    50   19   48 1   
    51   19   49 1   
    52   20   21 3   
    53   21   50 1   
    54   23   51 1   
@<TRIPOS>SUBSTRUCTURE
     1 NOG         1 TEMP              0 ****  ****    0 ROOT
