@<TRIPOS>MOLECULE
NOG
   51    54     1     0     0
SMALL
bcc


@<TRIPOS>ATOM
      1 C1          0.0610    0.0600    0.0820 c3        1 NOG     -0.071400
      2 C2          1.5720    0.0630    0.0530 c3        1 NOG     -0.182400
      3 C3          2.1460   -0.0150    1.4390 c         1 NOG      0.569300
      4 C4          1.4290   -0.8980    2.3660 ce        1 NOG     -0.267200
      5 C5          0.2230   -1.4270    2.0930 c2        1 NOG     -0.031400
      6 C6         -0.3940   -2.4070    3.0330 c3        1 NOG     -0.054200
      7 C7         -1.8800   -2.1900    3.2210 c3        1 NOG     -0.073400
      8 C8         -2.5800   -2.1170    1.8740 c3        1 NOG     -0.049700
      9 C9         -2.0140   -0.9350    1.0730 c3        1 NOG     -0.052700
     10 C10        -0.5160   -1.1440    0.8190 c3        1 NOG     -0.034500
     11 C11        -2.7710   -0.7280   -0.2330 c3        1 NOG     -0.074400
     12 C12        -4.2750   -0.6100   -0.0440 c3        1 NOG     -0.066400
     13 C13        -4.8150   -1.8300    0.6800 c3        1 NOG     -0.022000
     14 C14        -4.0700   -1.9130    2.0390 c3        1 NOG     -0.069700
     15 C15        -4.8700   -2.9260    2.8460 c3        1 NOG     -0.069400
     16 C16        -6.3220   -2.6780    2.4370 c3        1 NOG     -0.105400
     17 C17        -6.2950   -1.7380    1.1920 c3        1 NOG      0.235900
     18 C18        -4.6540   -3.1020   -0.1550 c3        1 NOG     -0.057400
     19 C19        -5.0430   -2.9610   -1.6060 c3        1 NOG     -0.091100
     20 C20        -6.6640   -0.3870    1.5740 c1        1 NOG     -0.167100
     21 C21        -6.9790    0.7220    1.8940 c1        1 NOG     -0.135500
     22 O3          3.1710    0.5970    1.7620 o         1 NOG     -0.536100
     23 O17        -7.1730   -2.2280    0.1860 oh        1 NOG     -0.579800
     24 HC11       -0.3180    0.0580   -0.9750 hc        1 NOG      0.051200
     25 HC12       -0.3030    1.0030    0.5690 hc        1 NOG      0.051200
     26 HC21        1.9510   -0.8220   -0.5250 hc        1 NOG      0.070700
     27 HC22        1.9420    0.9880   -0.4630 hc        1 NOG      0.070700
     28 HC4         1.9520   -1.1150    3.3120 ha        1 NOG      0.148000
     29 HC61       -0.2190   -3.4370    2.6150 hc        1 NOG      0.055700
     30 HC62        0.1160   -2.3630    4.0320 hc        1 NOG      0.055700
     31 HC71       -2.3080   -3.0340    3.8220 hc        1 NOG      0.047700
     32 HC72       -2.0590   -1.2430    3.7960 hc        1 NOG      0.047700
     33 HC8        -2.3720   -3.0750    1.3230 hc        1 NOG      0.056700
     34 HC9        -2.1380   -0.0050    1.6980 hc        1 NOG      0.055700
     35 H10C       -0.3940   -2.0560    0.1630 hc        1 NOG      0.063700
     36 H111       -2.5460   -1.5770   -0.9310 hc        1 NOG      0.043200
     37 H112       -2.4080    0.2160   -0.7210 hc        1 NOG      0.043200
     38 H121       -4.7730   -0.4960   -1.0410 hc        1 NOG      0.052200
     39 H122       -4.5050    0.3140    0.5510 hc        1 NOG      0.052200
     40 H14C       -4.2040   -0.9110    2.5480 hc        1 NOG      0.054700
     41 H151       -4.7250   -2.7770    3.9430 hc        1 NOG      0.046200
     42 H152       -4.5580   -3.9700    2.5950 hc        1 NOG      0.046200
     43 H161       -6.8970   -2.2100    3.2700 hc        1 NOG      0.055200
     44 H162       -6.8260   -3.6360    2.1570 hc        1 NOG      0.055200
     45 H181       -3.5870   -3.4450   -0.1120 hc        1 NOG      0.040700
     46 H182       -5.2810   -3.9100    0.3110 hc        1 NOG      0.040700
     47 H191       -6.0480   -2.4860   -1.7110 hc        1 NOG      0.037367
     48 H192       -4.2980   -2.3420   -2.1630 hc        1 NOG      0.037367
     49 H193       -5.0800   -3.9720   -2.0820 hc        1 NOG      0.037367
     50 H21C       -7.2560    1.7060    2.1770 ha        1 NOG      0.166500
     51 H17O       -8.0700   -2.1440    0.5320 ho        1 NOG      0.404000
@<TRIPOS>BOND
     1    1    2 1   
     2    1   10 1   
     3    1   24 1   
     4    1   25 1   
     5    2    3 1   
     6    2   26 1   
     7    2   27 1   
     8    3    4 1   
     9    3   22 2   
    10    4    5 2   
    11    4   28 1   
    12    5    6 1   
    13    5   10 1   
    14    6    7 1   
    15    6   29 1   
    16    6   30 1   
    17    7    8 1   
    18    7   31 1   
    19    7   32 1   
    20    8    9 1   
    21    8   14 1   
    22    8   33 1   
    23    9   10 1   
    24    9   11 1   
    25    9   34 1   
    26   10   35 1   
    27   11   12 1   
    28   11   36 1   
    29   11   37 1   
    30   12   13 1   
    31   12   38 1   
    32   12   39 1   
    33   13   14 1   
    34   13   17 1   
    35   13   18 1   
    36   14   15 1   
    37   14   40 1   
    38   15   16 1   
    39   15   41 1   
    40   15   42 1   
    41   16   17 1   
    42   16   43 1   
    43   16   44 1   
    44   17   20 1   
    45   17   23 1   
    46   18   19 1   
    47   18   45 1   
    48   18   46 1   
    49   19   47 1   
    50   19   48 1   
    51   19   49 1   
    52   20   21 3   
    53   21   50 1   
    54   23   51 1   
@<TRIPOS>SUBSTRUCTURE
     1 NOG         1 TEMP              0 ****  ****    0 ROOT
