@<TRIPOS>MOLECULE
NOH
   33    34     1     0     0
SMALL
bcc


@<TRIPOS>ATOM
      1 O2          2.6490   -2.5470   -0.8700 o         1 NOH     -0.686500
      2 C2          2.3310   -1.4260   -0.4000 c         1 NOH      0.815900
      3 N3          2.9740   -0.9330    0.7490 nc        1 NOH     -0.737100
      4 C4          2.5970    0.2650    1.2220 cd        1 NOH      0.633500
      5 N4          3.3290    0.8870    2.3130 nh        1 NOH     -0.516700
      6 O4          3.8780    0.0450    3.2010 oh        1 NOH     -0.427300
      7 C5          1.5460    1.0360    0.6250 cd        1 NOH     -0.449600
      8 C6          0.9200    0.5360   -0.5080 cc        1 NOH      0.090600
      9 N1          1.2830   -0.6740   -1.0330 n         1 NOH     -0.361000
     10 C1'         0.6610   -1.2050   -2.2600 c3        1 NOH      0.290500
     11 C2'        -0.8700   -1.3630   -2.1530 c3        1 NOH     -0.119400
     12 C3'        -1.4190   -0.1180   -2.8510 c3        1 NOH      0.107100
     13 O3'        -2.5720   -0.4380   -3.5970 oh        1 NOH     -0.654800
     14 O4'         0.9210   -0.3570   -3.3780 os        1 NOH     -0.439600
     15 C4'        -0.2720    0.3740   -3.7590 c3        1 NOH      0.062100
     16 C5'         0.0310    1.8880   -3.6510 c3        1 NOH      0.225400
     17 O5'        -1.0740    2.6720   -3.8270 os        1 NOH     -0.568200
     18 P          -1.9570    3.1760   -2.4220 p5        1 NOH      1.339900
     19 OP1        -2.1220    4.6520   -2.5690 o         1 NOH     -0.925167
     20 OP2        -3.1430    2.2590   -2.6040 o         1 NOH     -0.925167
     21 OP3        -1.0480    2.6780   -1.3120 o         1 NOH     -0.925167
     22 H1          2.6630    1.4510    2.8430 hn        1 NOH      0.389800
     23 H2          4.6220   -0.3840    2.7370 ho        1 NOH      0.431000
     24 H3          1.2310    2.0130    1.0100 ha        1 NOH      0.175000
     25 H4          0.0820    1.1470   -0.9930 h4        1 NOH      0.311000
     26 H5          1.1810   -2.1810   -2.4940 h2        1 NOH      0.092700
     27 H6         -1.2310   -1.4270   -1.1010 hc        1 NOH      0.050700
     28 H7         -1.1780   -2.2910   -2.6930 hc        1 NOH      0.050700
     29 H8         -1.6740    0.7030   -2.1020 h1        1 NOH      0.148700
     30 H9         -3.1200    0.3760   -3.5670 ho        1 NOH      0.479000
     31 H10        -0.4690    0.0890   -4.8260 h1        1 NOH      0.045700
     32 H11         0.7750    2.1170   -4.4720 h1        1 NOH     -0.003300
     33 H12         0.5290    2.0920   -2.6620 h1        1 NOH     -0.003300
@<TRIPOS>BOND
     1    1    2 2   
     2    2    3 1   
     3    2    9 1   
     4    3    4 2   
     5    4    5 1   
     6    4    7 1   
     7    5    6 1   
     8    5   22 1   
     9    6   23 1   
    10    7    8 2   
    11    7   24 1   
    12    8    9 1   
    13    8   25 1   
    14    9   10 1   
    15   10   11 1   
    16   10   14 1   
    17   10   26 1   
    18   11   12 1   
    19   11   27 1   
    20   11   28 1   
    21   12   13 1   
    22   12   15 1   
    23   12   29 1   
    24   13   30 1   
    25   14   15 1   
    26   15   16 1   
    27   15   31 1   
    28   16   17 1   
    29   16   32 1   
    30   16   33 1   
    31   17   18 1   
    32   18   19 1   
    33   18   20 1   
    34   18   21 1   
@<TRIPOS>SUBSTRUCTURE
     1 NOH         1 TEMP              0 ****  ****    0 ROOT
