@<TRIPOS>MOLECULE
NOH
   34    35     1     0     0
SMALL
bcc


@<TRIPOS>ATOM
      1 O2          0.0000    0.0000    0.0000 o         1 NOH     -0.685500
      2 C2          1.2200    0.0000    0.0000 c         1 NOH      0.715900
      3 N3          1.8740    0.0000    1.1590 nc        1 NOH     -0.628100
      4 C4          3.2010   -0.0010    1.1880 cd        1 NOH      0.004500
      5 N4          3.8670   -0.0020    2.3910 ny        1 NOH      0.518500
      6 O4          3.1360   -0.0020    3.6050 oh        1 NOH     -0.476300
      7 C5          3.9240   -0.0020   -0.0230 cd        1 NOH     -0.302600
      8 C6          3.2440   -0.0010   -1.1930 cc        1 NOH     -0.132400
      9 N1          1.8810   -0.0060   -1.1720 n         1 NOH      0.041000
     10 C1'         1.1330   -0.0050   -2.4310 c3        1 NOH      0.231500
     11 C2'         0.3360   -1.3180   -2.5680 c3        1 NOH     -0.106400
     12 C3'        -1.1350   -0.8570   -2.7000 c3        1 NOH      0.154100
     13 O3'        -1.8260   -1.6310   -3.6830 oh        1 NOH     -0.584800
     14 O4'         0.1850    1.0750   -2.4360 os        1 NOH     -0.357600
     15 C4'        -0.9750    0.6120   -3.1660 c3        1 NOH      0.162100
     16 C5'        -2.2100    1.4340   -2.7920 c3        1 NOH      0.294400
     17 O5'        -2.0880    2.7520   -3.3320 os        1 NOH     -0.486200
     18 P          -3.2090    3.8890   -3.1340 p5        1 NOH      0.810900
     19 OP1        -2.8050    5.1960   -3.9810 o         1 NOH     -0.516167
     20 OP2        -3.3140    4.2730   -1.5730 o         1 NOH     -0.516167
     21 OP3        -4.5170    3.3800   -3.6050 o         1 NOH     -0.516167
     22 H1          4.4500    0.8110    2.4030 hn        1 NOH      0.120800
     23 H2          3.7350   -0.0030    4.3330 ho        1 NOH      0.415000
     24 H3          4.9910    0.1860   -0.0170 ha        1 NOH      0.094000
     25 H4          3.7770   -0.0040   -2.1360 h4        1 NOH      0.119000
     26 H5          1.8120    0.0990   -3.2690 h2        1 NOH      0.011700
     27 H6          0.4630   -1.9300   -1.6830 hc        1 NOH      0.027200
     28 H7          0.6450   -1.8560   -3.4570 hc        1 NOH      0.027200
     29 H8         -1.6380   -0.9020   -1.7410 h1        1 NOH      0.045700
     30 H9         -2.3530   -2.2850   -3.2540 ho        1 NOH      0.381000
     31 H10        -0.7920    0.6530   -4.2330 h1        1 NOH      0.024700
     32 H11        -2.2920    1.4930   -1.7130 h1        1 NOH     -0.004300
     33 H12        -3.0960    0.9590   -3.1960 h1        1 NOH     -0.004300
     34 H42         4.4470   -0.8180    2.4020 hn        1 NOH      0.120800
@<TRIPOS>BOND
     1    1    2 2   
     2    2    3 1   
     3    2    9 1   
     4    3    4 2   
     5    4    5 1   
     6    4    7 1   
     7    5    6 1   
     8    5   22 1   
     9    5   34 1   
    10    6   23 1   
    11    7    8 2   
    12    7   24 1   
    13    8    9 1   
    14    8   25 1   
    15    9   10 1   
    16   10   11 1   
    17   10   14 1   
    18   10   26 1   
    19   11   12 1   
    20   11   27 1   
    21   11   28 1   
    22   12   13 1   
    23   12   15 1   
    24   12   29 1   
    25   13   30 1   
    26   14   15 1   
    27   15   16 1   
    28   15   31 1   
    29   16   17 1   
    30   16   32 1   
    31   16   33 1   
    32   17   18 1   
    33   18   19 1   
    34   18   20 1   
    35   18   21 1   
@<TRIPOS>SUBSTRUCTURE
     1 NOH         1 TEMP              0 ****  ****    0 ROOT
