@<TRIPOS>MOLECULE
NOH
   33    30     1     0     0
SMALL
bcc


@<TRIPOS>ATOM
      1 O2          1.5420   -0.7850    0.5840 o         1 NOH     -0.410000
      2 C2          0.8920   -0.5550    1.5710 c1        1 NOH      0.334000
      3 N3          1.5020   -0.6990    2.8990 n2        1 NOH     -0.310000
      4 C4          0.7920   -0.2860    4.0550 c1        1 NOH      0.107000
      5 N4          1.4390   -0.3010    5.3370 n3        1 NOH     -0.110000
      6 O4          2.7850   -0.6290    5.4320 oh        1 NOH     -0.276000
      7 C5         -0.6230    0.1060    3.9460 c1        1 NOH     -0.137500
      8 C6         -1.2700    0.1490    2.6190 c1        1 NOH     -0.137500
      9 N1         -0.5140   -0.1690    1.4480 n1        1 NOH     -0.255000
     10 C1'        -1.1820   -0.2870    0.1680 c3        1 NOH      0.142000
     11 C2'        -1.6850    0.8190   -0.1640 c3        1 NOH     -0.197000
     12 C3'        -1.5760    0.8680   -1.6860 c3        1 NOH     -0.004000
     13 O3'        -2.8030    0.6940   -2.2550 oh        1 NOH     -0.382000
     14 O4'        -0.1180   -0.6650   -0.9710 os        1 NOH     -0.296000
     15 C4'        -0.6320   -0.2970   -2.0770 c3        1 NOH     -0.049000
     16 C5'         0.4770    0.2020   -3.0610 c3        1 NOH      0.074000
     17 O5'         1.1470   -0.9380   -3.6570 os        1 NOH     -0.730000
     18 P           2.0620   -0.6930   -4.9780 p3        1 NOH      2.532000
     19 OP1         3.1220    0.3380   -4.6720 os        1 NOH     -1.267000
     20 OP2         2.7270   -1.9990   -5.3840 o         1 NOH     -1.233500
     21 OP3         1.1880   -0.1980   -6.1130 o         1 NOH     -1.233500
     22 H1          0.9680   -0.0680    6.0930 hn        1 NOH      0.187000
     23 H2          3.0500   -0.5580    6.2790 ho        1 NOH      0.229000
     24 H3         -1.0990    0.4360    4.7320 ha        1 NOH      0.243000
     25 H4         -2.2120    0.4080    2.5400 ha        1 NOH      0.243000
     26 H5         -1.8770   -0.9690    0.2170 h2        1 NOH      0.132000
     27 H6         -1.1800    1.5590    0.2380 hc        1 NOH      0.090000
     28 H7         -2.6340    0.8610    0.1120 hc        1 NOH      0.090000
     29 H8         -1.1910    1.7200   -1.9690 h1        1 NOH      0.189000
     30 H9         -3.1440    1.4790   -2.4620 ho        1 NOH      0.278000
     31 H10        -1.1440   -1.0340   -2.4790 h1        1 NOH      0.086000
     32 H11         0.0640    0.7460   -3.7690 h1        1 NOH      0.036000
     33 H12         1.1270    0.7430   -2.5730 h1        1 NOH      0.036000
@<TRIPOS>BOND
     1    1    2 1   
     2    2    3 1   
     3    3    4 1   
     4    4    5 1   
     5    5    6 1   
     6    5   22 1   
     7    6   23 1   
     8    7    8 1   
     9    7   24 1   
    10    8   25 1   
    11    9   10 1   
    12   10   11 1   
    13   10   14 1   
    14   10   26 1   
    15   11   12 1   
    16   11   27 1   
    17   11   28 1   
    18   12   13 1   
    19   12   15 1   
    20   12   29 1   
    21   13   30 1   
    22   14   15 1   
    23   15   16 1   
    24   15   31 1   
    25   16   17 1   
    26   16   32 1   
    27   16   33 1   
    28   17   18 1   
    29   18   20 1   
    30   18   21 1   
@<TRIPOS>SUBSTRUCTURE
     1 NOH         1 TEMP              0 ****  ****    0 ROOT
