@<TRIPOS>MOLECULE
NOH
   33    34     1     0     0
SMALL
bcc


@<TRIPOS>ATOM
      1 O2          3.9280   -2.5750    0.2980 o         1 NOH     -0.686500
      2 C2          3.5090   -1.3920    0.2260 c         1 NOH      0.815900
      3 N3          4.4170   -0.3190    0.2430 nc        1 NOH     -0.737100
      4 C4          3.9270    0.9280    0.1720 cd        1 NOH      0.633500
      5 N4          4.8240    2.0630    0.0350 nh        1 NOH     -0.516700
      6 O4          6.0240    1.9310    0.6180 oh        1 NOH     -0.427300
      7 C5          2.5210    1.2040    0.1170 cd        1 NOH     -0.449600
      8 C6          1.6360    0.1340    0.1020 cc        1 NOH      0.090600
      9 N1          2.0940   -1.1540    0.1570 n         1 NOH     -0.361000
     10 C1'         1.1760   -2.3060    0.0990 c3        1 NOH      0.290500
     11 C2'         0.1190   -2.3060    1.2230 c3        1 NOH     -0.119400
     12 C3'        -1.1340   -1.7400    0.5540 c3        1 NOH      0.107100
     13 O3'        -2.2860   -2.4090    1.0140 oh        1 NOH     -0.654800
     14 O4'         0.4710   -2.3410   -1.1420 os        1 NOH     -0.439600
     15 C4'        -0.9150   -1.9580   -0.9590 c3        1 NOH      0.062100
     16 C5'        -1.1950   -0.7140   -1.8360 c3        1 NOH      0.225400
     17 O5'        -2.4270   -0.1660   -1.6160 os        1 NOH     -0.568200
     18 P          -2.5570    1.1310   -0.4720 p5        1 NOH      1.339900
     19 OP1        -3.3140    2.2060   -1.1810 o         1 NOH     -0.925167
     20 OP2        -3.2150    0.3440    0.6340 o         1 NOH     -0.925167
     21 OP3        -1.0940    1.3930   -0.1610 o         1 NOH     -0.925167
     22 H1          4.3800    2.8590    0.4960 hn        1 NOH      0.389800
     23 H2          6.5110    1.2790    0.0790 ho        1 NOH      0.431000
     24 H3          2.1140    2.2210    0.0640 ha        1 NOH      0.175000
     25 H4          0.5120    0.3460    0.0540 h4        1 NOH      0.311000
     26 H5          1.8170   -3.2360    0.1090 h2        1 NOH      0.092700
     27 H6         -0.0510   -3.3570    1.5620 hc        1 NOH      0.050700
     28 H7          0.4170   -1.6930    2.1040 hc        1 NOH      0.050700
     29 H8         -1.2450   -0.6230    0.7520 h1        1 NOH      0.148700
     30 H9         -2.9950   -1.7300    0.9840 ho        1 NOH      0.479000
     31 H10        -1.5180   -2.8340   -1.3180 h1        1 NOH      0.045700
     32 H11        -0.3740    0.0390   -1.6770 h1        1 NOH     -0.003300
     33 H12        -1.1420   -1.0700   -2.9090 h1        1 NOH     -0.003300
@<TRIPOS>BOND
     1    1    2 2   
     2    2    3 1   
     3    2    9 1   
     4    3    4 2   
     5    4    5 1   
     6    4    7 1   
     7    5    6 1   
     8    5   22 1   
     9    6   23 1   
    10    7    8 2   
    11    7   24 1   
    12    8    9 1   
    13    8   25 1   
    14    9   10 1   
    15   10   11 1   
    16   10   14 1   
    17   10   26 1   
    18   11   12 1   
    19   11   27 1   
    20   11   28 1   
    21   12   13 1   
    22   12   15 1   
    23   12   29 1   
    24   13   30 1   
    25   14   15 1   
    26   15   16 1   
    27   15   31 1   
    28   16   17 1   
    29   16   32 1   
    30   16   33 1   
    31   17   18 1   
    32   18   19 1   
    33   18   20 1   
    34   18   21 1   
@<TRIPOS>SUBSTRUCTURE
     1 NOH         1 TEMP              0 ****  ****    0 ROOT
