@<TRIPOS>MOLECULE
NOJ
   24    24     1     0     0
SMALL
bcc


@<TRIPOS>ATOM
      1 C1          0.0790    0.0320   -0.0030 c3        1 NOJ      0.134800
      2 C2          1.6170    0.0140    0.0690 c3        1 NOJ      0.104100
      3 O2          2.1250   -1.2070   -0.4510 oh        1 NOJ     -0.608800
      4 C3          2.0810    0.0730    1.5310 c3        1 NOJ      0.111100
      5 O3          3.4870    0.2420    1.6150 oh        1 NOJ     -0.611800
      6 C4          1.4550    1.2890    2.2370 c3        1 NOJ      0.150100
      7 O4          1.7430    1.2480    3.6260 oh        1 NOJ     -0.604800
      8 C5         -0.0860    1.2350    2.0980 c3        1 NOJ      0.173500
      9 N5         -0.4750    1.1720    0.6930 n7        1 NOJ     -0.820200
     10 C6         -0.6860    2.4690    2.7950 c3        1 NOJ      0.131400
     11 O6         -2.0920    2.2750    2.8340 oh        1 NOJ     -0.612800
     12 H11        -0.2950   -0.9570    0.3950 h1        1 NOJ      0.039200
     13 H12        -0.2330    0.1060   -1.0820 h1        1 NOJ      0.039200
     14 H2          2.0530    0.8780   -0.5050 h1        1 NOJ      0.062700
     15 HO2         1.8320   -1.2640   -1.3680 ho        1 NOJ      0.409000
     16 H3          1.7870   -0.8760    2.0610 h1        1 NOJ      0.061700
     17 HO3         3.8810   -0.4790    1.1080 ho        1 NOJ      0.424000
     18 H4          1.8650    2.2390    1.7960 h1        1 NOJ      0.061700
     19 HO4         2.7020    1.1540    3.7010 ho        1 NOJ      0.423000
     20 H5         -0.4440    0.3220    2.6690 h1        1 NOJ      0.049700
     21 HN5        -1.4770    1.1830    0.6250 hn        1 NOJ      0.388800
     22 H61        -0.4420    3.4100    2.2370 h1        1 NOJ      0.044700
     23 H62        -0.2710    2.5280    3.8370 h1        1 NOJ      0.044700
     24 HO6        -2.4600    3.0310    3.3050 ho        1 NOJ      0.405000
@<TRIPOS>BOND
     1    1    2 1   
     2    1    9 1   
     3    1   12 1   
     4    1   13 1   
     5    2    3 1   
     6    2    4 1   
     7    2   14 1   
     8    3   15 1   
     9    4    5 1   
    10    4    6 1   
    11    4   16 1   
    12    5   17 1   
    13    6    7 1   
    14    6    8 1   
    15    6   18 1   
    16    7   19 1   
    17    8    9 1   
    18    8   10 1   
    19    8   20 1   
    20    9   21 1   
    21   10   11 1   
    22   10   22 1   
    23   10   23 1   
    24   11   24 1   
@<TRIPOS>SUBSTRUCTURE
     1 NOJ         1 TEMP              0 ****  ****    0 ROOT
