@<TRIPOS>MOLECULE
NOJ
   24    24     1     0     0
SMALL
bcc


@<TRIPOS>ATOM
      1 C1          0.0770    0.0230    0.0030 c3        1 NOJ      0.134800
      2 C2          1.6160    0.0120    0.0690 c3        1 NOJ      0.104100
      3 O2          2.1270   -1.2080   -0.4480 oh        1 NOJ     -0.608800
      4 C3          2.0840    0.0800    1.5290 c3        1 NOJ      0.111100
      5 O3          3.4900    0.2550    1.6070 oh        1 NOJ     -0.611800
      6 C4          1.4560    1.2950    2.2330 c3        1 NOJ      0.150100
      7 O4          1.7490    1.2610    3.6200 oh        1 NOJ     -0.604800
      8 C5         -0.0850    1.2330    2.1000 c3        1 NOJ      0.173500
      9 N5         -0.4800    1.1630    0.6960 n3        1 NOJ     -0.820200
     10 C6         -0.6880    2.4670    2.7950 c3        1 NOJ      0.131400
     11 O6         -2.0930    2.2680    2.8400 oh        1 NOJ     -0.612800
     12 H11        -0.2400    0.0910   -1.0750 h1        1 NOJ      0.039200
     13 H12        -0.2910   -0.9670    0.4060 h1        1 NOJ      0.039200
     14 H2          2.0450    0.8760   -0.5100 h1        1 NOJ      0.062700
     15 HO2         1.8310   -1.2710   -1.3640 ho        1 NOJ      0.409000
     16 H3          1.7970   -0.8690    2.0640 h1        1 NOJ      0.061700
     17 HO3         3.8850   -0.4670    1.1010 ho        1 NOJ      0.424000
     18 H4          1.8600    2.2450    1.7860 h1        1 NOJ      0.061700
     19 HO4         2.7090    1.1710    3.6930 ho        1 NOJ      0.423000
     20 H5         -0.4360    0.3210    2.6750 h1        1 NOJ      0.049700
     21 HN5        -1.4820    1.1690    0.6330 hn        1 NOJ      0.388800
     22 H61        -0.4500    3.4080    2.2310 h1        1 NOJ      0.044700
     23 H62        -0.2690    2.5320    3.8340 h1        1 NOJ      0.044700
     24 HO6        -2.4630    3.0240    3.3080 ho        1 NOJ      0.405000
@<TRIPOS>BOND
     1    1    2 1   
     2    1    9 1   
     3    1   12 1   
     4    1   13 1   
     5    2    3 1   
     6    2    4 1   
     7    2   14 1   
     8    3   15 1   
     9    4    5 1   
    10    4    6 1   
    11    4   16 1   
    12    5   17 1   
    13    6    7 1   
    14    6    8 1   
    15    6   18 1   
    16    7   19 1   
    17    8    9 1   
    18    8   10 1   
    19    8   20 1   
    20    9   21 1   
    21   10   11 1   
    22   10   22 1   
    23   10   23 1   
    24   11   24 1   
@<TRIPOS>SUBSTRUCTURE
     1 NOJ         1 TEMP              0 ****  ****    0 ROOT
