@<TRIPOS>MOLECULE
NOJ
   24    24     1     0     0
SMALL
bcc


@<TRIPOS>ATOM
      1 C1          0.1200    0.0400   -0.0310 c3        1 NOJ      0.127800
      2 C2          1.6570    0.0160    0.0640 c3        1 NOJ      0.066100
      3 O2          2.1860   -1.1950   -0.4550 oh        1 NOJ     -0.602800
      4 C3          2.0830    0.0640    1.5380 c3        1 NOJ      0.110100
      5 O3          3.4860    0.2330    1.6580 oh        1 NOJ     -0.612800
      6 C4          1.4420    1.2710    2.2430 c3        1 NOJ      0.113100
      7 O4          1.7000    1.2150    3.6350 oh        1 NOJ     -0.597800
      8 C5         -0.1010    1.2440    2.0620 c3        1 NOJ      0.169500
      9 N5         -0.5190    1.1240    0.6740 n3        1 NOJ     -0.786200
     10 C6         -0.6720    2.4990    2.7480 c3        1 NOJ      0.134400
     11 O6         -2.0630    2.2960    2.9210 oh        1 NOJ     -0.587800
     12 H11        -0.1800    0.0940   -1.1150 h1        1 NOJ      0.063200
     13 H12        -0.2710   -0.9300    0.3890 h1        1 NOJ      0.063200
     14 H2          2.1080    0.8850   -0.4920 h1        1 NOJ      0.047700
     15 HO2         1.8450   -1.2890   -1.3530 ho        1 NOJ      0.410000
     16 H3          1.7740   -0.8900    2.0510 h1        1 NOJ      0.066700
     17 HO3         3.8930   -0.4930    1.1680 ho        1 NOJ      0.426000
     18 H4          1.8730    2.2220    1.8220 h1        1 NOJ      0.045700
     19 HO4         2.6560    1.1030    3.7320 ho        1 NOJ      0.423000
     20 H5         -0.5030    0.3400    2.6090 h1        1 NOJ      0.095700
     21 HN5        -0.3800    1.9940    0.1920 hn        1 NOJ      0.356800
     22 H61        -0.4930    3.4200    2.1300 h1        1 NOJ      0.034700
     23 H62        -0.1670    2.6190    3.7450 h1        1 NOJ      0.034700
     24 HO6        -2.3790    3.0310    3.4600 ho        1 NOJ      0.398000
@<TRIPOS>BOND
     1    1    2 1   
     2    1    9 1   
     3    1   12 1   
     4    1   13 1   
     5    2    3 1   
     6    2    4 1   
     7    2   14 1   
     8    3   15 1   
     9    4    5 1   
    10    4    6 1   
    11    4   16 1   
    12    5   17 1   
    13    6    7 1   
    14    6    8 1   
    15    6   18 1   
    16    7   19 1   
    17    8    9 1   
    18    8   10 1   
    19    8   20 1   
    20    9   21 1   
    21   10   11 1   
    22   10   22 1   
    23   10   23 1   
    24   11   24 1   
@<TRIPOS>SUBSTRUCTURE
     1 NOJ         1 TEMP              0 ****  ****    0 ROOT
