@<TRIPOS>MOLECULE
NOJ
   24    24     1     0     0
SMALL
bcc


@<TRIPOS>ATOM
      1 C1         -0.6020   -1.8100   -0.1280 c3        1 NOJ      0.127800
      2 C2         -1.6630   -0.7720    0.2850 c3        1 NOJ      0.066100
      3 O2         -2.9190   -1.0560   -0.3130 oh        1 NOJ     -0.602800
      4 C3         -1.2550    0.6150   -0.2290 c3        1 NOJ      0.110100
      5 O3         -2.1070    1.6230    0.2910 oh        1 NOJ     -0.612800
      6 C4          0.1650    0.9670    0.2440 c3        1 NOJ      0.113100
      7 O4          0.5990    2.1670   -0.3700 oh        1 NOJ     -0.597800
      8 C5          1.1640   -0.1480   -0.1730 c3        1 NOJ      0.169500
      9 N5          0.7520   -1.4800    0.2440 n3        1 NOJ     -0.786200
     10 C6          2.5510    0.2430    0.3710 c3        1 NOJ      0.134400
     11 O6          3.5130   -0.5420   -0.3100 oh        1 NOJ     -0.587800
     12 H11        -0.8640   -2.8040    0.3280 h1        1 NOJ      0.063200
     13 H12        -0.6400   -1.9210   -1.2490 h1        1 NOJ      0.063200
     14 H2         -1.7840   -0.7440    1.4040 h1        1 NOJ      0.047700
     15 HO2        -3.1440   -1.9640   -0.0780 ho        1 NOJ      0.410000
     16 H3         -1.3000    0.6280   -1.3540 h1        1 NOJ      0.066700
     17 HO3        -3.0080    1.3750    0.0430 ho        1 NOJ      0.426000
     18 H4          0.1650    1.1000    1.3620 h1        1 NOJ      0.045700
     19 HO4        -0.0940    2.8230   -0.2110 ho        1 NOJ      0.423000
     20 H5          1.2270   -0.1580   -1.3020 h1        1 NOJ      0.095700
     21 HN5         0.8880   -1.5920    1.2320 hn        1 NOJ      0.356800
     22 H61         2.7190    1.3350    0.1630 h1        1 NOJ      0.034700
     23 H62         2.6220    0.0620    1.4770 h1        1 NOJ      0.034700
     24 HO6         4.3760   -0.1980   -0.0510 ho        1 NOJ      0.398000
@<TRIPOS>BOND
     1    1    2 1   
     2    1    9 1   
     3    1   12 1   
     4    1   13 1   
     5    2    3 1   
     6    2    4 1   
     7    2   14 1   
     8    3   15 1   
     9    4    5 1   
    10    4    6 1   
    11    4   16 1   
    12    5   17 1   
    13    6    7 1   
    14    6    8 1   
    15    6   18 1   
    16    7   19 1   
    17    8    9 1   
    18    8   10 1   
    19    8   20 1   
    20    9   21 1   
    21   10   11 1   
    22   10   22 1   
    23   10   23 1   
    24   11   24 1   
@<TRIPOS>SUBSTRUCTURE
     1 NOJ         1 TEMP              0 ****  ****    0 ROOT
