@<TRIPOS>MOLECULE
NOK
   30    30     1     0     0
SMALL
bcc


@<TRIPOS>ATOM
      1 C8         -4.4920   -0.0180    1.5260 c3        1 NOK     -0.177100
      2 C7         -2.9370    0.0330    1.6210 c         1 NOK      0.653100
      3 O7         -2.3950    0.0330    2.7080 o         1 NOK     -0.590100
      4 N2         -2.1200   -0.0070    0.3900 n         1 NOK     -0.578900
      5 C2         -0.6540   -0.0460    0.4840 c3        1 NOK      0.058700
      6 C1         -0.1610   -1.4350    0.0520 c3        1 NOK      0.151800
      7 N5          1.3180   -1.5030   -0.0530 n3        1 NOK     -0.819200
      8 C5          1.8760   -0.4350   -0.8780 c3        1 NOK      0.174500
      9 C6          3.3870   -0.4750   -0.7780 c3        1 NOK      0.131400
     10 O6          3.8960   -1.5760   -1.5810 oh        1 NOK     -0.613800
     11 C4          1.3950    0.9430   -0.4520 c3        1 NOK      0.151100
     12 O4          1.8450    1.9070   -1.4150 oh        1 NOK     -0.605800
     13 C3         -0.1000    1.0220   -0.3470 c3        1 NOK      0.101100
     14 O3         -0.4640    2.3120    0.2380 oh        1 NOK     -0.609800
     15 H8C1       -4.8210    0.7970    1.0840 hc        1 NOK      0.067700
     16 H8C2       -4.7590   -0.7930    1.0140 hc        1 NOK      0.067700
     17 H8C3       -4.8740   -0.0760    2.4300 hc        1 NOK      0.067700
     18 H2         -2.5310    0.0870   -0.4450 hn        1 NOK      0.301500
     19 HA         -0.3920    0.1070    1.4140 h1        1 NOK      0.117700
     20 H1C1       -0.5520   -1.6540   -0.8280 h1        1 NOK      0.034200
     21 H1C2       -0.4700   -2.1120    0.7210 h1        1 NOK      0.034200
     22 H3         -0.4980    0.9580   -1.2730 h1        1 NOK      0.043700
     23 H5          1.5570   -2.3000   -0.3950 hn        1 NOK      0.389800
     24 HB          1.6140   -0.5880   -1.8180 h1        1 NOK      0.046700
     25 H6C1        3.6500   -0.6040    0.1620 h1        1 NOK      0.044700
     26 H6C2        3.7600    0.3740   -1.1100 h1        1 NOK      0.044700
     27 H4          1.7940    1.1630    0.4410 h1        1 NOK      0.066700
     28 H6          4.7860   -1.5820   -1.5460 ho        1 NOK      0.405000
     29 HC          2.1700    2.6420   -0.9810 ho        1 NOK      0.424000
     30 HD         -0.8260    2.8270   -0.3850 ho        1 NOK      0.418000
@<TRIPOS>BOND
     1    1    2 1   
     2    1   15 1   
     3    1   16 1   
     4    1   17 1   
     5    2    3 2   
     6    2    4 1   
     7    4    5 1   
     8    4   18 1   
     9    5    6 1   
    10    5   13 1   
    11    5   19 1   
    12    6    7 1   
    13    6   20 1   
    14    6   21 1   
    15    7    8 1   
    16    7   23 1   
    17    8    9 1   
    18    8   11 1   
    19    8   24 1   
    20    9   10 1   
    21    9   25 1   
    22    9   26 1   
    23   10   28 1   
    24   11   12 1   
    25   11   13 1   
    26   11   27 1   
    27   12   29 1   
    28   13   14 1   
    29   13   22 1   
    30   14   30 1   
@<TRIPOS>SUBSTRUCTURE
     1 NOK         1 TEMP              0 ****  ****    0 ROOT
