@<TRIPOS>MOLECULE
NOK
   31    31     1     0     0
SMALL
bcc


@<TRIPOS>ATOM
      1 C8          0.8470    0.6220    0.4920 c3        1 NOK     -0.186100
      2 C7          1.2510   -0.6510   -0.1650 c         1 NOK      0.557100
      3 O7          1.1340   -1.7940    0.2440 o         1 NOK     -0.403100
      4 N2          1.8740   -0.5160   -1.5420 n4        1 NOK     -0.682800
      5 C2          3.3590   -0.2990   -1.4610 c3        1 NOK      0.112500
      6 C1          4.1310   -1.6150   -1.1630 c3        1 NOK      0.163800
      7 N5          5.5300   -1.3050   -1.0130 n3        1 NOK     -0.825200
      8 C5          6.1360   -0.7560   -2.2230 c3        1 NOK      0.136500
      9 C6          7.6370   -0.4750   -2.0050 c3        1 NOK      0.134400
     10 O6          8.2450   -1.7340   -1.7780 oh        1 NOK     -0.603800
     11 C4          5.4140    0.5480   -2.6390 c3        1 NOK      0.117100
     12 O4          5.8070    0.9690   -3.9340 oh        1 NOK     -0.599800
     13 C3          3.9000    0.2870   -2.7840 c3        1 NOK      0.129100
     14 O3          3.1810    1.4840   -3.0200 oh        1 NOK     -0.635800
     15 H8C1        0.5910    0.4050    1.5640 hc        1 NOK      0.116700
     16 H8C2        1.6670    1.3840    0.4610 hc        1 NOK      0.116700
     17 H8C3       -0.0620    1.0420   -0.0140 hc        1 NOK      0.116700
     18 H2          1.6900   -1.3650   -2.0900 hn        1 NOK      0.468300
     19 HA          3.5320    0.4520   -0.6330 hx        1 NOK      0.124700
     20 H1C1        3.9170   -2.3490   -1.9960 h1        1 NOK      0.061200
     21 H1C2        3.7620   -2.0610   -0.1960 h1        1 NOK      0.061200
     22 H3          3.7310   -0.4260   -3.6400 h1        1 NOK      0.077700
     23 H5          6.0560   -2.0930   -0.6780 hn        1 NOK      0.427800
     24 HB          6.0560   -1.4800   -3.0930 h1        1 NOK      0.065700
     25 H6C1        7.8010    0.2080   -1.1300 h1        1 NOK      0.041700
     26 H6C2        8.0600   -0.0070   -2.9340 h1        1 NOK      0.041700
     27 H4          5.5990    1.3650   -1.8890 h1        1 NOK      0.073700
     28 H6          9.1820   -1.5690   -1.6100 ho        1 NOK      0.427000
     29 HC          6.7230    1.2700   -3.8810 ho        1 NOK      0.434000
     30 HD          3.6470    1.9690   -3.7180 ho        1 NOK      0.466000
     31 H22         1.4660    0.2940   -2.0310 hn        1 NOK      0.468300
@<TRIPOS>BOND
     1    1    2 1   
     2    1   15 1   
     3    1   16 1   
     4    1   17 1   
     5    2    3 2   
     6    2    4 1   
     7    4    5 1   
     8    4   18 1   
     9    4   31 1   
    10    5    6 1   
    11    5   13 1   
    12    5   19 1   
    13    6    7 1   
    14    6   20 1   
    15    6   21 1   
    16    7    8 1   
    17    7   23 1   
    18    8    9 1   
    19    8   11 1   
    20    8   24 1   
    21    9   10 1   
    22    9   25 1   
    23    9   26 1   
    24   10   28 1   
    25   11   12 1   
    26   11   13 1   
    27   11   27 1   
    28   12   29 1   
    29   13   14 1   
    30   13   22 1   
    31   14   30 1   
@<TRIPOS>SUBSTRUCTURE
     1 NOK         1 TEMP              0 ****  ****    0 ROOT
