@<TRIPOS>MOLECULE
NOK
   31    31     1     0     0
SMALL
bcc


@<TRIPOS>ATOM
      1 C8          0.8580    0.6080    0.5210 c3        1 NOK     -0.186100
      2 C7          1.2690   -0.6670   -0.1270 c         1 NOK      0.557100
      3 O7          1.1680   -1.8080    0.2950 o         1 NOK     -0.403100
      4 N2          1.8770   -0.5400   -1.5120 ny        1 NOK     -0.682800
      5 C2          3.3600   -0.3070   -1.4480 c3        1 NOK      0.112500
      6 C1          4.1480   -1.6120   -1.1450 c3        1 NOK      0.163800
      7 N5          5.5460   -1.2860   -1.0120 n7        1 NOK     -0.825200
      8 C5          6.1330   -0.7430   -2.2330 c3        1 NOK      0.136500
      9 C6          7.6340   -0.4440   -2.0340 c3        1 NOK      0.134400
     10 O6          8.2580   -1.6940   -1.8010 oh        1 NOK     -0.603800
     11 C4          5.3940    0.5500   -2.6550 c3        1 NOK      0.117100
     12 O4          5.7690    0.9620   -3.9580 oh        1 NOK     -0.599800
     13 C3          3.8820    0.2720   -2.7810 c3        1 NOK      0.129100
     14 O3          3.1470    1.4590   -3.0210 oh        1 NOK     -0.635800
     15 H8C1       -0.0620    1.0120    0.0220 hc        1 NOK      0.116700
     16 H8C2        0.6170    0.4000    1.5980 hc        1 NOK      0.116700
     17 H8C3        1.6680    1.3790    0.4720 hc        1 NOK      0.116700
     18 H2          1.4560    0.2610   -2.0050 hn        1 NOK      0.468300
     19 HA          3.5340    0.4550   -0.6290 hx        1 NOK      0.124700
     20 H1C1        3.9340   -2.3560   -1.9690 h1        1 NOK      0.061200
     21 H1C2        3.7940   -2.0520   -0.1700 h1        1 NOK      0.061200
     22 H3          3.7110   -0.4510   -3.6290 h1        1 NOK      0.077700
     23 H5          6.0840   -2.0650   -0.6750 hn        1 NOK      0.427800
     24 HB          6.0530   -1.4760   -3.0950 h1        1 NOK      0.065700
     25 H6C1        8.0430    0.0200   -2.9710 h1        1 NOK      0.041700
     26 H6C2        7.7990    0.2490   -1.1670 h1        1 NOK      0.041700
     27 H4          5.5780    1.3770   -1.9140 h1        1 NOK      0.073700
     28 H6          9.1940   -1.5180   -1.6440 ho        1 NOK      0.427000
     29 HC          6.6830    1.2730   -3.9160 ho        1 NOK      0.434000
     30 HD          3.6020    1.9420   -3.7290 ho        1 NOK      0.466000
     31 H22         1.6960   -1.3970   -2.0490 hn        1 NOK      0.468300
@<TRIPOS>BOND
     1    1    2 1   
     2    1   15 1   
     3    1   16 1   
     4    1   17 1   
     5    2    3 2   
     6    2    4 1   
     7    4    5 1   
     8    4   18 1   
     9    4   31 1   
    10    5    6 1   
    11    5   13 1   
    12    5   19 1   
    13    6    7 1   
    14    6   20 1   
    15    6   21 1   
    16    7    8 1   
    17    7   23 1   
    18    8    9 1   
    19    8   11 1   
    20    8   24 1   
    21    9   10 1   
    22    9   25 1   
    23    9   26 1   
    24   10   28 1   
    25   11   12 1   
    26   11   13 1   
    27   11   27 1   
    28   12   29 1   
    29   13   14 1   
    30   13   22 1   
    31   14   30 1   
@<TRIPOS>SUBSTRUCTURE
     1 NOK         1 TEMP              0 ****  ****    0 ROOT
