@<TRIPOS>MOLECULE
NOK
   30    30     1     0     0
SMALL
bcc


@<TRIPOS>ATOM
      1 C8          4.6770    0.2110   -0.4080 c3        1 NOK     -0.174100
      2 C7          3.2830    0.5680    0.0450 c         1 NOK      0.652100
      3 O7          3.0740    1.4990    0.8490 o         1 NOK     -0.608100
      4 N2          2.2330   -0.1480   -0.5090 n         1 NOK     -0.553900
      5 C2          0.8920   -0.0060    0.0090 c3        1 NOK      0.072700
      6 C1          0.2030    1.3040   -0.4810 c3        1 NOK      0.146800
      7 N5         -1.1380    1.4990    0.0140 n3        1 NOK     -0.791200
      8 C5         -2.0240    0.3690   -0.2100 c3        1 NOK      0.173500
      9 C6         -3.3870    0.5310    0.4880 c3        1 NOK      0.134400
     10 O6         -4.1230    1.4920   -0.2470 oh        1 NOK     -0.584800
     11 C4         -1.4110   -0.9830    0.2470 c3        1 NOK      0.073100
     12 O4         -2.2780   -2.0190   -0.1890 oh        1 NOK     -0.593800
     13 C3         -0.0300   -1.1760   -0.4050 c3        1 NOK      0.094100
     14 O3          0.5570   -2.3880    0.0480 oh        1 NOK     -0.605800
     15 H8C1        5.4040    0.8910    0.0990 hc        1 NOK      0.066700
     16 H8C2        4.9170   -0.8450   -0.1390 hc        1 NOK      0.066700
     17 H8C3        4.7730    0.3380   -1.5140 hc        1 NOK      0.066700
     18 H2          2.4360   -1.0050   -0.9680 hn        1 NOK      0.312500
     19 HA          0.9470    0.0230    1.1400 h1        1 NOK      0.064700
     20 H1C1        0.8330    2.1790   -0.1530 h1        1 NOK      0.075200
     21 H1C2        0.1600    1.2970   -1.6060 h1        1 NOK      0.075200
     22 H3         -0.1490   -1.2040   -1.5240 h1        1 NOK      0.059700
     23 H5         -1.1270    1.7500    0.9860 hn        1 NOK      0.360800
     24 HB         -2.2130    0.3080   -1.3230 h1        1 NOK      0.094700
     25 H6C1       -3.9220   -0.4580    0.4670 h1        1 NOK      0.031200
     26 H6C2       -3.2660    0.8630    1.5540 h1        1 NOK      0.031200
     27 H4         -1.3080   -1.0090    1.3670 h1        1 NOK      0.049700
     28 H6         -4.9650    1.5990    0.2110 ho        1 NOK      0.398000
     29 HC         -2.0590   -2.7990    0.3350 ho        1 NOK      0.403000
     30 HD          0.0740   -3.1030   -0.3840 ho        1 NOK      0.406000
@<TRIPOS>BOND
     1    1    2 1   
     2    1   15 1   
     3    1   16 1   
     4    1   17 1   
     5    2    3 2   
     6    2    4 1   
     7    4    5 1   
     8    4   18 1   
     9    5    6 1   
    10    5   13 1   
    11    5   19 1   
    12    6    7 1   
    13    6   20 1   
    14    6   21 1   
    15    7    8 1   
    16    7   23 1   
    17    8    9 1   
    18    8   11 1   
    19    8   24 1   
    20    9   10 1   
    21    9   25 1   
    22    9   26 1   
    23   10   28 1   
    24   11   12 1   
    25   11   13 1   
    26   11   27 1   
    27   12   29 1   
    28   13   14 1   
    29   13   22 1   
    30   14   30 1   
@<TRIPOS>SUBSTRUCTURE
     1 NOK         1 TEMP              0 ****  ****    0 ROOT
