@<TRIPOS>MOLECULE
NOL
   93    92     1     0     0
SMALL
bcc


@<TRIPOS>ATOM
      1 C1          4.0180    5.2130    6.6960 c1        1 NOL     -0.067500
      2 C2          3.7340    4.1350    5.8650 c1        1 NOL     -0.066100
      3 C3          4.4550    2.9580    5.9870 c1        1 NOL     -0.045500
      4 C4          5.4610    2.8550    6.9400 c1        1 NOL     -0.067500
      5 C5          5.7440    3.9310    7.7700 c1        1 NOL     -0.067500
      6 C6          5.0230    5.1090    7.6480 c1        1 NOL     -0.067500
      7 C13         2.6440    4.2590    4.7930 c3        1 NOL      0.162500
      8 O15         2.1500    2.9470    4.4540 os        1 NOL     -0.431900
      9 C17         1.3360    2.9190    3.2670 c         1 NOL      0.733100
     10 N19         0.8480    1.6430    2.7450 n         1 NOL     -0.510900
     11 C21         0.6290    1.4850    1.3480 c3        1 NOL      0.024700
     12 C23        -0.2250    0.2200    1.0990 c         1 NOL      0.655100
     13 N25        -1.4580    0.3100    0.2890 n         1 NOL     -0.549900
     14 C27        -1.9320   -0.8390   -0.4200 c3        1 NOL      0.043700
     15 C29        -1.2780   -0.8970   -1.7790 c         1 NOL      0.644100
     16 N31        -1.7300   -1.8600   -2.7580 n         1 NOL     -0.564900
     17 C33        -1.1510   -1.8710   -4.0760 c3        1 NOL      0.065700
     18 C35        -1.0130   -0.4660   -4.5710 c3        1 NOL      0.123400
     19 O39        -0.4430   -0.4750   -5.8630 oh        1 NOL     -0.611800
     20 C41        -2.0500   -2.6540   -5.0180 c3        1 NOL     -0.078400
     21 C43        -1.1700   -3.5300   -5.9740 c3        1 NOL     -0.145700
     22 C45        -1.3810   -3.0070   -7.5820 c3        1 NOL     -0.094400
     23 C47        -1.1100   -3.9370   -8.2920 c3        1 NOL      0.089000
     24 N49        -1.3820   -5.1290   -7.5030 n         1 NOL     -0.585900
     25 C51        -1.6050   -4.6330   -6.0110 c         1 NOL      0.694500
     26 O54        -1.8410   -5.3390   -5.0520 o         1 NOL     -0.627500
     27 O56        -0.3290   -0.1790   -2.0270 o         1 NOL     -0.629100
     28 C58        -3.4560   -0.7450   -0.5870 c3        1 NOL     -0.081400
     29 C60        -4.1510   -1.4730    0.5890 c3        1 NOL     -0.071700
     30 C62        -5.0560   -2.5530    0.0340 c3        1 NOL     -0.073900
     31 C63        -5.9190   -3.2000    1.1100 c3        1 NOL     -0.075400
     32 C64        -6.6750   -2.1780    1.9380 c3        1 NOL     -0.078400
     33 C65        -5.7680   -1.0970    2.4920 c3        1 NOL     -0.075400
     34 C66        -4.9080   -0.4520    1.4180 c3        1 NOL     -0.073900
     35 O73         0.1620   -0.8650    1.5020 o         1 NOL     -0.634100
     36 C75         1.9440    1.3440    0.6480 c3        1 NOL      0.137100
     37 C77         1.9940    2.2940   -0.5220 c3        1 NOL     -0.114100
     38 O79         3.0000    1.6530    1.5540 os        1 NOL     -0.433600
     39 C81         4.2850    1.2230    1.1140 c3        1 NOL      0.152800
     40 C83         5.0550    2.4190    0.5400 c3        1 NOL     -0.112433
     41 C85         5.0610    0.6390    2.3000 c3        1 NOL     -0.112433
     42 C87         4.1230    0.1550    0.0360 c3        1 NOL     -0.112433
     43 O89         1.0370    3.9560    2.7120 o         1 NOL     -0.609000
     44 H1          3.5130    6.0380    6.6110 ha        1 NOL      0.076250
     45 H3          4.2560    2.2000    5.4030 ha        1 NOL      0.084500
     46 H4          5.9690    2.0240    7.0260 ha        1 NOL      0.076250
     47 H5          6.4500    3.8580    8.4380 ha        1 NOL      0.076250
     48 H6          5.2230    5.8680    8.2330 ha        1 NOL      0.076250
     49 H131        3.0200    4.6850    3.9900 h1        1 NOL      0.065700
     50 H132        1.9050    4.8070    5.1390 h1        1 NOL      0.065700
     51 HN19        0.7670    0.9270    3.3000 hn        1 NOL      0.338500
     52 H21         0.1570    2.2710    1.0000 h1        1 NOL      0.086700
     53 HN25       -1.8760    1.1110    0.1860 hn        1 NOL      0.350500
     54 H27        -1.7100   -1.6450    0.0830 h1        1 NOL      0.076700
     55 HN31       -2.4030   -2.4380   -2.5520 hn        1 NOL      0.341500
     56 H33        -0.2680   -2.2930   -4.0420 h1        1 NOL      0.070700
     57 H351       -0.4360    0.0380   -3.9640 h1        1 NOL      0.048200
     58 H352       -1.8980   -0.0430   -4.6080 h1        1 NOL      0.048200
     59 HO39       -0.2660    0.3590   -6.1150 ho        1 NOL      0.429000
     60 H411       -2.6380   -3.2300   -4.5000 hc        1 NOL      0.067200
     61 H412       -2.5870   -2.0310   -5.5490 hc        1 NOL      0.067200
     62 H43        -0.2850   -3.4110   -5.5770 hc        1 NOL      0.098700
     63 H451       -0.7800   -2.2560   -7.7710 hc        1 NOL      0.060700
     64 H452       -2.3140   -2.7350   -7.7260 hc        1 NOL      0.060700
     65 H471       -0.1640   -3.9060   -8.5430 h1        1 NOL      0.041700
     66 H472       -1.6750   -3.9270   -9.0950 h1        1 NOL      0.041700
     67 HN49       -1.5930   -5.9540   -7.8320 hn        1 NOL      0.329500
     68 H581       -3.7250    0.1940   -0.5930 hc        1 NOL      0.069700
     69 H582       -3.7180   -1.1650   -1.4320 hc        1 NOL      0.069700
     70 H60        -3.4750   -1.8880    1.1450 hc        1 NOL      0.061700
     71 H621       -4.5030   -3.2450   -0.3870 hc        1 NOL      0.041950
     72 H622       -5.6400   -2.1590   -0.6440 hc        1 NOL      0.041950
     73 H631       -5.3450   -3.7240    1.7020 hc        1 NOL      0.038950
     74 H632       -6.5650   -3.8000    0.6810 hc        1 NOL      0.038950
     75 H641       -7.1150   -2.6390    2.6870 hc        1 NOL      0.039200
     76 H642       -7.3630   -1.7580    1.3740 hc        1 NOL      0.039200
     77 H651       -6.3200   -0.4060    2.9130 hc        1 NOL      0.038950
     78 H652       -5.1840   -1.4920    3.1710 hc        1 NOL      0.038950
     79 H661       -4.2650    0.1460    1.8460 hc        1 NOL      0.041950
     80 H662       -5.4840    0.0730    0.8250 hc        1 NOL      0.041950
     81 H75         2.0470    0.4310    0.3300 h1        1 NOL      0.085700
     82 H771        2.7090    2.9420   -0.3840 hc        1 NOL      0.050367
     83 H772        2.1640    1.7900   -1.3440 hc        1 NOL      0.050367
     84 H773        1.1400    2.7620   -0.5980 hc        1 NOL      0.050367
     85 H831        4.7030    2.6380   -0.3480 hc        1 NOL      0.047700
     86 H832        6.0040    2.1910    0.4670 hc        1 NOL      0.047700
     87 H833        4.9490    3.1890    1.1320 hc        1 NOL      0.047700
     88 H851        5.9160    0.2740    1.9850 hc        1 NOL      0.047700
     89 H852        5.2300    1.3430    2.9590 hc        1 NOL      0.047700
     90 H853        4.5360   -0.0730    2.7130 hc        1 NOL      0.047700
     91 H871        5.0100   -0.1590   -0.2500 hc        1 NOL      0.047700
     92 H872        3.6460    0.5360   -0.7350 hc        1 NOL      0.047700
     93 H873        3.6110   -0.5980    0.3970 hc        1 NOL      0.047700
@<TRIPOS>BOND
     1    1    6 3   
     2    1   44 1   
     3    2    3 3   
     4    2    7 1   
     5    3   45 1   
     6    4    5 3   
     7    4   46 1   
     8    5   47 1   
     9    6   48 1   
    10    7    8 1   
    11    7   49 1   
    12    7   50 1   
    13    8    9 1   
    14    9   10 1   
    15    9   43 2   
    16   10   11 1   
    17   10   51 1   
    18   11   12 1   
    19   11   36 1   
    20   11   52 1   
    21   12   13 1   
    22   12   35 2   
    23   13   14 1   
    24   13   53 1   
    25   14   15 1   
    26   14   28 1   
    27   14   54 1   
    28   15   16 1   
    29   15   27 2   
    30   16   17 1   
    31   16   55 1   
    32   17   18 1   
    33   17   20 1   
    34   17   56 1   
    35   18   19 1   
    36   18   57 1   
    37   18   58 1   
    38   19   59 1   
    39   20   21 1   
    40   20   60 1   
    41   20   61 1   
    42   21   22 1   
    43   21   25 1   
    44   21   62 1   
    45   22   23 1   
    46   22   63 1   
    47   22   64 1   
    48   23   24 1   
    49   23   65 1   
    50   23   66 1   
    51   24   25 1   
    52   24   67 1   
    53   25   26 2   
    54   28   29 1   
    55   28   68 1   
    56   28   69 1   
    57   29   30 1   
    58   29   34 1   
    59   29   70 1   
    60   30   31 1   
    61   30   71 1   
    62   30   72 1   
    63   31   32 1   
    64   31   73 1   
    65   31   74 1   
    66   32   33 1   
    67   32   75 1   
    68   32   76 1   
    69   33   34 1   
    70   33   77 1   
    71   33   78 1   
    72   34   79 1   
    73   34   80 1   
    74   36   37 1   
    75   36   38 1   
    76   36   81 1   
    77   37   82 1   
    78   37   83 1   
    79   37   84 1   
    80   38   39 1   
    81   39   40 1   
    82   39   41 1   
    83   39   42 1   
    84   40   85 1   
    85   40   86 1   
    86   40   87 1   
    87   41   88 1   
    88   41   89 1   
    89   41   90 1   
    90   42   91 1   
    91   42   92 1   
    92   42   93 1   
@<TRIPOS>SUBSTRUCTURE
     1 NOL         1 TEMP              0 ****  ****    0 ROOT
