@<TRIPOS>MOLECULE
NOL
   96    98     1     0     0
SMALL
bcc


@<TRIPOS>ATOM
      1 C1          0.3470   -1.7800    0.7510 ca        1 NOL     -0.067500
      2 C2          0.6910   -1.0400   -0.3950 ca        1 NOL     -0.193300
      3 C3          0.9040    0.3460   -0.2890 ca        1 NOL     -0.067500
      4 C4          0.7520    0.9820    0.9380 ca        1 NOL     -0.130000
      5 C5          0.3990    0.2430    2.0720 ca        1 NOL     -0.039000
      6 C6          0.1980   -1.1370    1.9760 ca        1 NOL     -0.130000
      7 C13         0.7740   -1.7000   -1.6970 c3        1 NOL      0.257700
      8 O15         2.2350   -2.1750   -1.7560 os        1 NOL     -0.383900
      9 C17         2.6840   -2.6650   -2.8810 c         1 NOL      0.654100
     10 N19         4.1330   -3.1010   -2.7680 ny        1 NOL     -0.652800
     11 C21         4.7900   -3.2460   -4.1050 c3        1 NOL      0.048500
     12 C23         4.1110   -4.3600   -4.9100 c         1 NOL      0.530100
     13 N25         3.5120   -3.9430   -6.2300 ny        1 NOL     -0.676800
     14 C27         2.9100   -5.0530   -7.0600 c3        1 NOL      0.050500
     15 C29         3.9300   -5.5850   -8.0830 c         1 NOL      0.532100
     16 N31         3.6490   -6.9000   -8.6760 ny        1 NOL     -0.689800
     17 C33         4.0210   -7.0220  -10.1400 c3        1 NOL      0.112500
     18 C35         3.0200   -6.2360  -11.0230 c3        1 NOL      0.106400
     19 O39         1.7080   -6.4540  -10.5480 oh        1 NOL     -0.645800
     20 C41         4.0740   -8.4960  -10.5630 c3        1 NOL     -0.097400
     21 C43         5.2760   -9.2560  -10.0430 c3        1 NOL     -0.161700
     22 C45         5.6080  -10.4800  -10.9190 c3        1 NOL     -0.096400
     23 C47         5.7330  -11.6750   -9.9480 c3        1 NOL      0.069000
     24 N49         5.3450  -11.1800   -8.6360 ns        1 NOL     -0.490900
     25 C51         5.0720   -9.8530   -8.6410 c         1 NOL      0.692500
     26 O54         4.7140   -9.1850   -7.6250 o         1 NOL     -0.743500
     27 O56         4.9460   -4.9660   -8.3880 o         1 NOL     -0.436100
     28 C58         1.6560   -4.5570   -7.8040 c3        1 NOL     -0.125400
     29 C60         0.4550   -4.3900   -6.8810 c3        1 NOL     -0.077700
     30 C62        -0.6040   -3.5530   -7.5960 c3        1 NOL     -0.076900
     31 C63        -1.8290   -3.3720   -6.7240 c3        1 NOL     -0.077400
     32 C64        -2.4010   -4.7040   -6.2870 c3        1 NOL     -0.087400
     33 C65        -1.3540   -5.5560   -5.6010 c3        1 NOL     -0.077400
     34 C66        -0.1310   -5.7370   -6.4790 c3        1 NOL     -0.076900
     35 O73         4.0110   -5.5260   -4.5710 o         1 NOL     -0.361100
     36 C75         6.3330   -3.5680   -3.9400 c3        1 NOL      0.167100
     37 C77         7.0510   -2.2700   -3.6180 c3        1 NOL     -0.150100
     38 O79         6.4300   -4.4830   -2.8760 os        1 NOL     -0.475600
     39 C81         7.4310   -5.5460   -2.9780 c3        1 NOL      0.169800
     40 C83         8.8170   -4.9650   -3.1830 c3        1 NOL     -0.121767
     41 C85         7.3240   -6.2300   -1.6180 c3        1 NOL     -0.121767
     42 C87         7.0610   -6.5020   -4.0970 c3        1 NOL     -0.121767
     43 O89         2.1180   -2.8040   -3.9700 o         1 NOL     -0.564000
     44 H1          0.1790   -2.8660    0.6770 ha        1 NOL      0.138500
     45 H3          1.1710    0.9330   -1.1810 ha        1 NOL      0.138500
     46 H4          0.9020    2.0720    1.0180 ha        1 NOL      0.170500
     47 H5          0.2740    0.7520    3.0440 ha        1 NOL      0.174000
     48 H6         -0.0860   -1.7150    2.8720 ha        1 NOL      0.170500
     49 H131        0.6470   -1.0240   -2.5780 h1        1 NOL      0.089200
     50 H132        0.1780   -2.6410   -1.7860 h1        1 NOL      0.089200
     51 HN19        4.1950   -4.0010   -2.2560 hn        1 NOL      0.507300
     52 H21         4.7010   -2.2480   -4.6330 hx        1 NOL      0.135700
     53 HN25        4.2270   -3.4500   -6.7880 hn        1 NOL      0.497800
     54 H27         2.6110   -5.8890   -6.3460 hx        1 NOL      0.167700
     55 HN31        4.2030   -7.6510   -8.1360 hn        1 NOL      0.507300
     56 H33         5.0460   -6.5560  -10.2640 hx        1 NOL      0.128700
     57 H351        3.2240   -5.1330  -10.9320 h1        1 NOL      0.091200
     58 H352        3.1550   -6.5440  -12.0930 h1        1 NOL      0.091200
     59 HO39        1.1710   -6.8250  -11.2640 ho        1 NOL      0.467000
     60 H411        4.1300   -8.4930  -11.6910 hc        1 NOL      0.102700
     61 H412        3.1210   -9.0210  -10.2860 hc        1 NOL      0.102700
     62 H43         6.1710   -8.5770   -9.9930 hc        1 NOL      0.094700
     63 H451        6.5670  -10.3230  -11.4720 hc        1 NOL      0.089700
     64 H452        4.8040  -10.6780  -11.6700 hc        1 NOL      0.089700
     65 H471        5.0540  -12.5200  -10.2510 h1        1 NOL      0.094200
     66 H472        6.7900  -12.0610   -9.9130 h1        1 NOL      0.094200
     67 HN49        5.3200  -11.7620   -7.8320 hn        1 NOL      0.370500
     68 H581        1.3880   -5.3030   -8.6070 hc        1 NOL      0.106200
     69 H582        1.8760   -3.5880   -8.3300 hc        1 NOL      0.106200
     70 H60         0.7570   -3.8390   -5.9450 hc        1 NOL      0.037700
     71 H621       -0.8960   -4.0630   -8.5520 hc        1 NOL      0.046200
     72 H622       -0.1780   -2.5500   -7.8600 hc        1 NOL      0.046200
     73 H631       -1.5620   -2.7600   -5.8220 hc        1 NOL      0.058200
     74 H632       -2.6060   -2.8000   -7.2990 hc        1 NOL      0.058200
     75 H641       -2.8070   -5.2510   -7.1780 hc        1 NOL      0.070700
     76 H642       -3.2600   -4.5300   -5.5850 hc        1 NOL      0.070700
     77 H651       -1.0530   -5.0780   -4.6320 hc        1 NOL      0.058200
     78 H652       -1.7870   -6.5630   -5.3610 hc        1 NOL      0.058200
     79 H661       -0.4220   -6.3080   -7.4010 hc        1 NOL      0.046200
     80 H662        0.6350   -6.3440   -5.9280 hc        1 NOL      0.046200
     81 H75         6.6950   -4.0020   -4.9120 h1        1 NOL      0.082700
     82 H771        8.1570   -2.4600   -3.6140 hc        1 NOL      0.083033
     83 H772        6.8340   -1.4870   -4.3830 hc        1 NOL      0.083033
     84 H773        6.7810   -1.8920   -2.6030 hc        1 NOL      0.083033
     85 H831        9.0450   -4.2080   -2.3930 hc        1 NOL      0.063478
     86 H832        8.9090   -4.4870   -4.1880 hc        1 NOL      0.063478
     87 H833        9.5750   -5.7850   -3.1120 hc        1 NOL      0.063478
     88 H851        7.5140   -5.4970   -0.7980 hc        1 NOL      0.063478
     89 H852        8.0910   -7.0420   -1.5620 hc        1 NOL      0.063478
     90 H853        6.3110   -6.6760   -1.4820 hc        1 NOL      0.063478
     91 H871        7.2830   -6.0630   -5.0990 hc        1 NOL      0.063478
     92 H872        7.6630   -7.4390   -3.9890 hc        1 NOL      0.063478
     93 H873        5.9780   -6.7700   -4.0420 hc        1 NOL      0.063478
     94 H192        4.6680   -2.4070   -2.2150 hn        1 NOL      0.507300
     95 H252        2.7420   -3.2730   -6.0100 hn        1 NOL      0.497800
     96 H312        2.6450   -7.1210   -8.5930 hn        1 NOL      0.507300
@<TRIPOS>BOND
     1    1    2 ar  
     2    1    6 ar  
     3    1   44 1   
     4    2    3 ar  
     5    2    7 1   
     6    3    4 ar  
     7    3   45 1   
     8    4    5 ar  
     9    4   46 1   
    10    5    6 ar  
    11    5   47 1   
    12    6   48 1   
    13    7    8 1   
    14    7   49 1   
    15    7   50 1   
    16    8    9 1   
    17    9   10 1   
    18    9   43 2   
    19   10   11 1   
    20   10   51 1   
    21   10   94 1   
    22   11   12 1   
    23   11   36 1   
    24   11   52 1   
    25   12   13 1   
    26   12   35 2   
    27   13   14 1   
    28   13   53 1   
    29   13   95 1   
    30   14   15 1   
    31   14   28 1   
    32   14   54 1   
    33   15   16 1   
    34   15   27 2   
    35   16   17 1   
    36   16   55 1   
    37   16   96 1   
    38   17   18 1   
    39   17   20 1   
    40   17   56 1   
    41   18   19 1   
    42   18   57 1   
    43   18   58 1   
    44   19   59 1   
    45   20   21 1   
    46   20   60 1   
    47   20   61 1   
    48   21   22 1   
    49   21   25 1   
    50   21   62 1   
    51   22   23 1   
    52   22   63 1   
    53   22   64 1   
    54   23   24 1   
    55   23   65 1   
    56   23   66 1   
    57   24   25 1   
    58   24   67 1   
    59   25   26 2   
    60   28   29 1   
    61   28   68 1   
    62   28   69 1   
    63   29   30 1   
    64   29   34 1   
    65   29   70 1   
    66   30   31 1   
    67   30   71 1   
    68   30   72 1   
    69   31   32 1   
    70   31   73 1   
    71   31   74 1   
    72   32   33 1   
    73   32   75 1   
    74   32   76 1   
    75   33   34 1   
    76   33   77 1   
    77   33   78 1   
    78   34   79 1   
    79   34   80 1   
    80   36   37 1   
    81   36   38 1   
    82   36   81 1   
    83   37   82 1   
    84   37   83 1   
    85   37   84 1   
    86   38   39 1   
    87   39   40 1   
    88   39   41 1   
    89   39   42 1   
    90   40   85 1   
    91   40   86 1   
    92   40   87 1   
    93   41   88 1   
    94   41   89 1   
    95   41   90 1   
    96   42   91 1   
    97   42   92 1   
    98   42   93 1   
@<TRIPOS>SUBSTRUCTURE
     1 NOL         1 TEMP              0 ****  ****    0 ROOT
