@<TRIPOS>MOLECULE
NOL
   93    95     1     0     0
SMALL
bcc


@<TRIPOS>ATOM
      1 C1         -7.8860   -1.1480    1.4900 ca        1 NOL     -0.112000
      2 C2         -7.0180   -0.0880    1.2000 ca        1 NOL     -0.095300
      3 C3         -7.0660    1.0780    1.9690 ca        1 NOL     -0.112000
      4 C4         -7.9780    1.1850    3.0190 ca        1 NOL     -0.131500
      5 C5         -8.8460    0.1310    3.3020 ca        1 NOL     -0.125000
      6 C6         -8.7990   -1.0340    2.5360 ca        1 NOL     -0.131500
      7 C13        -6.0830   -0.2230    0.0460 c3        1 NOL      0.196700
      8 O15        -4.9070    0.5580    0.3410 os        1 NOL     -0.432900
      9 C17        -3.9460    0.5450   -0.6480 c         1 NOL      0.731100
     10 N19        -2.9000    1.4190   -0.3940 n         1 NOL     -0.488900
     11 C21        -1.6730    1.2630   -1.1330 c3        1 NOL      0.026700
     12 C23        -0.7050    0.2420   -0.4800 c         1 NOL      0.629100
     13 N25         0.1900   -0.3800   -1.3320 n         1 NOL     -0.545900
     14 C27         1.2710   -1.1960   -0.8400 c3        1 NOL      0.033700
     15 C29         2.6440   -0.5140   -1.0990 c         1 NOL      0.632100
     16 N31         3.6910   -0.9120   -0.3030 n         1 NOL     -0.550900
     17 C33         5.0470   -0.4600   -0.5110 c3        1 NOL      0.101700
     18 C35         5.9500   -1.5690   -1.1030 c3        1 NOL      0.107400
     19 O39         5.9640   -2.6550   -0.1930 oh        1 NOL     -0.604800
     20 C41         5.7040    0.0610    0.7780 c3        1 NOL     -0.077400
     21 C43         5.0630    1.3310    1.2880 c3        1 NOL     -0.138700
     22 C45         5.3320    2.5610    0.4100 c3        1 NOL     -0.095400
     23 C47         5.9860    3.6120    1.3360 c3        1 NOL      0.093000
     24 N49         6.1460    2.9860    2.6260 n         1 NOL     -0.590900
     25 C51         5.6360    1.6980    2.6650 c         1 NOL      0.696500
     26 O54         5.6490    0.9740    3.6710 o         1 NOL     -0.627500
     27 O56         2.7800    0.3690   -1.9730 o         1 NOL     -0.635100
     28 C58         1.3320   -2.5880   -1.4880 c3        1 NOL     -0.081400
     29 C60         0.0620   -3.4050   -1.3130 c3        1 NOL     -0.061700
     30 C62         0.2340   -4.7430   -2.0240 c3        1 NOL     -0.077400
     31 C63        -0.9950   -5.6130   -1.8650 c3        1 NOL     -0.075400
     32 C64        -1.3280   -5.8280   -0.4030 c3        1 NOL     -0.077400
     33 C65        -1.4970   -4.5050    0.3150 c3        1 NOL     -0.075400
     34 C66        -0.2770   -3.6220    0.1540 c3        1 NOL     -0.077400
     35 O73        -0.7520   -0.0360    0.7330 o         1 NOL     -0.600100
     36 C75        -0.9070    2.6100   -1.3070 c3        1 NOL      0.145100
     37 C77        -1.6630    3.5190   -2.2610 c3        1 NOL     -0.113100
     38 O79        -0.8100    3.2500   -0.0390 os        1 NOL     -0.420600
     39 C81         0.4890    3.7460    0.3360 c3        1 NOL      0.156800
     40 C83         1.0040    4.7640   -0.6710 c3        1 NOL     -0.115433
     41 C85         0.2330    4.4230    1.6820 c3        1 NOL     -0.115433
     42 C87         1.4800    2.6040    0.5080 c3        1 NOL     -0.115433
     43 O89        -4.1320   -0.1530   -1.6600 o         1 NOL     -0.592000
     44 H1         -7.8460   -2.0700    0.8920 ha        1 NOL      0.139500
     45 H3         -6.3750    1.9050    1.7460 ha        1 NOL      0.139500
     46 H4         -8.0100    2.1020    3.6240 ha        1 NOL      0.132500
     47 H5         -9.5660    0.2170    4.1290 ha        1 NOL      0.131000
     48 H6         -9.4820   -1.8670    2.7600 ha        1 NOL      0.132500
     49 H131       -6.5480    0.1730   -0.8970 h1        1 NOL      0.064200
     50 H132       -5.7710   -1.2890   -0.1160 h1        1 NOL      0.064200
     51 HN19       -2.8000    1.7530    0.5430 hn        1 NOL      0.341500
     52 H21        -1.9460    0.8950   -2.1700 h1        1 NOL      0.103700
     53 HN25        0.2950   -0.0350   -2.2590 hn        1 NOL      0.322500
     54 H27         1.1300   -1.3210    0.2790 h1        1 NOL      0.108700
     55 HN31        3.5750   -1.6780    0.3200 hn        1 NOL      0.327500
     56 H33         5.0210    0.3810   -1.2700 h1        1 NOL      0.088700
     57 H351        5.5530   -1.9070   -2.0970 h1        1 NOL      0.033200
     58 H352        6.9870   -1.1620   -1.2400 h1        1 NOL      0.033200
     59 HO39        6.5640   -3.3160   -0.5590 ho        1 NOL      0.407000
     60 H411        5.6550   -0.7270    1.5770 hc        1 NOL      0.069700
     61 H412        6.7880    0.2480    0.5580 hc        1 NOL      0.069700
     62 H43         3.9560    1.1830    1.4150 hc        1 NOL      0.091700
     63 H451        6.0180    2.3140   -0.4360 hc        1 NOL      0.060200
     64 H452        4.3790    2.9560   -0.0190 hc        1 NOL      0.060200
     65 H471        6.9860    3.9320    0.9340 h1        1 NOL      0.040200
     66 H472        5.3370    4.5260    1.4200 h1        1 NOL      0.040200
     67 HN49        6.5200    3.4610    3.4040 hn        1 NOL      0.332500
     68 H581        1.5470   -2.4790   -2.5840 hc        1 NOL      0.050700
     69 H582        2.1910   -3.1430   -1.0250 hc        1 NOL      0.050700
     70 H60        -0.7980   -2.8600   -1.7970 hc        1 NOL      0.063700
     71 H621        0.4290   -4.5650   -3.1140 hc        1 NOL      0.042200
     72 H622        1.1270   -5.2760   -1.6030 hc        1 NOL      0.042200
     73 H631       -1.8660   -5.1290   -2.3800 hc        1 NOL      0.041950
     74 H632       -0.8180   -6.6030   -2.3610 hc        1 NOL      0.041950
     75 H641       -2.2720   -6.4260   -0.3160 hc        1 NOL      0.038200
     76 H642       -0.5080   -6.4180    0.0850 hc        1 NOL      0.038200
     77 H651       -2.3970   -3.9730   -0.0920 hc        1 NOL      0.041950
     78 H652       -1.6790   -4.6900    1.4060 hc        1 NOL      0.041950
     79 H661        0.5990   -4.0900    0.6750 hc        1 NOL      0.042200
     80 H662       -0.4790   -2.6310    0.6440 hc        1 NOL      0.042200
     81 H75         0.1090    2.3710   -1.7280 h1        1 NOL      0.058700
     82 H771       -1.0680    4.4470   -2.4410 hc        1 NOL      0.049700
     83 H772       -1.8330    3.0000   -3.2330 hc        1 NOL      0.049700
     84 H773       -2.6470    3.8120   -1.8250 hc        1 NOL      0.049700
     85 H831        0.2510    5.5770   -0.8120 hc        1 NOL      0.047589
     86 H832        1.9550    5.2110   -0.2960 hc        1 NOL      0.047589
     87 H833        1.2000    4.2840   -1.6590 hc        1 NOL      0.047589
     88 H851       -0.1170    3.6680    2.4260 hc        1 NOL      0.047589
     89 H852        1.1770    4.8910    2.0460 hc        1 NOL      0.047589
     90 H853       -0.5520    5.2070    1.5720 hc        1 NOL      0.047589
     91 H871        1.8620    2.2390   -0.4770 hc        1 NOL      0.047589
     92 H872        2.3520    2.9510    1.1140 hc        1 NOL      0.047589
     93 H873        0.9850    1.7530    1.0390 hc        1 NOL      0.047589
@<TRIPOS>BOND
     1    1    2 ar  
     2    1    6 ar  
     3    1   44 1   
     4    2    3 ar  
     5    2    7 1   
     6    3    4 ar  
     7    3   45 1   
     8    4    5 ar  
     9    4   46 1   
    10    5    6 ar  
    11    5   47 1   
    12    6   48 1   
    13    7    8 1   
    14    7   49 1   
    15    7   50 1   
    16    8    9 1   
    17    9   10 1   
    18    9   43 2   
    19   10   11 1   
    20   10   51 1   
    21   11   12 1   
    22   11   36 1   
    23   11   52 1   
    24   12   13 1   
    25   12   35 2   
    26   13   14 1   
    27   13   53 1   
    28   14   15 1   
    29   14   28 1   
    30   14   54 1   
    31   15   16 1   
    32   15   27 2   
    33   16   17 1   
    34   16   55 1   
    35   17   18 1   
    36   17   20 1   
    37   17   56 1   
    38   18   19 1   
    39   18   57 1   
    40   18   58 1   
    41   19   59 1   
    42   20   21 1   
    43   20   60 1   
    44   20   61 1   
    45   21   22 1   
    46   21   25 1   
    47   21   62 1   
    48   22   23 1   
    49   22   63 1   
    50   22   64 1   
    51   23   24 1   
    52   23   65 1   
    53   23   66 1   
    54   24   25 1   
    55   24   67 1   
    56   25   26 2   
    57   28   29 1   
    58   28   68 1   
    59   28   69 1   
    60   29   30 1   
    61   29   34 1   
    62   29   70 1   
    63   30   31 1   
    64   30   71 1   
    65   30   72 1   
    66   31   32 1   
    67   31   73 1   
    68   31   74 1   
    69   32   33 1   
    70   32   75 1   
    71   32   76 1   
    72   33   34 1   
    73   33   77 1   
    74   33   78 1   
    75   34   79 1   
    76   34   80 1   
    77   36   37 1   
    78   36   38 1   
    79   36   81 1   
    80   37   82 1   
    81   37   83 1   
    82   37   84 1   
    83   38   39 1   
    84   39   40 1   
    85   39   41 1   
    86   39   42 1   
    87   40   85 1   
    88   40   86 1   
    89   40   87 1   
    90   41   88 1   
    91   41   89 1   
    92   41   90 1   
    93   42   91 1   
    94   42   92 1   
    95   42   93 1   
@<TRIPOS>SUBSTRUCTURE
     1 NOL         1 TEMP              0 ****  ****    0 ROOT
