@<TRIPOS>MOLECULE
NOL
   96    98     1     0     0
SMALL
bcc


@<TRIPOS>ATOM
      1 C1         -0.5690   -2.7570   -0.3080 ca        1 NOL     -0.083000
      2 C2          0.5740   -2.1330    0.2190 ca        1 NOL     -0.211300
      3 C3          1.0280   -2.4850    1.5000 ca        1 NOL     -0.083000
      4 C4          0.3460   -3.4460    2.2430 ca        1 NOL     -0.129500
      5 C5         -0.7940   -4.0580    1.7170 ca        1 NOL     -0.059000
      6 C6         -1.2480   -3.7130    0.4410 ca        1 NOL     -0.129500
      7 C13         1.2350   -1.0510   -0.5230 c3        1 NOL      0.237700
      8 O15         2.5220   -1.5560   -1.1230 os        1 NOL     -0.397900
      9 C17         2.4820   -2.1050   -2.3220 c         1 NOL      0.646100
     10 N19         3.8540   -2.7230   -2.6390 n4        1 NOL     -0.667800
     11 C21         4.1470   -2.7440   -4.1050 c3        1 NOL      0.063500
     12 C23         3.7510   -4.1060   -4.7020 c         1 NOL      0.557100
     13 N25         4.1840   -4.3510   -6.1220 n4        1 NOL     -0.665800
     14 C27         3.3450   -5.3630   -6.8690 c3        1 NOL      0.050500
     15 C29         4.2500   -6.3910   -7.5780 c         1 NOL      0.531100
     16 N31         3.6090   -7.6340   -8.0270 n4        1 NOL     -0.690800
     17 C33         4.1020   -8.1480   -9.3640 c3        1 NOL      0.111500
     18 C35         3.5460   -7.2790  -10.5200 c3        1 NOL      0.106400
     19 O39         2.1950   -6.9560  -10.2590 oh        1 NOL     -0.645800
     20 C41         3.7090   -9.6190   -9.5570 c3        1 NOL     -0.097400
     21 C43         4.4870  -10.5940   -8.6980 c3        1 NOL     -0.162700
     22 C45         4.5190  -12.0080   -9.3100 c3        1 NOL     -0.096400
     23 C47         4.0850  -12.9690   -8.1800 c3        1 NOL      0.069000
     24 N49         3.6820  -12.1310   -7.0610 n         1 NOL     -0.488900
     25 C51         3.8740  -10.8120   -7.3040 c         1 NOL      0.692500
     26 O54         3.6020   -9.8790   -6.4920 o         1 NOL     -0.739500
     27 O56         5.4550   -6.2150   -7.7380 o         1 NOL     -0.430100
     28 C58         2.4380   -4.6820   -7.9050 c3        1 NOL     -0.124400
     29 C60         1.4300   -3.7230   -7.2880 c3        1 NOL     -0.069700
     30 C62         0.6900   -2.9950   -8.4090 c3        1 NOL     -0.078900
     31 C63        -0.3150   -2.0140   -7.8390 c3        1 NOL     -0.078900
     32 C64        -1.2910   -2.6990   -6.9050 c3        1 NOL     -0.087400
     33 C65        -0.5730   -3.4580   -5.8100 c3        1 NOL     -0.078900
     34 C66         0.4340   -4.4360   -6.3840 c3        1 NOL     -0.078900
     35 O73         3.1550   -4.9950   -4.1170 o         1 NOL     -0.387100
     36 C75         5.6450   -2.4250   -4.4540 c3        1 NOL      0.151100
     37 C77         6.2510   -1.3680   -3.5590 c3        1 NOL     -0.165100
     38 O79         6.2710   -3.6920   -4.3890 os        1 NOL     -0.520600
     39 C81         7.6680   -3.8200   -4.8090 c3        1 NOL      0.164800
     40 C83         8.5870   -3.4510   -3.6590 c3        1 NOL     -0.121433
     41 C85         7.7790   -5.3110   -5.1200 c3        1 NOL     -0.121433
     42 C87         7.9540   -2.9960   -6.0500 c3        1 NOL     -0.121433
     43 O89         1.6020   -2.1500   -3.1670 o         1 NOL     -0.445000
     44 H1         -0.9450   -2.4690   -1.3020 ha        1 NOL      0.141500
     45 H3          1.9120   -1.9850    1.9270 ha        1 NOL      0.141500
     46 H4          0.6950   -3.7090    3.2550 ha        1 NOL      0.164500
     47 H5         -1.3440   -4.8040    2.3150 ha        1 NOL      0.169000
     48 H6         -2.1580   -4.1850    0.0370 ha        1 NOL      0.164500
     49 H131        1.6720   -0.2530    0.1420 h1        1 NOL      0.112700
     50 H132        0.6190   -0.6250   -1.3540 h1        1 NOL      0.112700
     51 HN19        4.5780   -2.1750   -2.1420 hn        1 NOL      0.493800
     52 H21         3.4950   -1.9480   -4.5940 hx        1 NOL      0.168700
     53 HN25        5.1850   -4.6590   -6.0690 hn        1 NOL      0.495300
     54 H27         2.7000   -5.9100   -6.1050 hx        1 NOL      0.169700
     55 HN31        2.5890   -7.5030   -8.1040 hn        1 NOL      0.507300
     56 H33         5.2310   -8.0570   -9.3610 hx        1 NOL      0.128700
     57 H351        3.6850   -7.8240  -11.4900 h1        1 NOL      0.091200
     58 H352        4.1110   -6.3060  -10.5630 h1        1 NOL      0.091200
     59 HO39        1.6460   -7.2990  -10.9780 ho        1 NOL      0.466000
     60 H411        2.6050   -9.7550   -9.4100 hc        1 NOL      0.102200
     61 H412        3.9310   -9.8580  -10.6380 hc        1 NOL      0.102200
     62 H43         5.5390  -10.2270   -8.5490 hc        1 NOL      0.095700
     63 H451        5.5480  -12.2630   -9.6660 hc        1 NOL      0.089700
     64 H452        3.8200  -12.0960  -10.1780 hc        1 NOL      0.089700
     65 H471        4.9340  -13.6390   -7.8690 h1        1 NOL      0.094200
     66 H472        3.2210  -13.6140   -8.5010 h1        1 NOL      0.094200
     67 HN49        3.3400  -12.5070   -6.2070 hn        1 NOL      0.372500
     68 H581        3.0630   -4.1370   -8.6640 hc        1 NOL      0.106700
     69 H582        1.8720   -5.4810   -8.4650 hc        1 NOL      0.106700
     70 H60         1.9730   -2.9460   -6.6780 hc        1 NOL      0.010700
     71 H621        0.1590   -3.7450   -9.0520 hc        1 NOL      0.048450
     72 H622        1.4250   -2.4490   -9.0550 hc        1 NOL      0.048450
     73 H631       -0.8780   -1.5360   -8.6840 hc        1 NOL      0.059450
     74 H632        0.2230   -1.1960   -7.2920 hc        1 NOL      0.059450
     75 H641       -1.9380   -3.4050   -7.4900 hc        1 NOL      0.072200
     76 H642       -1.9690   -1.9310   -6.4450 hc        1 NOL      0.072200
     77 H651       -0.0480   -2.7370   -5.1270 hc        1 NOL      0.059450
     78 H652       -1.3210   -4.0220   -5.1930 hc        1 NOL      0.059450
     79 H661       -0.1080   -5.2240   -6.9710 hc        1 NOL      0.048450
     80 H662        0.9750   -4.9450   -5.5410 hc        1 NOL      0.048450
     81 H75         5.6450   -2.0460   -5.5200 h1        1 NOL      0.069700
     82 H771        5.5340   -0.5310   -3.3760 hc        1 NOL      0.091367
     83 H772        6.6100   -1.7990   -2.5910 hc        1 NOL      0.091367
     84 H773        7.1480   -0.9230   -4.0680 hc        1 NOL      0.091367
     85 H831        9.6050   -3.8760   -3.8470 hc        1 NOL      0.064811
     86 H832        8.6890   -2.3440   -3.5560 hc        1 NOL      0.064811
     87 H833        8.1990   -3.8730   -2.7010 hc        1 NOL      0.064811
     88 H851        7.1030   -5.5910   -5.9640 hc        1 NOL      0.064811
     89 H852        8.8330   -5.5430   -5.4130 hc        1 NOL      0.064811
     90 H853        7.5170   -5.9180   -4.2200 hc        1 NOL      0.064811
     91 H871        8.9770   -3.2510   -6.4290 hc        1 NOL      0.064811
     92 H872        7.9380   -1.9010   -5.8310 hc        1 NOL      0.064811
     93 H873        7.2140   -3.2220   -6.8550 hc        1 NOL      0.064811
     94 H192        3.8630   -3.6780   -2.2470 hn        1 NOL      0.493800
     95 H252        4.1580   -3.4610   -6.6410 hn        1 NOL      0.495300
     96 H312        3.7910   -8.4060   -7.2920 hn        1 NOL      0.507300
@<TRIPOS>BOND
     1    1    2 ar  
     2    1    6 ar  
     3    1   44 1   
     4    2    3 ar  
     5    2    7 1   
     6    3    4 ar  
     7    3   45 1   
     8    4    5 ar  
     9    4   46 1   
    10    5    6 ar  
    11    5   47 1   
    12    6   48 1   
    13    7    8 1   
    14    7   49 1   
    15    7   50 1   
    16    8    9 1   
    17    9   10 1   
    18    9   43 2   
    19   10   11 1   
    20   10   51 1   
    21   10   94 1   
    22   11   12 1   
    23   11   36 1   
    24   11   52 1   
    25   12   13 1   
    26   12   35 2   
    27   13   14 1   
    28   13   53 1   
    29   13   95 1   
    30   14   15 1   
    31   14   28 1   
    32   14   54 1   
    33   15   16 1   
    34   15   27 2   
    35   16   17 1   
    36   16   55 1   
    37   16   96 1   
    38   17   18 1   
    39   17   20 1   
    40   17   56 1   
    41   18   19 1   
    42   18   57 1   
    43   18   58 1   
    44   19   59 1   
    45   20   21 1   
    46   20   60 1   
    47   20   61 1   
    48   21   22 1   
    49   21   25 1   
    50   21   62 1   
    51   22   23 1   
    52   22   63 1   
    53   22   64 1   
    54   23   24 1   
    55   23   65 1   
    56   23   66 1   
    57   24   25 1   
    58   24   67 1   
    59   25   26 2   
    60   28   29 1   
    61   28   68 1   
    62   28   69 1   
    63   29   30 1   
    64   29   34 1   
    65   29   70 1   
    66   30   31 1   
    67   30   71 1   
    68   30   72 1   
    69   31   32 1   
    70   31   73 1   
    71   31   74 1   
    72   32   33 1   
    73   32   75 1   
    74   32   76 1   
    75   33   34 1   
    76   33   77 1   
    77   33   78 1   
    78   34   79 1   
    79   34   80 1   
    80   36   37 1   
    81   36   38 1   
    82   36   81 1   
    83   37   82 1   
    84   37   83 1   
    85   37   84 1   
    86   38   39 1   
    87   39   40 1   
    88   39   41 1   
    89   39   42 1   
    90   40   85 1   
    91   40   86 1   
    92   40   87 1   
    93   41   88 1   
    94   41   89 1   
    95   41   90 1   
    96   42   91 1   
    97   42   92 1   
    98   42   93 1   
@<TRIPOS>SUBSTRUCTURE
     1 NOL         1 TEMP              0 ****  ****    0 ROOT
