@<TRIPOS>MOLECULE
NOL
   96    98     1     0     0
SMALL
bcc


@<TRIPOS>ATOM
      1 C1          0.3720   -1.8020    0.7640 ca        1 NOL     -0.068000
      2 C2          0.7250   -1.0520   -0.3720 ca        1 NOL     -0.193300
      3 C3          0.9500    0.3320   -0.2500 ca        1 NOL     -0.068000
      4 C4          0.8010    0.9540    0.9850 ca        1 NOL     -0.130000
      5 C5          0.4390    0.2040    2.1090 ca        1 NOL     -0.039000
      6 C6          0.2260   -1.1730    1.9960 ca        1 NOL     -0.130000
      7 C13         0.8050   -1.6960   -1.6820 c3        1 NOL      0.257700
      8 O15         2.2630   -2.1820   -1.7450 os        1 NOL     -0.383900
      9 C17         2.7070   -2.6700   -2.8730 c         1 NOL      0.654100
     10 N19         4.1530   -3.1180   -2.7630 n4        1 NOL     -0.652800
     11 C21         4.8080   -3.2620   -4.1010 c3        1 NOL      0.048500
     12 C23         4.1190   -4.3670   -4.9100 c         1 NOL      0.530100
     13 N25         3.5230   -3.9390   -6.2280 n4        1 NOL     -0.676800
     14 C27         2.9100   -5.0410   -7.0610 c3        1 NOL      0.050500
     15 C29         3.9250   -5.5780   -8.0860 c         1 NOL      0.532100
     16 N31         3.6320   -6.8880   -8.6850 n4        1 NOL     -0.689800
     17 C33         4.0040   -7.0100  -10.1480 c3        1 NOL      0.112500
     18 C35         3.0130   -6.2100  -11.0300 c3        1 NOL      0.106400
     19 O39         1.6970   -6.4160  -10.5570 oh        1 NOL     -0.645800
     20 C41         4.0410   -8.4820  -10.5770 c3        1 NOL     -0.097400
     21 C43         5.2340   -9.2570  -10.0590 c3        1 NOL     -0.161700
     22 C45         5.5550  -10.4810  -10.9380 c3        1 NOL     -0.096400
     23 C47         5.6660  -11.6820   -9.9720 c3        1 NOL      0.069000
     24 N49         5.2820  -11.1870   -8.6580 n         1 NOL     -0.490900
     25 C51         5.0230   -9.8570   -8.6580 c         1 NOL      0.692500
     26 O54         4.6720   -9.1890   -7.6410 o         1 NOL     -0.743500
     27 O56         4.9480   -4.9680   -8.3890 o         1 NOL     -0.436100
     28 C58         1.6620   -4.5300   -7.8040 c3        1 NOL     -0.125400
     29 C60         0.4620   -4.3560   -6.8810 c3        1 NOL     -0.077700
     30 C62        -0.5880   -3.5050   -7.5920 c3        1 NOL     -0.076900
     31 C63        -1.8120   -3.3170   -6.7190 c3        1 NOL     -0.077400
     32 C64        -2.3980   -4.6450   -6.2900 c3        1 NOL     -0.087400
     33 C65        -1.3590   -5.5110   -5.6080 c3        1 NOL     -0.077400
     34 C66        -0.1370   -5.6990   -6.4870 c3        1 NOL     -0.076900
     35 O73         4.0090   -5.5330   -4.5760 o         1 NOL     -0.361100
     36 C75         6.3490   -3.5980   -3.9380 c3        1 NOL      0.167100
     37 C77         7.0770   -2.3070   -3.6130 c3        1 NOL     -0.150100
     38 O79         6.4390   -4.5170   -2.8770 os        1 NOL     -0.475600
     39 C81         7.4310   -5.5880   -2.9830 c3        1 NOL      0.169800
     40 C83         8.8210   -5.0180   -3.1880 c3        1 NOL     -0.121767
     41 C85         7.3200   -6.2750   -1.6250 c3        1 NOL     -0.121767
     42 C87         7.0500   -6.5380   -4.1040 c3        1 NOL     -0.121767
     43 O89         2.1400   -2.8000   -3.9610 o         1 NOL     -0.564000
     44 H1          0.1950   -2.8850    0.6760 ha        1 NOL      0.138500
     45 H3          1.2240    0.9270   -1.1340 ha        1 NOL      0.138500
     46 H4          0.9600    2.0410    1.0780 ha        1 NOL      0.170000
     47 H5          0.3160    0.7020    3.0870 ha        1 NOL      0.174000
     48 H6         -0.0650   -1.7590    2.8830 ha        1 NOL      0.170000
     49 H131        0.6860   -1.0090   -2.5550 h1        1 NOL      0.089200
     50 H132        0.2010   -2.6310   -1.7840 h1        1 NOL      0.089200
     51 HN19        4.6940   -2.4300   -2.2070 hn        1 NOL      0.507300
     52 H21         4.7270   -2.2610   -4.6240 hx        1 NOL      0.135700
     53 HN25        2.7600   -3.2640   -6.0040 hn        1 NOL      0.497800
     54 H27         2.6030   -5.8760   -6.3510 hx        1 NOL      0.167700
     55 HN31        4.1780   -7.6470   -8.1470 hn        1 NOL      0.507300
     56 H33         5.0340   -6.5540  -10.2690 hx        1 NOL      0.128700
     57 H351        3.2280   -5.1090  -10.9350 h1        1 NOL      0.091200
     58 H352        3.1440   -6.5160  -12.1010 h1        1 NOL      0.091200
     59 HO39        1.1570   -6.7780  -11.2740 ho        1 NOL      0.467000
     60 H411        4.0990   -8.4760  -11.7040 hc        1 NOL      0.102700
     61 H412        3.0830   -8.9980  -10.3020 hc        1 NOL      0.102700
     62 H43         6.1370   -8.5880  -10.0050 hc        1 NOL      0.094700
     63 H451        6.5160  -10.3340  -11.4890 hc        1 NOL      0.089700
     64 H452        4.7490  -10.6690  -11.6900 hc        1 NOL      0.089700
     65 H471        6.7180  -12.0790   -9.9370 h1        1 NOL      0.094200
     66 H472        4.9780  -12.5180  -10.2770 h1        1 NOL      0.094200
     67 HN49        5.2500  -11.7720   -7.8560 hn        1 NOL      0.370500
     68 H581        1.8910   -3.5600   -8.3260 hc        1 NOL      0.106200
     69 H582        1.3870   -5.2690   -8.6100 hc        1 NOL      0.106200
     70 H60         0.7690   -3.8130   -5.9410 hc        1 NOL      0.037700
     71 H621       -0.1530   -2.5040   -7.8500 hc        1 NOL      0.046200
     72 H622       -0.8850   -4.0060   -8.5510 hc        1 NOL      0.046200
     73 H631       -1.5400   -2.7120   -5.8150 hc        1 NOL      0.058200
     74 H632       -2.5830   -2.7350   -7.2920 hc        1 NOL      0.058200
     75 H641       -3.2550   -4.4670   -5.5870 hc        1 NOL      0.070700
     76 H642       -2.8090   -5.1830   -7.1840 hc        1 NOL      0.070700
     77 H651       -1.0540   -5.0420   -4.6370 hc        1 NOL      0.058200
     78 H652       -1.8020   -6.5150   -5.3730 hc        1 NOL      0.058200
     79 H661       -0.4340   -6.2620   -7.4120 hc        1 NOL      0.046200
     80 H662        0.6220   -6.3160   -5.9390 hc        1 NOL      0.046200
     81 H75         6.7060   -4.0320   -4.9110 h1        1 NOL      0.082700
     82 H771        8.1810   -2.5060   -3.6090 hc        1 NOL      0.083033
     83 H772        6.8680   -1.5200   -4.3760 hc        1 NOL      0.083033
     84 H773        6.8100   -1.9290   -2.5970 hc        1 NOL      0.083033
     85 H831        9.0570   -4.2660   -2.3960 hc        1 NOL      0.063478
     86 H832        9.5720   -5.8450   -3.1210 hc        1 NOL      0.063478
     87 H833        8.9160   -4.5390   -4.1920 hc        1 NOL      0.063478
     88 H851        7.5170   -5.5460   -0.8030 hc        1 NOL      0.063478
     89 H852        6.3030   -6.7130   -1.4890 hc        1 NOL      0.063478
     90 H853        8.0800   -7.0930   -1.5720 hc        1 NOL      0.063478
     91 H871        7.2740   -6.0980   -5.1050 hc        1 NOL      0.063478
     92 H872        7.6440   -7.4800   -3.9990 hc        1 NOL      0.063478
     93 H873        5.9650   -6.7960   -4.0480 hc        1 NOL      0.063478
     94 H192        4.2080   -4.0200   -2.2540 hn        1 NOL      0.507300
     95 H252        4.2420   -3.4500   -6.7840 hn        1 NOL      0.497800
     96 H312        2.6260   -7.1000   -8.6030 hn        1 NOL      0.507300
@<TRIPOS>BOND
     1    1    2 ar  
     2    1    6 ar  
     3    1   44 1   
     4    2    3 ar  
     5    2    7 1   
     6    3    4 ar  
     7    3   45 1   
     8    4    5 ar  
     9    4   46 1   
    10    5    6 ar  
    11    5   47 1   
    12    6   48 1   
    13    7    8 1   
    14    7   49 1   
    15    7   50 1   
    16    8    9 1   
    17    9   10 1   
    18    9   43 2   
    19   10   11 1   
    20   10   51 1   
    21   10   94 1   
    22   11   12 1   
    23   11   36 1   
    24   11   52 1   
    25   12   13 1   
    26   12   35 2   
    27   13   14 1   
    28   13   53 1   
    29   13   95 1   
    30   14   15 1   
    31   14   28 1   
    32   14   54 1   
    33   15   16 1   
    34   15   27 2   
    35   16   17 1   
    36   16   55 1   
    37   16   96 1   
    38   17   18 1   
    39   17   20 1   
    40   17   56 1   
    41   18   19 1   
    42   18   57 1   
    43   18   58 1   
    44   19   59 1   
    45   20   21 1   
    46   20   60 1   
    47   20   61 1   
    48   21   22 1   
    49   21   25 1   
    50   21   62 1   
    51   22   23 1   
    52   22   63 1   
    53   22   64 1   
    54   23   24 1   
    55   23   65 1   
    56   23   66 1   
    57   24   25 1   
    58   24   67 1   
    59   25   26 2   
    60   28   29 1   
    61   28   68 1   
    62   28   69 1   
    63   29   30 1   
    64   29   34 1   
    65   29   70 1   
    66   30   31 1   
    67   30   71 1   
    68   30   72 1   
    69   31   32 1   
    70   31   73 1   
    71   31   74 1   
    72   32   33 1   
    73   32   75 1   
    74   32   76 1   
    75   33   34 1   
    76   33   77 1   
    77   33   78 1   
    78   34   79 1   
    79   34   80 1   
    80   36   37 1   
    81   36   38 1   
    82   36   81 1   
    83   37   82 1   
    84   37   83 1   
    85   37   84 1   
    86   38   39 1   
    87   39   40 1   
    88   39   41 1   
    89   39   42 1   
    90   40   85 1   
    91   40   86 1   
    92   40   87 1   
    93   41   88 1   
    94   41   89 1   
    95   41   90 1   
    96   42   91 1   
    97   42   92 1   
    98   42   93 1   
@<TRIPOS>SUBSTRUCTURE
     1 NOL         1 TEMP              0 ****  ****    0 ROOT
