@<TRIPOS>MOLECULE
NOM
   34    37     1     0     0
SMALL
bcc


@<TRIPOS>ATOM
      1 C1          0.1360    0.2540    0.0580 ca        1 NOM     -0.072000
      2 C2          1.5130    0.0090    0.0620 ca        1 NOM     -0.119000
      3 C3          2.1800   -0.2020    1.2680 ca        1 NOM     -0.098600
      4 C4          1.4820   -0.1890    2.4900 ca        1 NOM     -0.172600
      5 C5          0.0980    0.0650    2.4670 ca        1 NOM      0.174100
      6 C6         -0.5740    0.2880    1.2480 ca        1 NOM     -0.204000
      7 C10         3.6430   -0.4510    1.2540 c         1 NOM      0.577900
      8 C9          4.3250   -0.2090    2.5420 cc        1 NOM     -0.130400
      9 C8          3.6570   -0.1870    3.7210 cd        1 NOM     -0.158400
     10 C7          2.1930   -0.4540    3.7550 c         1 NOM      0.585900
     11 O3          1.6390   -0.8870    4.7690 o         1 NOM     -0.486100
     12 O4          4.2360   -0.8360    0.2440 o         1 NOM     -0.470100
     13 O2         -0.5540    0.1090    3.6710 oh        1 NOM     -0.467100
     14 C13         5.8000   -0.0720    2.6350 c3        1 NOM      0.131300
     15 C14         6.0910    0.9270    3.7940 c3        1 NOM      0.101100
     16 O1          5.7430    0.2880    5.0050 os        1 NOM     -0.391600
     17 C11         4.3150    0.0570    5.0570 c3        1 NOM      0.177300
     18 C12         3.6650    1.2230    5.7840 c3        1 NOM     -0.118100
     19 C15         7.5620    1.2500    3.5620 c3        1 NOM     -0.160400
     20 C16         7.6490    1.1200    2.0520 c         1 NOM      0.708600
     21 O5          8.4790    1.5010    1.2420 o         1 NOM     -0.543500
     22 O6          6.5420    0.4490    1.5190 os        1 NOM     -0.382900
     23 HC1        -0.3850    0.4210   -0.8980 ha        1 NOM      0.147000
     24 HC2         2.0800   -0.0250   -0.8830 ha        1 NOM      0.165000
     25 HC6        -1.6560    0.4830    1.2510 ha        1 NOM      0.144000
     26 HO2        -1.5000    0.2380    3.4990 ho        1 NOM      0.425000
     27 HC13        6.2300   -1.0920    2.8630 h1        1 NOM      0.092700
     28 HC14        5.4790    1.8640    3.6720 h1        1 NOM      0.066700
     29 HC11        4.2320   -0.8850    5.6760 h1        1 NOM      0.105700
     30 H121        3.7040    2.1510    5.1650 hc        1 NOM      0.056367
     31 H122        2.5990    0.9770    6.0120 hc        1 NOM      0.056367
     32 H123        4.2100    1.4110    6.7400 hc        1 NOM      0.056367
     33 H151        7.8340    2.2810    3.8900 hc        1 NOM      0.101200
     34 H152        8.2420    0.5160    4.0610 hc        1 NOM      0.101200
@<TRIPOS>BOND
     1    1    2 ar  
     2    1    6 ar  
     3    1   23 1   
     4    2    3 ar  
     5    2   24 1   
     6    3    4 ar  
     7    3    7 1   
     8    4    5 ar  
     9    4   10 1   
    10    5    6 ar  
    11    5   13 1   
    12    6   25 1   
    13    7    8 1   
    14    7   12 2   
    15    8    9 2   
    16    8   14 1   
    17    9   10 1   
    18    9   17 1   
    19   10   11 2   
    20   13   26 1   
    21   14   15 1   
    22   14   22 1   
    23   14   27 1   
    24   15   16 1   
    25   15   19 1   
    26   15   28 1   
    27   16   17 1   
    28   17   18 1   
    29   17   29 1   
    30   18   30 1   
    31   18   31 1   
    32   18   32 1   
    33   19   20 1   
    34   19   33 1   
    35   19   34 1   
    36   20   21 2   
    37   20   22 1   
@<TRIPOS>SUBSTRUCTURE
     1 NOM         1 TEMP              0 ****  ****    0 ROOT
