@<TRIPOS>MOLECULE
NOM
   34    33     1     0     0
SMALL
bcc


@<TRIPOS>ATOM
      1 C1         -3.7480   -0.0450   -2.9110 c1        1 NOM     -0.138000
      2 C2         -2.3470   -0.0450   -2.9110 c1        1 NOM     -0.119000
      3 C3         -1.6520   -0.0450   -1.7070 c1        1 NOM     -0.078000
      4 C4         -2.3680   -0.0450   -0.4690 c1        1 NOM     -0.152000
      5 C5         -3.7590   -0.0450   -0.4730 c1        1 NOM      0.129000
      6 C6         -4.4570   -0.0450   -1.6870 c1        1 NOM     -0.138000
      7 C10        -0.0920   -0.2000   -1.7110 c2        1 NOM      0.299000
      8 C9          0.6600   -0.2090   -0.4180 c2        1 NOM     -0.107000
      9 C8         -0.1010   -0.0510    0.9040 c1        1 NOM     -0.135000
     10 C7         -1.5890    0.0480    0.8910 c1        1 NOM      0.307000
     11 O3         -2.2010    0.1360    1.9360 o         1 NOM     -0.247000
     12 O4          0.5120   -0.2360   -2.7650 o         1 NOM     -0.231000
     13 O2         -4.6440   -0.3750    0.5700 oh        1 NOM     -0.221000
     14 C13         1.9960   -0.6620   -0.2950 c3        1 NOM      0.016000
     15 C14         2.9880   -0.0220    1.0740 c3        1 NOM     -0.010000
     16 O1          2.3510   -0.2900    2.1090 os        1 NOM     -0.248000
     17 C11         0.7910    0.3040    2.2070 c3        1 NOM      0.062000
     18 C12         0.7790    1.6770    2.4810 c3        1 NOM     -0.236000
     19 C15         4.1690   -0.4990    0.9580 c3        1 NOM     -0.189000
     20 C16         4.2450   -0.7280   -0.7320 c2        1 NOM      0.293000
     21 O5          5.2490   -0.6840   -1.4140 o         1 NOM     -0.268000
     22 O6          2.6670   -0.5580   -1.2850 os        1 NOM     -0.221000
     23 HC1        -4.2360   -0.0450   -3.7570 ha        1 NOM      0.145500
     24 HC2        -1.8590   -0.0450   -3.7570 ha        1 NOM      0.165000
     25 HC6        -5.4330   -0.0450   -1.6880 ha        1 NOM      0.145500
     26 HO2        -4.7530   -1.2550    0.5990 ho        1 NOM      0.224000
     27 HC13        1.9210   -1.6220   -0.1320 h1        1 NOM      0.132000
     28 HC14        3.0410    0.9490    0.9900 h1        1 NOM      0.106000
     29 HC11        0.3550   -0.0430    3.0090 h1        1 NOM      0.145000
     30 H121        1.4740    1.8840    3.1340 hc        1 NOM      0.095667
     31 H122       -0.0930    1.9290    2.8410 hc        1 NOM      0.095667
     32 H123        0.9460    2.1750    1.6580 hc        1 NOM      0.095667
     33 H151        4.3420   -1.3520    1.4000 hc        1 NOM      0.140500
     34 H152        4.8440    0.0880    1.3490 hc        1 NOM      0.140500
@<TRIPOS>BOND
     1    1    6 1   
     2    1   23 1   
     3    2    3 1   
     4    2   24 1   
     5    3    7 1   
     6    4    5 1   
     7    4   10 1   
     8    5   13 1   
     9    6   25 1   
    10    7    8 1   
    11    7   12 1   
    12    8    9 1   
    13    8   14 1   
    14    9   17 1   
    15   10   11 1   
    16   13   26 1   
    17   14   15 1   
    18   14   22 1   
    19   14   27 1   
    20   15   16 1   
    21   15   19 1   
    22   15   28 1   
    23   16   17 1   
    24   17   18 1   
    25   17   29 1   
    26   18   30 1   
    27   18   31 1   
    28   18   32 1   
    29   19   20 1   
    30   19   33 1   
    31   19   34 1   
    32   20   21 1   
    33   20   22 1   
@<TRIPOS>SUBSTRUCTURE
     1 NOM         1 TEMP              0 ****  ****    0 ROOT
