@<TRIPOS>MOLECULE
NOM
   34    37     1     0     0
SMALL
bcc


@<TRIPOS>ATOM
      1 C1          0.1310    0.2510    0.0560 ca        1 NOM     -0.072000
      2 C2          1.5080    0.0050    0.0600 ca        1 NOM     -0.119000
      3 C3          2.1770   -0.2050    1.2640 ca        1 NOM     -0.098600
      4 C4          1.4800   -0.1900    2.4870 ca        1 NOM     -0.172600
      5 C5          0.0950    0.0640    2.4660 ca        1 NOM      0.174100
      6 C6         -0.5770    0.2860    1.2480 ca        1 NOM     -0.204000
      7 C10         3.6390   -0.4540    1.2500 c         1 NOM      0.577900
      8 C9          4.3220   -0.2110    2.5370 cc        1 NOM     -0.130400
      9 C8          3.6550   -0.1880    3.7170 cd        1 NOM     -0.158400
     10 C7          2.1920   -0.4550    3.7520 c         1 NOM      0.585900
     11 O3          1.6380   -0.8870    4.7680 o         1 NOM     -0.486100
     12 O4          4.2310   -0.8400    0.2390 o         1 NOM     -0.470100
     13 O2         -0.5560    0.1100    3.6710 oh        1 NOM     -0.467100
     14 C13         5.7970   -0.0760    2.6290 c3        1 NOM      0.131300
     15 C14         6.0900    0.9240    3.7870 c3        1 NOM      0.101100
     16 O1          5.7430    0.2870    4.9980 os        1 NOM     -0.391600
     17 C11         4.3140    0.0570    5.0520 c3        1 NOM      0.177300
     18 C12         3.6660    1.2240    5.7780 c3        1 NOM     -0.118100
     19 C15         7.5610    1.2470    3.5530 c3        1 NOM     -0.160400
     20 C16         7.6470    1.1150    2.0430 c         1 NOM      0.708600
     21 O5          8.4760    1.4950    1.2320 o         1 NOM     -0.543500
     22 O6          6.5390    0.4450    1.5120 os        1 NOM     -0.382900
     23 HC1        -0.3900    0.4170   -0.9000 ha        1 NOM      0.147000
     24 HC2         2.0740   -0.0300   -0.8860 ha        1 NOM      0.165000
     25 HC6        -1.6600    0.4810    1.2500 ha        1 NOM      0.144000
     26 HO2        -1.5020    0.2390    3.4990 ho        1 NOM      0.425000
     27 HC13        6.2270   -1.0950    2.8570 h1        1 NOM      0.092700
     28 HC14        5.4780    1.8620    3.6640 h1        1 NOM      0.066700
     29 HC11        4.2310   -0.8850    5.6720 h1        1 NOM      0.105700
     30 H121        4.2120    1.4120    6.7340 hc        1 NOM      0.056367
     31 H122        2.6000    0.9790    6.0070 hc        1 NOM      0.056367
     32 H123        3.7050    2.1510    5.1590 hc        1 NOM      0.056367
     33 H151        7.8340    2.2780    3.8800 hc        1 NOM      0.101200
     34 H152        8.2410    0.5120    4.0510 hc        1 NOM      0.101200
@<TRIPOS>BOND
     1    1    2 ar  
     2    1    6 ar  
     3    1   23 1   
     4    2    3 ar  
     5    2   24 1   
     6    3    4 ar  
     7    3    7 1   
     8    4    5 ar  
     9    4   10 1   
    10    5    6 ar  
    11    5   13 1   
    12    6   25 1   
    13    7    8 1   
    14    7   12 2   
    15    8    9 2   
    16    8   14 1   
    17    9   10 1   
    18    9   17 1   
    19   10   11 2   
    20   13   26 1   
    21   14   15 1   
    22   14   22 1   
    23   14   27 1   
    24   15   16 1   
    25   15   19 1   
    26   15   28 1   
    27   16   17 1   
    28   17   18 1   
    29   17   29 1   
    30   18   30 1   
    31   18   31 1   
    32   18   32 1   
    33   19   20 1   
    34   19   33 1   
    35   19   34 1   
    36   20   21 2   
    37   20   22 1   
@<TRIPOS>SUBSTRUCTURE
     1 NOM         1 TEMP              0 ****  ****    0 ROOT
