@<TRIPOS>MOLECULE
NOM
   34    37     1     0     0
SMALL
bcc


@<TRIPOS>ATOM
      1 C1         -3.8310    2.1800    0.5320 ca        1 NOM     -0.076000
      2 C2         -2.4970    2.3330    0.1220 ca        1 NOM     -0.117000
      3 C3         -1.7260    1.2170   -0.1730 ca        1 NOM     -0.096600
      4 C4         -2.2650   -0.0870   -0.0750 ca        1 NOM     -0.237600
      5 C5         -3.6130   -0.2210    0.3060 ca        1 NOM      0.201100
      6 C6         -4.3910    0.9210    0.6240 ca        1 NOM     -0.152000
      7 C10        -0.3260    1.4180   -0.6170 c         1 NOM      0.572900
      8 C9          0.5450    0.2300   -0.5170 cc        1 NOM     -0.113400
      9 C8          0.0480   -1.0240   -0.3830 cd        1 NOM     -0.163400
     10 C7         -1.4190   -1.2520   -0.3740 c         1 NOM      0.597900
     11 O3         -1.8890   -2.3770   -0.6090 o         1 NOM     -0.551100
     12 O4          0.0770    2.5010   -1.0490 o         1 NOM     -0.467100
     13 O2         -4.2880   -1.4010    0.4280 oh        1 NOM     -0.495100
     14 C13         2.0190    0.3270   -0.6640 c3        1 NOM      0.129300
     15 C14         2.6430   -0.7720    0.2460 c3        1 NOM      0.101100
     16 O1          2.3330   -2.0240   -0.3300 os        1 NOM     -0.390600
     17 C11         0.9060   -2.2610   -0.2690 c3        1 NOM      0.178300
     18 C12         0.6020   -3.0270    1.0090 c3        1 NOM     -0.119100
     19 C15         4.1080   -0.3500    0.2800 c3        1 NOM     -0.160400
     20 C16         3.9750    1.1570    0.1530 c         1 NOM      0.708600
     21 O5          4.7530    2.0710    0.3740 o         1 NOM     -0.540500
     22 O6          2.6990    1.5360   -0.2830 os        1 NOM     -0.381900
     23 HC1        -4.4310    3.0710    0.7720 ha        1 NOM      0.149000
     24 HC2        -2.0570    3.3400    0.0260 ha        1 NOM      0.165000
     25 HC6        -5.4360    0.7740    0.9340 ha        1 NOM      0.162000
     26 HO2        -3.7390   -2.1430    0.1260 ho        1 NOM      0.458000
     27 HC13        2.2700    0.1420   -1.7500 h1        1 NOM      0.094700
     28 HC14        2.2150   -0.7160    1.2860 h1        1 NOM      0.067700
     29 HC11        0.7190   -2.9150   -1.1710 h1        1 NOM      0.105700
     30 H121        0.7140   -2.3710    1.9040 hc        1 NOM      0.056367
     31 H122       -0.4400   -3.4250    0.9720 hc        1 NOM      0.056367
     32 H123        1.3160   -3.8810    1.1030 hc        1 NOM      0.056367
     33 H151        4.6140   -0.6280    1.2340 hc        1 NOM      0.101700
     34 H152        4.6900   -0.7680   -0.5780 hc        1 NOM      0.101700
@<TRIPOS>BOND
     1    1    2 ar  
     2    1    6 ar  
     3    1   23 1   
     4    2    3 ar  
     5    2   24 1   
     6    3    4 ar  
     7    3    7 1   
     8    4    5 ar  
     9    4   10 1   
    10    5    6 ar  
    11    5   13 1   
    12    6   25 1   
    13    7    8 1   
    14    7   12 2   
    15    8    9 2   
    16    8   14 1   
    17    9   10 1   
    18    9   17 1   
    19   10   11 2   
    20   13   26 1   
    21   14   15 1   
    22   14   22 1   
    23   14   27 1   
    24   15   16 1   
    25   15   19 1   
    26   15   28 1   
    27   16   17 1   
    28   17   18 1   
    29   17   29 1   
    30   18   30 1   
    31   18   31 1   
    32   18   32 1   
    33   19   20 1   
    34   19   33 1   
    35   19   34 1   
    36   20   21 2   
    37   20   22 1   
@<TRIPOS>SUBSTRUCTURE
     1 NOM         1 TEMP              0 ****  ****    0 ROOT
