@<TRIPOS>MOLECULE
NON
   32    31     1     0     0
SMALL
bcc


@<TRIPOS>ATOM
      1 C1          0.1120    0.2520   -0.0330 c         1 NON      0.629100
      2 C2          1.6070    0.1840   -0.0160 c3        1 NON     -0.126400
      3 C3          2.1290    0.0270    1.3970 c3        1 NON     -0.079400
      4 C4          3.6400    0.0990    1.4210 c3        1 NON     -0.078400
      5 C5          4.1700   -0.0760    2.8290 c3        1 NON     -0.079400
      6 C6          5.6810   -0.0000    2.8580 c3        1 NON     -0.079400
      7 C7          6.2120   -0.1750    4.2650 c3        1 NON     -0.079400
      8 C8          7.7240   -0.1000    4.2970 c3        1 NON     -0.080400
      9 C9          8.2560   -0.2730    5.6960 c3        1 NON     -0.093100
     10 O1         -0.6550    0.7800    0.7740 o         1 NON     -0.541000
     11 O2         -0.4320   -0.3600   -1.1310 os        1 NON     -0.443900
     12 CM         -1.8540   -0.3240   -1.2490 c3        1 NON      0.125700
     13 H21         1.9900    1.1380   -0.4700 hc        1 NON      0.078200
     14 H22         1.9530   -0.6660   -0.6610 hc        1 NON      0.078200
     15 H31         1.6940    0.8320    2.0470 hc        1 NON      0.057700
     16 H32         1.7880   -0.9560    1.8160 hc        1 NON      0.057700
     17 H41         3.9780    1.0880    1.0130 hc        1 NON      0.041200
     18 H42         4.0670   -0.6980    0.7570 hc        1 NON      0.041200
     19 H51         3.7400    0.7180    3.4940 hc        1 NON      0.042700
     20 H52         3.8350   -1.0660    3.2370 hc        1 NON      0.042700
     21 H61         6.1120   -0.7950    2.1930 hc        1 NON      0.039700
     22 H62         6.0170    0.9900    2.4510 hc        1 NON      0.039700
     23 H71         5.8770   -1.1650    4.6730 hc        1 NON      0.040200
     24 H72         5.7820    0.6190    4.9310 hc        1 NON      0.040200
     25 H81         8.0570    0.8900    3.8870 hc        1 NON      0.038700
     26 H82         8.1520   -0.8940    3.6300 hc        1 NON      0.038700
     27 H91         7.9550   -1.2650    6.1130 hc        1 NON      0.032700
     28 H92         9.3710   -0.2140    5.6970 hc        1 NON      0.032700
     29 H93         7.8600    0.5240    6.3710 hc        1 NON      0.032700
     30 HM1        -2.2050    0.7340   -1.3050 h1        1 NON      0.050367
     31 HM2        -2.3220   -0.8360   -0.3730 h1        1 NON      0.050367
     32 HM3        -2.0550   -0.8740   -2.2010 h1        1 NON      0.050367
@<TRIPOS>BOND
     1    1    2 1   
     2    1   10 2   
     3    1   11 1   
     4    2    3 1   
     5    2   13 1   
     6    2   14 1   
     7    3    4 1   
     8    3   15 1   
     9    3   16 1   
    10    4    5 1   
    11    4   17 1   
    12    4   18 1   
    13    5    6 1   
    14    5   19 1   
    15    5   20 1   
    16    6    7 1   
    17    6   21 1   
    18    6   22 1   
    19    7    8 1   
    20    7   23 1   
    21    7   24 1   
    22    8    9 1   
    23    8   25 1   
    24    8   26 1   
    25    9   27 1   
    26    9   28 1   
    27    9   29 1   
    28   11   12 1   
    29   12   30 1   
    30   12   31 1   
    31   12   32 1   
@<TRIPOS>SUBSTRUCTURE
     1 NON         1 TEMP              0 ****  ****    0 ROOT
