@<TRIPOS>MOLECULE
NON
   32    30     1     0     0
SMALL
bcc


@<TRIPOS>ATOM
      1 C1         -3.5030   -0.1160   -2.2660 c1        1 NON      0.300000
      2 C2         -1.9900   -0.0790   -2.2430 c2        1 NON     -0.155000
      3 C3         -1.5090   -0.0340   -0.8100 c3        1 NON     -0.158000
      4 C4          0.0030   -0.0440   -0.7850 c3        1 NON     -0.157000
      5 C5          0.4840   -0.0750    0.6490 c3        1 NON     -0.158000
      6 C6          1.9960   -0.0350    0.6750 c3        1 NON     -0.158000
      7 C7          2.4760   -0.0480    2.1100 c3        1 NON     -0.158000
      8 C8          3.9890   -0.0670    2.1350 c3        1 NON     -0.159000
      9 C9          4.4680   -0.1290    3.5690 c3        1 NON     -0.211000
     10 O1         -4.1020   -0.9060   -1.5640 o         1 NON     -0.352000
     11 O2         -4.2130    0.7490   -3.1160 os        1 NON     -0.282000
     12 CM         -5.6040    0.5180   -3.1320 c3        1 NON     -0.064000
     13 H21        -1.6760    0.7160   -2.7180 ha        1 NON      0.117500
     14 H22        -1.6380   -0.8800   -2.6800 ha        1 NON      0.117500
     15 H31        -1.8480   -0.8140   -0.3270 hc        1 NON      0.097000
     16 H32        -1.8370    0.7820   -0.3810 hc        1 NON      0.097000
     17 H41         0.3320   -0.8350   -1.2560 hc        1 NON      0.080500
     18 H42         0.3420    0.7620   -1.2250 hc        1 NON      0.080500
     19 H51         0.1290    0.7000    1.1290 hc        1 NON      0.082000
     20 H52         0.1720   -0.8960    1.0800 hc        1 NON      0.082000
     21 H61         2.3510   -0.8160    0.2060 hc        1 NON      0.079000
     22 H62         2.3080    0.7810    0.2340 hc        1 NON      0.079000
     23 H71         2.1330   -0.8450    2.5610 hc        1 NON      0.079500
     24 H72         2.1530    0.7530    2.5690 hc        1 NON      0.079500
     25 H81         4.3130   -0.8510    1.6490 hc        1 NON      0.078000
     26 H82         4.3320    0.7450    1.7110 hc        1 NON      0.078000
     27 H91         4.1370    0.6530    4.0580 hc        1 NON      0.072000
     28 H92         5.4480   -0.1330    3.5850 hc        1 NON      0.072000
     29 H93         4.1310   -0.9460    3.9910 hc        1 NON      0.072000
     30 HM1        -6.0440    1.2070   -3.6760 h1        1 NON      0.089667
     31 HM2        -5.7840   -0.3670   -3.5170 h1        1 NON      0.089667
     32 HM3        -5.9520    0.5520   -2.2150 h1        1 NON      0.089667
@<TRIPOS>BOND
     1    1   10 1   
     2    1   11 1   
     3    2    3 1   
     4    2   13 1   
     5    2   14 1   
     6    3    4 1   
     7    3   15 1   
     8    3   16 1   
     9    4    5 1   
    10    4   17 1   
    11    4   18 1   
    12    5    6 1   
    13    5   19 1   
    14    5   20 1   
    15    6    7 1   
    16    6   21 1   
    17    6   22 1   
    18    7    8 1   
    19    7   23 1   
    20    7   24 1   
    21    8    9 1   
    22    8   25 1   
    23    8   26 1   
    24    9   27 1   
    25    9   28 1   
    26    9   29 1   
    27   11   12 1   
    28   12   30 1   
    29   12   31 1   
    30   12   32 1   
@<TRIPOS>SUBSTRUCTURE
     1 NON         1 TEMP              0 ****  ****    0 ROOT
