@<TRIPOS>MOLECULE
NON
   32    31     1     0     0
SMALL
bcc


@<TRIPOS>ATOM
      1 C1          2.0370   -6.6960   -5.9770 c         1 NON      0.629100
      2 C2          2.2650   -5.5000   -5.1080 c3        1 NON     -0.126400
      3 C3          1.1920   -4.4540   -5.3280 c3        1 NON     -0.079400
      4 C4          1.5040   -3.1930   -4.5520 c3        1 NON     -0.078400
      5 C5          0.4250   -2.1500   -4.7530 c3        1 NON     -0.079400
      6 C6          0.7360   -0.8850   -3.9820 c3        1 NON     -0.079400
      7 C7         -0.3430    0.1580   -4.1810 c3        1 NON     -0.079400
      8 C8         -0.0330    1.4250   -3.4120 c3        1 NON     -0.080400
      9 C9         -1.1050    2.4660   -3.6070 c3        1 NON     -0.093100
     10 O1          1.6110   -6.7530   -7.1320 o         1 NON     -0.541000
     11 O2          2.3810   -7.8700   -5.3610 os        1 NON     -0.443900
     12 CM          2.2230   -9.0670   -6.1220 c3        1 NON      0.125700
     13 H21         3.2750   -5.0830   -5.3700 hc        1 NON      0.078200
     14 H22         2.2930   -5.8150   -4.0310 hc        1 NON      0.078200
     15 H31         1.1150   -4.2230   -6.4240 hc        1 NON      0.057700
     16 H32         0.1980   -4.8620   -5.0060 hc        1 NON      0.057700
     17 H41         2.4930   -2.7800   -4.8850 hc        1 NON      0.041200
     18 H42         1.5960   -3.4340   -3.4600 hc        1 NON      0.041200
     19 H51         0.3310   -1.9120   -5.8450 hc        1 NON      0.042700
     20 H52        -0.5630   -2.5620   -4.4180 hc        1 NON      0.042700
     21 H61         0.8320   -1.1230   -2.8900 hc        1 NON      0.039700
     22 H62         1.7240   -0.4730   -4.3180 hc        1 NON      0.039700
     23 H71        -1.3310   -0.2540   -3.8460 hc        1 NON      0.040200
     24 H72        -0.4380    0.3970   -5.2740 hc        1 NON      0.040200
     25 H81         0.9560    1.8340   -3.7480 hc        1 NON      0.038700
     26 H82         0.0640    1.1840   -2.3200 hc        1 NON      0.038700
     27 H91        -2.0940    2.0850   -3.2550 hc        1 NON      0.032700
     28 H92        -1.2000    2.7370   -4.6870 hc        1 NON      0.032700
     29 H93        -0.8580    3.3900   -3.0320 hc        1 NON      0.032700
     30 HM1         1.1520   -9.1970   -6.4090 h1        1 NON      0.050367
     31 HM2         2.5610   -9.8720   -5.4240 h1        1 NON      0.050367
     32 HM3         2.8610   -9.0240   -7.0370 h1        1 NON      0.050367
@<TRIPOS>BOND
     1    1    2 1   
     2    1   10 2   
     3    1   11 1   
     4    2    3 1   
     5    2   13 1   
     6    2   14 1   
     7    3    4 1   
     8    3   15 1   
     9    3   16 1   
    10    4    5 1   
    11    4   17 1   
    12    4   18 1   
    13    5    6 1   
    14    5   19 1   
    15    5   20 1   
    16    6    7 1   
    17    6   21 1   
    18    6   22 1   
    19    7    8 1   
    20    7   23 1   
    21    7   24 1   
    22    8    9 1   
    23    8   25 1   
    24    8   26 1   
    25    9   27 1   
    26    9   28 1   
    27    9   29 1   
    28   11   12 1   
    29   12   30 1   
    30   12   31 1   
    31   12   32 1   
@<TRIPOS>SUBSTRUCTURE
     1 NON         1 TEMP              0 ****  ****    0 ROOT
