@<TRIPOS>MOLECULE
NON
   32    31     1     0     0
SMALL
bcc


@<TRIPOS>ATOM
      1 C1          0.1170    0.2510   -0.0420 c         1 NON      0.629100
      2 C2          1.6100    0.1550   -0.0230 c3        1 NON     -0.126400
      3 C3          2.1300    0.0350    1.3940 c3        1 NON     -0.079400
      4 C4          3.6430    0.0780    1.4160 c3        1 NON     -0.078400
      5 C5          4.1700   -0.0610    2.8280 c3        1 NON     -0.079400
      6 C6          5.6830   -0.0140    2.8560 c3        1 NON     -0.079400
      7 C7          6.2110   -0.1540    4.2670 c3        1 NON     -0.079400
      8 C8          7.7240   -0.1060    4.2960 c3        1 NON     -0.080400
      9 C9          8.2540   -0.2460    5.7000 c3        1 NON     -0.093100
     10 O1         -0.6380    0.8260    0.7440 o         1 NON     -0.541000
     11 O2         -0.4400   -0.3930   -1.1150 os        1 NON     -0.443900
     12 CM         -1.8610   -0.3340   -1.2340 c3        1 NON      0.125700
     13 H21         2.0110    1.0860   -0.5080 hc        1 NON      0.078200
     14 H22         1.9400   -0.7220   -0.6400 hc        1 NON      0.078200
     15 H31         1.7120    0.8700    2.0180 hc        1 NON      0.057700
     16 H32         1.7720   -0.9270    1.8450 hc        1 NON      0.057700
     17 H41         3.9990    1.0470    0.9760 hc        1 NON      0.041200
     18 H42         4.0540   -0.7480    0.7770 hc        1 NON      0.041200
     19 H51         3.7560    0.7620    3.4670 hc        1 NON      0.042700
     20 H52         3.8160   -1.0310    3.2680 hc        1 NON      0.042700
     21 H61         6.0970   -0.8370    2.2150 hc        1 NON      0.039700
     22 H62         6.0370    0.9560    2.4170 hc        1 NON      0.039700
     23 H71         5.8570   -1.1240    4.7070 hc        1 NON      0.040200
     24 H72         5.7970    0.6690    4.9070 hc        1 NON      0.040200
     25 H81         8.0750    0.8640    3.8550 hc        1 NON      0.038700
     26 H82         8.1360   -0.9290    3.6540 hc        1 NON      0.038700
     27 H91         7.9340   -1.2180    6.1480 hc        1 NON      0.032700
     28 H92         9.3700   -0.2080    5.6990 hc        1 NON      0.032700
     29 H93         7.8740    0.5800    6.3490 hc        1 NON      0.032700
     30 HM1        -2.1920    0.7280   -1.3310 h1        1 NON      0.050367
     31 HM2        -2.3380   -0.8010   -0.3390 h1        1 NON      0.050367
     32 HM3        -2.0740   -0.9170   -2.1630 h1        1 NON      0.050367
@<TRIPOS>BOND
     1    1    2 1   
     2    1   10 2   
     3    1   11 1   
     4    2    3 1   
     5    2   13 1   
     6    2   14 1   
     7    3    4 1   
     8    3   15 1   
     9    3   16 1   
    10    4    5 1   
    11    4   17 1   
    12    4   18 1   
    13    5    6 1   
    14    5   19 1   
    15    5   20 1   
    16    6    7 1   
    17    6   21 1   
    18    6   22 1   
    19    7    8 1   
    20    7   23 1   
    21    7   24 1   
    22    8    9 1   
    23    8   25 1   
    24    8   26 1   
    25    9   27 1   
    26    9   28 1   
    27    9   29 1   
    28   11   12 1   
    29   12   30 1   
    30   12   31 1   
    31   12   32 1   
@<TRIPOS>SUBSTRUCTURE
     1 NON         1 TEMP              0 ****  ****    0 ROOT
