@<TRIPOS>MOLECULE
NOO
   41    41     1     0     0
SMALL
bcc


@<TRIPOS>ATOM
      1 C1          1.6450    0.7190   -0.3800 c         1 NOO      0.558300
      2 O1          1.8370    0.9340   -1.5760 o         1 NOO     -0.449100
      3 C2          2.6340   -0.0960    0.3840 ce        1 NOO     -0.169200
      4 C3          2.4640   -0.3670    1.6920 c2        1 NOO     -0.021200
      5 C4          1.2830    0.1170    2.4800 c3        1 NOO     -0.056200
      6 C5          0.1040    0.3800    1.5620 c3        1 NOO     -0.077400
      7 C6          0.4760    1.2530    0.3870 c3        1 NOO     -0.183400
      8 N7          3.4570   -1.1620    2.4300 ny        1 NOO     -0.580600
      9 C8          4.4390   -0.2680    3.1990 c         1 NOO      0.556100
     10 O8          4.2040   -0.1730    4.3900 o         1 NOO     -0.393100
     11 C9          5.5470    0.3210    2.3830 c3        1 NOO     -0.148400
     12 C10         6.1860    1.4880    3.1150 c3        1 NOO     -0.082400
     13 C11         7.3560    2.0260    2.3160 c3        1 NOO     -0.081400
     14 C12         7.9970    3.1980    3.0300 c3        1 NOO     -0.079400
     15 C13         9.1670    3.7410    2.2380 c3        1 NOO     -0.080400
     16 C14         9.8110    4.9130    2.9490 c3        1 NOO     -0.079400
     17 C15        10.9770    5.4580    2.1660 c3        1 NOO     -0.095100
     18 H2          3.4940   -0.4490   -0.2150 ha        1 NOO      0.170000
     19 H4          1.5720    1.0640    3.0150 hc        1 NOO      0.082700
     20 H4A         0.9740   -0.6300    3.2610 hc        1 NOO      0.082700
     21 H5         -0.7060    0.8840    2.1560 hc        1 NOO      0.079700
     22 H5A        -0.3120   -0.5950    1.1930 hc        1 NOO      0.079700
     23 H6          0.7390    2.2910    0.7360 hc        1 NOO      0.103200
     24 H6A        -0.4050    1.3540   -0.3060 hc        1 NOO      0.103200
     25 HN7         2.9560   -1.7650    3.0990 hn        1 NOO      0.462800
     26 H9          5.1620    0.6600    1.3820 hc        1 NOO      0.102700
     27 H9A         6.3150   -0.4850    2.2070 hc        1 NOO      0.102700
     28 H10         5.4270    2.2990    3.2720 hc        1 NOO      0.071700
     29 H10A        6.5360    1.1550    4.1280 hc        1 NOO      0.071700
     30 H11         7.0050    2.3520    1.3000 hc        1 NOO      0.049200
     31 H11A        8.1170    1.2170    2.1650 hc        1 NOO      0.049200
     32 H12         8.3470    2.8750    4.0460 hc        1 NOO      0.048700
     33 H12A        7.2370    4.0100    3.1830 hc        1 NOO      0.048700
     34 H13         8.8190    4.0650    1.2220 hc        1 NOO      0.043700
     35 H13A        9.9280    2.9310    2.0860 hc        1 NOO      0.043700
     36 H14        10.1590    4.5890    3.9660 hc        1 NOO      0.042200
     37 H14A        9.0490    5.7220    3.1030 hc        1 NOO      0.042200
     38 H15        11.7590    4.6730    2.0240 hc        1 NOO      0.039033
     39 H15A       11.4370    6.3200    2.7070 hc        1 NOO      0.039033
     40 H15B       10.6470    5.8100    1.1580 hc        1 NOO      0.039033
     41 H72         3.9840   -1.7530    1.7790 hn        1 NOO      0.462800
@<TRIPOS>BOND
     1    1    2 2   
     2    1    3 1   
     3    1    7 1   
     4    3    4 2   
     5    3   18 1   
     6    4    5 1   
     7    4    8 1   
     8    5    6 1   
     9    5   19 1   
    10    5   20 1   
    11    6    7 1   
    12    6   21 1   
    13    6   22 1   
    14    7   23 1   
    15    7   24 1   
    16    8    9 1   
    17    8   25 1   
    18    8   41 1   
    19    9   10 2   
    20    9   11 1   
    21   11   12 1   
    22   11   26 1   
    23   11   27 1   
    24   12   13 1   
    25   12   28 1   
    26   12   29 1   
    27   13   14 1   
    28   13   30 1   
    29   13   31 1   
    30   14   15 1   
    31   14   32 1   
    32   14   33 1   
    33   15   16 1   
    34   15   34 1   
    35   15   35 1   
    36   16   17 1   
    37   16   36 1   
    38   16   37 1   
    39   17   38 1   
    40   17   39 1   
    41   17   40 1   
@<TRIPOS>SUBSTRUCTURE
     1 NOO         1 TEMP              0 ****  ****    0 ROOT
