@<TRIPOS>MOLECULE
NOO
   40    38     1     0     0
SMALL
bcc


@<TRIPOS>ATOM
      1 C1         -5.8980   -0.6930   -1.7490 c1        1 NOO      0.269000
      2 O1         -6.5000   -0.1590   -2.6560 o         1 NOO     -0.300000
      3 C2         -4.3390   -0.6810   -1.7350 c1        1 NOO     -0.290000
      4 C3         -3.6190   -1.0410   -0.4000 c1        1 NOO      0.087000
      5 C4         -4.4830   -1.3880    0.7950 c2        1 NOO     -0.146000
      6 C5         -5.8090   -1.8870    0.4140 c3        1 NOO     -0.148000
      7 C6         -6.6170   -1.0600   -0.4830 c3        1 NOO     -0.214000
      8 N7         -2.2350   -1.3980   -0.4090 n         1 NOO     -0.329000
      9 C8         -1.2380   -0.4000   -0.1720 c2        1 NOO      0.305000
     10 O8         -1.5680    0.7510    0.0360 o         1 NOO     -0.326000
     11 C9          0.2310   -0.7790   -0.1730 c3        1 NOO     -0.188000
     12 C10         1.0650    0.4350    0.1670 c3        1 NOO     -0.157000
     13 C11         2.5530    0.0720    0.0860 c3        1 NOO     -0.159000
     14 C12         3.3940    1.2960    0.4300 c3        1 NOO     -0.158000
     15 C13         4.8660    0.9520    0.3050 c3        1 NOO     -0.158000
     16 C14         5.7060    2.1870    0.6150 c3        1 NOO     -0.159000
     17 C15         7.1710    1.8490    0.4700 c3        1 NOO     -0.211000
     18 H2         -3.8500   -0.2290   -2.4450 ha        1 NOO      0.188000
     19 H4         -4.4370   -0.6040    1.3800 ha        1 NOO      0.095500
     20 H4A        -4.0910   -2.0700    1.3750 ha        1 NOO      0.095500
     21 H5         -6.3230   -2.0240    1.2350 hc        1 NOO      0.091500
     22 H5A        -5.6870   -2.7630   -0.0170 hc        1 NOO      0.091500
     23 H6         -7.4730   -1.4710   -0.7260 hc        1 NOO      0.111500
     24 H6A        -6.9230   -0.2720    0.0020 hc        1 NOO      0.111500
     25 HN7        -1.9860   -2.2520   -0.6080 hn        1 NOO      0.229000
     26 H9          0.4800   -1.1070   -1.0550 hc        1 NOO      0.115500
     27 H9A         0.3870   -1.4780    0.4920 hc        1 NOO      0.115500
     28 H10         0.8510    0.7350    1.0730 hc        1 NOO      0.086500
     29 H10A        0.8700    1.1530   -0.4690 hc        1 NOO      0.086500
     30 H11         2.7480   -0.6500    0.7220 hc        1 NOO      0.083500
     31 H11A        2.7670   -0.2260   -0.8210 hc        1 NOO      0.083500
     32 H12         3.1770    2.0230   -0.1840 hc        1 NOO      0.080500
     33 H12A        3.2010    1.5770    1.3490 hc        1 NOO      0.080500
     34 H13         5.0880    0.2400    0.9360 hc        1 NOO      0.080000
     35 H13A        5.0540    0.6500   -0.6080 hc        1 NOO      0.080000
     36 H14         5.5280    2.4790    1.5290 hc        1 NOO      0.078000
     37 H14A        5.4730    2.9050   -0.0090 hc        1 NOO      0.078000
     38 H15         7.7110    2.6300    0.7090 hc        1 NOO      0.073000
     39 H15A        7.3950    1.1030    1.0630 hc        1 NOO      0.073000
     40 H15B        7.3580    1.5940   -0.4630 hc        1 NOO      0.073000
@<TRIPOS>BOND
     1    1    2 1   
     2    1    7 1   
     3    3    4 1   
     4    3   18 1   
     5    4    8 1   
     6    5    6 1   
     7    5   19 1   
     8    5   20 1   
     9    6    7 1   
    10    6   21 1   
    11    6   22 1   
    12    7   23 1   
    13    7   24 1   
    14    8    9 1   
    15    8   25 1   
    16    9   10 1   
    17    9   11 1   
    18   11   12 1   
    19   11   26 1   
    20   11   27 1   
    21   12   13 1   
    22   12   28 1   
    23   12   29 1   
    24   13   14 1   
    25   13   30 1   
    26   13   31 1   
    27   14   15 1   
    28   14   32 1   
    29   14   33 1   
    30   15   16 1   
    31   15   34 1   
    32   15   35 1   
    33   16   17 1   
    34   16   36 1   
    35   16   37 1   
    36   17   38 1   
    37   17   39 1   
    38   17   40 1   
@<TRIPOS>SUBSTRUCTURE
     1 NOO         1 TEMP              0 ****  ****    0 ROOT
