@<TRIPOS>MOLECULE
NOO
   41    41     1     0     0
SMALL
bcc


@<TRIPOS>ATOM
      1 C1          1.7060    0.5980   -0.4120 c         1 NOO      0.558300
      2 O1          1.9420    0.7130   -1.6140 o         1 NOO     -0.449100
      3 C2          2.6500   -0.1730    0.4470 ce        1 NOO     -0.169200
      4 C3          2.4310   -0.3350    1.7660 c2        1 NOO     -0.021200
      5 C4          1.2370    0.2340    2.4710 c3        1 NOO     -0.056200
      6 C5          0.0940    0.4480    1.4960 c3        1 NOO     -0.077400
      7 C6          0.5250    1.2160    0.2690 c3        1 NOO     -0.183400
      8 N7          3.3810   -1.0890    2.5980 n4        1 NOO     -0.580600
      9 C8          4.3570   -0.1560    3.3280 c         1 NOO      0.556100
     10 O8          4.0860    0.0370    4.4980 o         1 NOO     -0.393100
     11 C9          5.5050    0.3440    2.5060 c3        1 NOO     -0.148400
     12 C10         6.1430    1.5550    3.1630 c3        1 NOO     -0.082400
     13 C11         7.3500    2.0040    2.3650 c3        1 NOO     -0.081400
     14 C12         7.9910    3.2190    3.0050 c3        1 NOO     -0.079400
     15 C13         9.2000    3.6730    2.2130 c3        1 NOO     -0.080400
     16 C14         9.8430    4.8880    2.8490 c3        1 NOO     -0.079400
     17 C15        11.0470    5.3450    2.0660 c3        1 NOO     -0.095100
     18 H2          3.5210   -0.5910   -0.0920 ha        1 NOO      0.170000
     19 H4          0.8850   -0.4410    3.2980 hc        1 NOO      0.082700
     20 H4A         1.5300    1.2150    2.9400 hc        1 NOO      0.082700
     21 H5         -0.7220    1.0140    2.0200 hc        1 NOO      0.079700
     22 H5A        -0.3320   -0.5450    1.1920 hc        1 NOO      0.079700
     23 H6          0.8010    2.2720    0.5430 hc        1 NOO      0.103200
     24 H6A        -0.3300    1.2790   -0.4600 hc        1 NOO      0.103200
     25 HN7         3.9160   -1.7400    2.0140 hn        1 NOO      0.462800
     26 H9          6.2610   -0.4880    2.4230 hc        1 NOO      0.103200
     27 H9A         5.1610    0.6070    1.4680 hc        1 NOO      0.103200
     28 H10         5.3960    2.3890    3.2270 hc        1 NOO      0.071700
     29 H10A        6.4510    1.2990    4.2120 hc        1 NOO      0.071700
     30 H11         7.0420    2.2510    1.3150 hc        1 NOO      0.049200
     31 H11A        8.1000    1.1710    2.3080 hc        1 NOO      0.049200
     32 H12         8.3000    2.9740    4.0550 hc        1 NOO      0.048700
     33 H12A        7.2440    4.0540    3.0630 hc        1 NOO      0.048700
     34 H13         8.8930    3.9180    1.1630 hc        1 NOO      0.043700
     35 H13A        9.9480    2.8400    2.1550 hc        1 NOO      0.043700
     36 H14        10.1490    4.6420    3.9010 hc        1 NOO      0.042200
     37 H14A        9.0930    5.7210    2.9090 hc        1 NOO      0.042200
     38 H15        11.5050    6.2400    2.5510 hc        1 NOO      0.039033
     39 H15A       11.8170    4.5370    2.0170 hc        1 NOO      0.039033
     40 H15B       10.7590    5.6190    1.0220 hc        1 NOO      0.039033
     41 H72         2.8450   -1.6260    3.2950 hn        1 NOO      0.462800
@<TRIPOS>BOND
     1    1    2 2   
     2    1    3 1   
     3    1    7 1   
     4    3    4 2   
     5    3   18 1   
     6    4    5 1   
     7    4    8 1   
     8    5    6 1   
     9    5   19 1   
    10    5   20 1   
    11    6    7 1   
    12    6   21 1   
    13    6   22 1   
    14    7   23 1   
    15    7   24 1   
    16    8    9 1   
    17    8   25 1   
    18    8   41 1   
    19    9   10 2   
    20    9   11 1   
    21   11   12 1   
    22   11   26 1   
    23   11   27 1   
    24   12   13 1   
    25   12   28 1   
    26   12   29 1   
    27   13   14 1   
    28   13   30 1   
    29   13   31 1   
    30   14   15 1   
    31   14   32 1   
    32   14   33 1   
    33   15   16 1   
    34   15   34 1   
    35   15   35 1   
    36   16   17 1   
    37   16   36 1   
    38   16   37 1   
    39   17   38 1   
    40   17   39 1   
    41   17   40 1   
@<TRIPOS>SUBSTRUCTURE
     1 NOO         1 TEMP              0 ****  ****    0 ROOT
