@<TRIPOS>MOLECULE
NOO
   41    41     1     0     0
SMALL
bcc


@<TRIPOS>ATOM
      1 C1          1.6770    0.6490   -0.3990 c         1 NOO      0.558300
      2 O1          1.8820    0.8440   -1.5970 o         1 NOO     -0.449100
      3 C2          2.6630   -0.1430    0.3900 ce        1 NOO     -0.169200
      4 C3          2.4800   -0.3920    1.7010 c2        1 NOO     -0.021200
      5 C4          1.2870    0.0980    2.4660 c3        1 NOO     -0.056200
      6 C5          0.1160    0.3350    1.5310 c3        1 NOO     -0.077400
      7 C6          0.4950    1.1890    0.3440 c3        1 NOO     -0.183400
      8 N7          3.4710   -1.1650    2.4650 n4        1 NOO     -0.580600
      9 C8          4.4380   -0.2490    3.2280 c         1 NOO      0.556100
     10 O8          4.1880   -0.1320    4.4130 o         1 NOO     -0.393100
     11 C9          5.5520    0.3300    2.4120 c3        1 NOO     -0.148400
     12 C10         6.1770    1.5150    3.1290 c3        1 NOO     -0.082400
     13 C11         7.3510    2.0450    2.3320 c3        1 NOO     -0.081400
     14 C12         7.9790    3.2330    3.0320 c3        1 NOO     -0.079400
     15 C13         9.1540    3.7680    2.2420 c3        1 NOO     -0.080400
     16 C14         9.7850    4.9560    2.9380 c3        1 NOO     -0.079400
     17 C15        10.9550    5.4930    2.1560 c3        1 NOO     -0.095100
     18 H2          3.5330   -0.5010   -0.1920 ha        1 NOO      0.170000
     19 H4          1.5620    1.0570    2.9870 hc        1 NOO      0.082700
     20 H4A         0.9740   -0.6360    3.2580 hc        1 NOO      0.082700
     21 H5         -0.7040    0.8440    2.1060 hc        1 NOO      0.079700
     22 H5A        -0.2880   -0.6500    1.1760 hc        1 NOO      0.079700
     23 H6          0.7460    2.2340    0.6760 hc        1 NOO      0.103200
     24 H6A        -0.3780    1.2690   -0.3610 hc        1 NOO      0.103200
     25 HN7         4.0090   -1.7640    1.8310 hn        1 NOO      0.462800
     26 H9          5.1750    0.6490    1.4020 hc        1 NOO      0.102700
     27 H9A         6.3260   -0.4740    2.2590 hc        1 NOO      0.102700
     28 H10         6.5180    1.2020    4.1520 hc        1 NOO      0.071700
     29 H10A        5.4120    2.3230    3.2640 hc        1 NOO      0.071700
     30 H11         7.0090    2.3500    1.3080 hc        1 NOO      0.049200
     31 H11A        8.1190    1.2370    2.2030 hc        1 NOO      0.049200
     32 H12         7.2130    4.0420    3.1630 hc        1 NOO      0.048700
     33 H12A        8.3210    2.9290    4.0570 hc        1 NOO      0.048700
     34 H13         9.9210    2.9590    2.1110 hc        1 NOO      0.043700
     35 H13A        8.8140    4.0710    1.2170 hc        1 NOO      0.043700
     36 H14         9.0170    5.7630    3.0700 hc        1 NOO      0.042200
     37 H14A       10.1240    4.6520    3.9630 hc        1 NOO      0.042200
     38 H15        10.6330    5.8250    1.1390 hc        1 NOO      0.039033
     39 H15A       11.7430    4.7110    2.0360 hc        1 NOO      0.039033
     40 H15B       11.4050    6.3670    2.6860 hc        1 NOO      0.039033
     41 H72         2.9670   -1.7590    3.1400 hn        1 NOO      0.462800
@<TRIPOS>BOND
     1    1    2 2   
     2    1    3 1   
     3    1    7 1   
     4    3    4 2   
     5    3   18 1   
     6    4    5 1   
     7    4    8 1   
     8    5    6 1   
     9    5   19 1   
    10    5   20 1   
    11    6    7 1   
    12    6   21 1   
    13    6   22 1   
    14    7   23 1   
    15    7   24 1   
    16    8    9 1   
    17    8   25 1   
    18    8   41 1   
    19    9   10 2   
    20    9   11 1   
    21   11   12 1   
    22   11   26 1   
    23   11   27 1   
    24   12   13 1   
    25   12   28 1   
    26   12   29 1   
    27   13   14 1   
    28   13   30 1   
    29   13   31 1   
    30   14   15 1   
    31   14   32 1   
    32   14   33 1   
    33   15   16 1   
    34   15   34 1   
    35   15   35 1   
    36   16   17 1   
    37   16   36 1   
    38   16   37 1   
    39   17   38 1   
    40   17   39 1   
    41   17   40 1   
@<TRIPOS>SUBSTRUCTURE
     1 NOO         1 TEMP              0 ****  ****    0 ROOT
