@<TRIPOS>MOLECULE
NOO
   40    40     1     0     0
SMALL
bcc


@<TRIPOS>ATOM
      1 C1         -5.3090    0.6660   -0.3740 c         1 NOO      0.586300
      2 O1         -6.2240    1.4380   -0.6930 o         1 NOO     -0.549100
      3 C2         -3.9050    1.0040   -0.5940 ce        1 NOO     -0.358200
      4 C3         -2.8810    0.1470   -0.3180 c2        1 NOO      0.121400
      5 C4         -3.1500   -1.2310    0.2190 c3        1 NOO     -0.058200
      6 C5         -4.5620   -1.6920   -0.0750 c3        1 NOO     -0.072400
      7 C6         -5.5920   -0.6510    0.2950 c3        1 NOO     -0.182400
      8 N7         -1.5590    0.5480   -0.5320 n         1 NOO     -0.493100
      9 C8         -0.4070   -0.0930   -0.0710 c         1 NOO      0.664100
     10 O8         -0.4570   -1.1370    0.6000 o         1 NOO     -0.578100
     11 C9          0.9050    0.5720   -0.4470 c3        1 NOO     -0.152400
     12 C10         2.0830   -0.2190    0.0810 c3        1 NOO     -0.074400
     13 C11         3.3900    0.4470   -0.2900 c3        1 NOO     -0.079400
     14 C12         4.5700   -0.3410    0.2350 c3        1 NOO     -0.078400
     15 C13         5.8800    0.3220   -0.1340 c3        1 NOO     -0.079400
     16 C14         7.0620   -0.4660    0.3910 c3        1 NOO     -0.080400
     17 C15         8.3680    0.1900    0.0270 c3        1 NOO     -0.093100
     18 H2         -3.7330    2.0140   -1.0000 ha        1 NOO      0.145000
     19 H4         -2.4280   -1.9740   -0.2200 hc        1 NOO      0.081200
     20 H4A        -2.9630   -1.2150    1.3280 hc        1 NOO      0.081200
     21 H5         -4.6560   -1.9380   -1.1660 hc        1 NOO      0.052200
     22 H5A        -4.7610   -2.6360    0.4990 hc        1 NOO      0.052200
     23 H6         -5.5880   -0.4790    1.4050 hc        1 NOO      0.072200
     24 H6A        -6.6180   -1.0050    0.0120 hc        1 NOO      0.072200
     25 HN7        -1.4370    1.4270   -0.9870 hn        1 NOO      0.319500
     26 H9          0.9720    0.6530   -1.5650 hc        1 NOO      0.068200
     27 H9A         0.9250    1.6120   -0.0240 hc        1 NOO      0.068200
     28 H10         2.0000   -0.3120    1.1960 hc        1 NOO      0.061200
     29 H10A        2.0490   -1.2610   -0.3340 hc        1 NOO      0.061200
     30 H11         3.4650    0.5370   -1.4060 hc        1 NOO      0.038700
     31 H11A        3.4170    1.4880    0.1280 hc        1 NOO      0.038700
     32 H12         4.4950   -0.4320    1.3510 hc        1 NOO      0.043700
     33 H12A        4.5430   -1.3820   -0.1830 hc        1 NOO      0.043700
     34 H13         5.9550    0.4120   -1.2490 hc        1 NOO      0.039700
     35 H13A        5.9070    1.3620    0.2850 hc        1 NOO      0.039700
     36 H14         6.9840   -0.5570    1.5070 hc        1 NOO      0.039700
     37 H14A        7.0320   -1.5070   -0.0270 hc        1 NOO      0.039700
     38 H15         8.4760    0.2670   -1.0820 hc        1 NOO      0.033033
     39 H15A        8.4270    1.2190    0.4560 hc        1 NOO      0.033033
     40 H15B        9.2250   -0.4070    0.4230 hc        1 NOO      0.033033
@<TRIPOS>BOND
     1    1    2 2   
     2    1    3 1   
     3    1    7 1   
     4    3    4 2   
     5    3   18 1   
     6    4    5 1   
     7    4    8 1   
     8    5    6 1   
     9    5   19 1   
    10    5   20 1   
    11    6    7 1   
    12    6   21 1   
    13    6   22 1   
    14    7   23 1   
    15    7   24 1   
    16    8    9 1   
    17    8   25 1   
    18    9   10 2   
    19    9   11 1   
    20   11   12 1   
    21   11   26 1   
    22   11   27 1   
    23   12   13 1   
    24   12   28 1   
    25   12   29 1   
    26   13   14 1   
    27   13   30 1   
    28   13   31 1   
    29   14   15 1   
    30   14   32 1   
    31   14   33 1   
    32   15   16 1   
    33   15   34 1   
    34   15   35 1   
    35   16   17 1   
    36   16   36 1   
    37   16   37 1   
    38   17   38 1   
    39   17   39 1   
    40   17   40 1   
@<TRIPOS>SUBSTRUCTURE
     1 NOO         1 TEMP              0 ****  ****    0 ROOT
