@<TRIPOS>MOLECULE
NOP
   25    25     1     0     0
SMALL
bcc


@<TRIPOS>ATOM
      1 N1          0.3410    0.8870    0.4140 na        1 NOP      0.103000
      2 O1         -0.1970    1.6750   -0.3940 o         1 NOP     -0.591000
      3 C2          1.4610    0.1460    0.0380 cc        1 NOP     -0.054200
      4 C2A         2.0280    0.3300   -1.3250 c3        1 NOP     -0.010900
      5 C3          2.0490   -0.7330    0.9610 cd        1 NOP      0.036100
      6 O3          3.1880   -1.3980    0.5260 oh        1 NOP     -0.541100
      7 C4          1.5230   -0.9580    2.2620 cd        1 NOP     -0.196100
      8 C4A         1.8120   -2.2120    2.9300 c1        1 NOP      0.232600
      9 O4A         2.8010   -2.5310    3.5870 o         1 NOP     -0.639500
     10 C5          0.4120   -0.1530    2.6210 cd        1 NOP     -0.107200
     11 C6         -0.1480    0.7250    1.6960 cc        1 NOP     -0.042000
     12 C5A        -0.1540   -0.2820    4.0020 c3        1 NOP      0.238600
     13 O4P        -1.4370    0.2610    4.1120 os        1 NOP     -0.595200
     14 P          -1.7630    1.2550    5.3850 p5        1 NOP      1.427800
     15 O1P        -1.4790    2.6550    4.5860 oh        1 NOP     -0.778400
     16 O2P        -3.2300    1.2160    5.5770 o         1 NOP     -0.844000
     17 O3P        -0.7590    1.0830    6.4550 o         1 NOP     -0.844000
     18 H2A1        1.2130    0.3670   -2.0900 hc        1 NOP      0.031367
     19 H2A2        2.7230   -0.5120   -1.5640 hc        1 NOP      0.031367
     20 H2A3        2.5940    1.2930   -1.3770 hc        1 NOP      0.031367
     21 HO3         3.4750   -1.9600    1.2620 ho        1 NOP      0.425000
     22 H4A        -2.0680    2.7720    3.8530 ho        1 NOP      0.419000
     23 H6         -1.0240    1.3470    1.9520 h4        1 NOP      0.176000
     24 H5A1       -0.2070   -1.3890    4.2370 h1        1 NOP      0.046200
     25 H5A2        0.5350    0.2140    4.7450 h1        1 NOP      0.046200
@<TRIPOS>BOND
     1    1    2 1   
     2    1    3 1   
     3    1   11 1   
     4    3    4 1   
     5    3    5 2   
     6    4   18 1   
     7    4   19 1   
     8    4   20 1   
     9    5    6 1   
    10    5    7 1   
    11    6   21 1   
    12    7    8 2   
    13    7   10 1   
    14    8    9 2   
    15   10   11 2   
    16   10   12 1   
    17   11   23 1   
    18   12   13 1   
    19   12   24 1   
    20   12   25 1   
    21   13   14 1   
    22   14   15 1   
    23   14   16 1   
    24   14   17 1   
    25   15   22 1   
@<TRIPOS>SUBSTRUCTURE
     1 NOP         1 TEMP              0 ****  ****    0 ROOT
