@<TRIPOS>MOLECULE
NOP
   25    22     1     0     0
SMALL
bcc


@<TRIPOS>ATOM
      1 N1         -0.5830    0.3390   -2.1540 n2        1 NOP      0.379000
      2 O1         -1.2580    0.3330   -3.3210 os        1 NOP     -0.472000
      3 C2          0.7940    0.3840   -2.1580 c1        1 NOP     -0.286000
      4 C2A         1.5590    0.4450   -3.5050 c2        1 NOP     -0.148000
      5 C3          1.4910    0.3790   -0.9620 c2        1 NOP      0.120000
      6 O3          2.8710    0.3590   -0.9670 oh        1 NOP     -0.253000
      7 C4          0.8140    0.3290    0.2180 c1        1 NOP     -0.253000
      8 C4A         1.5630    0.3920    1.5170 c1        1 NOP      0.254000
      9 O4A         0.9770    0.3480    2.5340 o         1 NOP     -0.353000
     10 C5         -0.5650    0.2840    0.2190 c2        1 NOP      0.017000
     11 C6         -1.2580    0.2890   -0.9800 c2        1 NOP     -0.207000
     12 C5A        -1.3320    0.2600    1.5410 c3        1 NOP      0.087000
     13 O4P        -1.0280   -0.9470    2.2590 os        1 NOP     -0.711000
     14 P          -2.0620   -1.4410    3.3340 p5        1 NOP      1.551500
     15 O1P        -3.3470   -1.7460    2.6730 o         1 NOP     -0.904833
     16 O2P        -1.5370   -2.6800    4.0120 o         1 NOP     -0.904833
     17 O3P        -2.2710   -0.3640    4.3560 o         1 NOP     -0.904833
     18 H2A1        2.2640    1.0910   -3.4440 ha        1 NOP      0.072333
     19 H2A2        1.9270   -0.4040   -3.6990 ha        1 NOP      0.072333
     20 H2A3        0.9490    0.7000   -4.2060 ha        1 NOP      0.072333
     21 HO3         3.1500   -0.4290   -1.2280 ho        1 NOP      0.200000
     22 H4A         2.5520    0.4060    1.5170 ha        1 NOP      0.097000
     23 H6         -2.2750    0.3670   -0.9770 h4        1 NOP      0.341000
     24 H5A1       -1.0820    1.0130    2.0650 h1        1 NOP      0.066000
     25 H5A2       -2.3110    0.2950    1.3560 h1        1 NOP      0.066000
@<TRIPOS>BOND
     1    1    3 1   
     2    1   11 1   
     3    3    5 1   
     4    4   18 1   
     5    4   19 1   
     6    4   20 1   
     7    5    6 1   
     8    5    7 1   
     9    6   21 1   
    10    7   10 1   
    11    8    9 1   
    12    8   22 1   
    13   10   11 1   
    14   10   12 1   
    15   11   23 1   
    16   12   13 1   
    17   12   24 1   
    18   12   25 1   
    19   13   14 1   
    20   14   15 1   
    21   14   16 1   
    22   14   17 1   
@<TRIPOS>SUBSTRUCTURE
     1 NOP         1 TEMP              0 ****  ****    0 ROOT
