@<TRIPOS>MOLECULE
NOP
   25    25     1     0     0
SMALL
bcc


@<TRIPOS>ATOM
      1 N1          0.1160    0.5440    0.0230 na        1 NOP      0.101000
      2 O1         -0.5670    0.9510   -0.9420 o         1 NOP     -0.591000
      3 C2          1.3730   -0.0200   -0.1910 cc        1 NOP     -0.054200
      4 C2A         1.8790   -0.1580   -1.5840 c3        1 NOP     -0.010900
      5 C3          2.1220   -0.4770    0.9040 cd        1 NOP      0.035100
      6 O3          3.3420   -1.0700    0.6010 oh        1 NOP     -0.540100
      7 C4          1.6870   -0.3480    2.2510 cd        1 NOP     -0.195100
      8 C4A         2.6730   -0.3290    3.3110 c1        1 NOP      0.232600
      9 O4A         3.1990   -1.2670    3.9050 o         1 NOP     -0.635500
     10 C5          0.3880    0.1930    2.4220 cd        1 NOP     -0.101200
     11 C6         -0.3470    0.6330    1.3220 cc        1 NOP     -0.040000
     12 C5A        -0.1810    0.2890    3.7990 c3        1 NOP      0.222600
     13 O4P        -1.3600    1.0460    3.8360 os        1 NOP     -0.577200
     14 P          -2.1690    0.9620    5.2650 p5        1 NOP      1.428800
     15 O1P        -1.0310    1.6080    6.2530 oh        1 NOP     -0.787400
     16 O2P        -3.3390    1.8580    5.1890 o         1 NOP     -0.847500
     17 O3P        -2.1970   -0.4500    5.7130 o         1 NOP     -0.847500
     18 H2A1        1.3770   -1.0200   -2.0900 hc        1 NOP      0.031033
     19 H2A2        2.9820   -0.3380   -1.5710 hc        1 NOP      0.031033
     20 H2A3        1.6600    0.7640   -2.1770 hc        1 NOP      0.031033
     21 HO3         3.7470   -1.3110    1.4480 ho        1 NOP      0.424000
     22 H4A        -0.4890    0.9350    6.6460 ho        1 NOP      0.421000
     23 H6         -1.3510    1.0770    1.4470 h4        1 NOP      0.187000
     24 H5A1       -0.4050   -0.7450    4.1940 h1        1 NOP      0.041700
     25 H5A2        0.5810    0.7750    4.4750 h1        1 NOP      0.041700
@<TRIPOS>BOND
     1    1    2 1   
     2    1    3 1   
     3    1   11 1   
     4    3    4 1   
     5    3    5 2   
     6    4   18 1   
     7    4   19 1   
     8    4   20 1   
     9    5    6 1   
    10    5    7 1   
    11    6   21 1   
    12    7    8 2   
    13    7   10 1   
    14    8    9 2   
    15   10   11 2   
    16   10   12 1   
    17   11   23 1   
    18   12   13 1   
    19   12   24 1   
    20   12   25 1   
    21   13   14 1   
    22   14   15 1   
    23   14   16 1   
    24   14   17 1   
    25   15   22 1   
@<TRIPOS>SUBSTRUCTURE
     1 NOP         1 TEMP              0 ****  ****    0 ROOT
