@<TRIPOS>MOLECULE
NOP
   25    25     1     0     0
SMALL
bcc


@<TRIPOS>ATOM
      1 N1       -131.1370    3.6410   63.4460 na        1 NOP      0.095000
      2 O1       -130.3480    2.6840   63.2880 o         1 NOP     -0.596000
      3 C2       -131.2720    4.6160   62.4570 cc        1 NOP     -0.050200
      4 C2A      -130.4900    4.4880   61.1970 c3        1 NOP     -0.010900
      5 C3       -132.1670    5.6780   62.6500 cd        1 NOP      0.029100
      6 O3       -132.2850    6.5720   61.5930 oh        1 NOP     -0.540100
      7 C4       -132.9200    5.8540   63.8460 cd        1 NOP     -0.190100
      8 C4A      -133.3700    7.1820   64.1910 c1        1 NOP      0.239600
      9 O4A      -134.3900    7.7840   63.8690 o         1 NOP     -0.626500
     10 C5       -132.7830    4.8220   64.8080 cd        1 NOP     -0.110200
     11 C6       -131.8990    3.7660   64.5910 cc        1 NOP     -0.038000
     12 C5A      -133.5930    4.8760   66.0630 c3        1 NOP      0.228600
     13 O4P      -133.3380    3.7780   66.8970 os        1 NOP     -0.585200
     14 P        -134.2720    3.7320   68.2480 p5        1 NOP      1.425800
     15 O1P      -135.6960    3.3580   67.5240 oh        1 NOP     -0.783400
     16 O2P      -133.9340    2.4830   68.9680 o         1 NOP     -0.845500
     17 O3P      -134.3590    5.0740   68.8550 o         1 NOP     -0.845500
     18 H2A1     -130.4460    5.4760   60.6780 hc        1 NOP      0.031033
     19 H2A2     -129.4510    4.1320   61.4100 hc        1 NOP      0.031033
     20 H2A3     -130.9780    3.7450   60.5190 hc        1 NOP      0.031033
     21 HO3      -132.8830    7.2730   61.8920 ho        1 NOP      0.422000
     22 H4A      -135.7830    2.4210   67.4010 ho        1 NOP      0.416000
     23 H6       -131.7780    2.9620   65.3390 h4        1 NOP      0.187000
     24 H5A1     -133.3610    5.8240   66.6290 h1        1 NOP      0.043200
     25 H5A2     -134.6920    4.8760   65.8070 h1        1 NOP      0.043200
@<TRIPOS>BOND
     1    1    2 1   
     2    1    3 1   
     3    1   11 1   
     4    3    4 1   
     5    3    5 2   
     6    4   18 1   
     7    4   19 1   
     8    4   20 1   
     9    5    6 1   
    10    5    7 1   
    11    6   21 1   
    12    7    8 2   
    13    7   10 1   
    14    8    9 2   
    15   10   11 2   
    16   10   12 1   
    17   11   23 1   
    18   12   13 1   
    19   12   24 1   
    20   12   25 1   
    21   13   14 1   
    22   14   15 1   
    23   14   16 1   
    24   14   17 1   
    25   15   22 1   
@<TRIPOS>SUBSTRUCTURE
     1 NOP         1 TEMP              0 ****  ****    0 ROOT
