@<TRIPOS>MOLECULE
NOQ
   52    53     1     0     0
SMALL
bcc


@<TRIPOS>ATOM
      1 C2          1.5960   -2.4050    0.7210 ca        1 NOQ     -0.206500
      2 C3          1.5610   -1.0970    0.1640 ca        1 NOQ      0.265100
      3 C4          0.5490   -0.1940    0.5570 ca        1 NOQ     -0.206500
      4 C5         -0.3930   -0.5910    1.4840 ca        1 NOQ      0.039000
      5 C6          0.6450   -2.7710    1.6430 ca        1 NOQ      0.039000
      6 C7         -0.3790   -1.8830    2.0600 ca        1 NOQ     -0.556500
      7 O1          2.5400   -0.8260   -0.7290 os        1 NOQ     -0.281900
      8 C11        -4.3110   -5.7230    4.0330 c3        1 NOQ      0.092800
      9 N10        -3.1270   -5.3240    4.8420 n4        1 NOQ     -0.687800
     10 C18        -3.2140   -3.9310    5.4460 c         1 NOQ      0.566100
     11 O19        -4.2410   -3.3140    5.1970 o         1 NOQ     -0.464100
     12 C12        -2.0590   -3.4850    6.3250 c3        1 NOQ     -0.115700
     13 C16        -2.6310   -3.5150    7.7500 c3        1 NOQ     -0.083400
     14 C17        -1.6770   -2.9060    8.7520 c3        1 NOQ     -0.080400
     15 C15        -1.3540   -1.4840    8.3540 c3        1 NOQ     -0.090400
     16 C14        -0.7160   -1.4550    6.9860 c3        1 NOQ     -0.076400
     17 C13        -1.5800   -2.0880    5.8920 c3        1 NOQ     -0.014700
     18 C30        -0.7320   -2.1170    4.6220 c3        1 NOQ     -0.339600
     19 S8         -1.4940   -2.3210    3.1140 sy        1 NOQ      1.417300
     20 O9         -2.7260   -1.6170    3.0330 o         1 NOQ     -0.747300
     21 O41        -1.8770   -3.7200    3.0490 o         1 NOQ     -0.747300
     22 C44         2.5660    0.4810   -1.3200 c3        1 NOQ      0.099700
     23 C20        -4.3520   -5.1560    2.6070 c3        1 NOQ      0.091800
     24 N21        -4.7930   -3.7420    2.5050 n4        1 NOQ     -0.845600
     25 H2          2.3900   -3.1000    0.3990 ha        1 NOQ      0.183000
     26 H4          0.5090    0.8200    0.1270 ha        1 NOQ      0.183000
     27 H5         -1.1900    0.1170    1.7820 ha        1 NOQ      0.152500
     28 H6          0.6700   -3.7900    2.0690 ha        1 NOQ      0.152500
     29 H111       -4.2850   -6.8520    3.9290 hx        1 NOQ      0.136200
     30 H112       -5.2440   -5.4460    4.6100 hx        1 NOQ      0.136200
     31 HN10       -2.2790   -5.3350    4.2390 hn        1 NOQ      0.490800
     32 H12        -1.1920   -4.1990    6.2610 hc        1 NOQ      0.093700
     33 H161       -3.5990   -2.9420    7.7740 hc        1 NOQ      0.064700
     34 H162       -2.8460   -4.5790    8.0320 hc        1 NOQ      0.064700
     35 H171       -2.1580   -2.9220    9.7670 hc        1 NOQ      0.075700
     36 H172       -0.7370   -3.5150    8.8150 hc        1 NOQ      0.075700
     37 H151       -2.2870   -0.8600    8.3620 hc        1 NOQ      0.076200
     38 H152       -0.6460   -1.0340    9.1010 hc        1 NOQ      0.076200
     39 H141        0.2720   -1.9880    7.0270 hc        1 NOQ      0.067700
     40 H142       -0.5130   -0.3880    6.6990 hc        1 NOQ      0.067700
     41 H13        -2.4850   -1.4360    5.7240 hc        1 NOQ      0.095700
     42 H301       -0.1540   -1.1420    4.6150 h1        1 NOQ      0.143200
     43 H302        0.0710   -2.8960    4.7590 h1        1 NOQ      0.143200
     44 H441        2.7060    1.2590   -0.5310 h1        1 NOQ      0.075700
     45 H442        3.4600    0.4260   -1.9950 h1        1 NOQ      0.075700
     46 H443        1.6320    0.6570   -1.9060 h1        1 NOQ      0.075700
     47 H201       -5.0820   -5.7950    2.0210 hx        1 NOQ      0.147200
     48 H202       -3.3300   -5.2280    2.1170 hx        1 NOQ      0.147200
     49 H211       -4.0410   -3.0980    2.8270 hn        1 NOQ      0.480800
     50 H212       -5.6240   -3.5680    3.0820 hn        1 NOQ      0.480800
     51 H102       -2.9990   -5.9990    5.6060 hn        1 NOQ      0.490800
     52 H213       -5.0110   -3.5180    1.5260 hn        1 NOQ      0.480800
@<TRIPOS>BOND
     1    1    2 ar  
     2    1    5 ar  
     3    1   25 1   
     4    2    3 ar  
     5    2    7 1   
     6    3    4 ar  
     7    3   26 1   
     8    4    6 ar  
     9    4   27 1   
    10    5    6 ar  
    11    5   28 1   
    12    6   19 1   
    13    7   22 1   
    14    8    9 1   
    15    8   23 1   
    16    8   29 1   
    17    8   30 1   
    18    9   10 1   
    19    9   31 1   
    20    9   51 1   
    21   10   11 2   
    22   10   12 1   
    23   12   13 1   
    24   12   17 1   
    25   12   32 1   
    26   13   14 1   
    27   13   33 1   
    28   13   34 1   
    29   14   15 1   
    30   14   35 1   
    31   14   36 1   
    32   15   16 1   
    33   15   37 1   
    34   15   38 1   
    35   16   17 1   
    36   16   39 1   
    37   16   40 1   
    38   17   18 1   
    39   17   41 1   
    40   18   19 1   
    41   18   42 1   
    42   18   43 1   
    43   19   20 2   
    44   19   21 2   
    45   22   44 1   
    46   22   45 1   
    47   22   46 1   
    48   23   24 1   
    49   23   47 1   
    50   23   48 1   
    51   24   49 1   
    52   24   50 1   
    53   24   52 1   
@<TRIPOS>SUBSTRUCTURE
     1 NOQ         1 TEMP              0 ****  ****    0 ROOT
