@<TRIPOS>MOLECULE
NOQ
   50    51     1     0     0
SMALL
bcc


@<TRIPOS>ATOM
      1 C2         -2.5960   -1.6420    0.6610 ca        1 NOQ     -0.212000
      2 C3         -3.8260   -1.7240   -0.0230 ca        1 NOQ      0.189100
      3 C4         -4.2860   -0.6450   -0.7930 ca        1 NOQ     -0.212000
      4 C5         -3.5150    0.5080   -0.8670 ca        1 NOQ      0.020000
      5 C6         -1.8480   -0.4800    0.5670 ca        1 NOQ      0.020000
      6 C7         -2.2920    0.6180   -0.1920 ca        1 NOQ     -0.436500
      7 O1         -4.4970   -2.9140    0.1280 os        1 NOQ     -0.319900
      8 C11         2.9470   -2.7860   -0.7310 c3        1 NOQ      0.081000
      9 N10         2.9820   -1.3800   -1.0190 n         1 NOQ     -0.565900
     10 C18         2.2360   -0.4510   -0.3160 c         1 NOQ      0.659100
     11 O19         1.3860   -0.8110    0.5230 o         1 NOQ     -0.620100
     12 C12         2.4840    1.0210   -0.6490 c3        1 NOQ     -0.124700
     13 C16         3.7540    1.4600    0.0700 c3        1 NOQ     -0.074400
     14 C17         4.0420    2.9290   -0.1580 c3        1 NOQ     -0.077400
     15 C15         2.8640    3.7810    0.2650 c3        1 NOQ     -0.077400
     16 C14         1.6050    3.3580   -0.4590 c3        1 NOQ     -0.082400
     17 C13         1.2920    1.8840   -0.2310 c3        1 NOQ     -0.016700
     18 C30         0.0340    1.4960   -0.9900 c3        1 NOQ     -0.313600
     19 S8         -1.4260    2.0390   -0.2530 sy        1 NOQ      1.385300
     20 O9         -2.0480    2.9370   -1.1410 o         1 NOQ     -0.660800
     21 O41        -1.1690    2.5260    1.0370 o         1 NOQ     -0.660800
     22 C44        -5.7550   -3.0240   -0.5330 c3        1 NOQ      0.110700
     23 C20         4.2310   -3.3060   -0.0400 c3        1 NOQ      0.135800
     24 N21         4.1910   -4.7330    0.1610 n3        1 NOQ     -0.913800
     25 H2         -2.2470   -2.4980    1.2560 ha        1 NOQ      0.153000
     26 H4         -5.2420   -0.6990   -1.3320 ha        1 NOQ      0.153000
     27 H5         -3.8730    1.3640   -1.4700 ha        1 NOQ      0.167000
     28 H6         -0.8750   -0.4200    1.0930 ha        1 NOQ      0.167000
     29 H111        2.0590   -3.0040   -0.0690 h1        1 NOQ      0.069200
     30 H112        2.8040   -3.3330   -1.7070 h1        1 NOQ      0.069200
     31 HN10        3.7380   -1.0540   -1.5740 hn        1 NOQ      0.303500
     32 H12         2.6260    1.1380   -1.7600 hc        1 NOQ      0.065700
     33 H161        4.6210    0.8500   -0.2950 hc        1 NOQ      0.047700
     34 H162        3.6390    1.2670    1.1700 hc        1 NOQ      0.047700
     35 H171        4.2650    3.1060   -1.2430 hc        1 NOQ      0.042700
     36 H172        4.9520    3.2230    0.4260 hc        1 NOQ      0.042700
     37 H151        3.0790    4.8580    0.0430 hc        1 NOQ      0.049700
     38 H152        2.7100    3.6880    1.3730 hc        1 NOQ      0.049700
     39 H141        1.7200    3.5530   -1.5570 hc        1 NOQ      0.051200
     40 H142        0.7390    3.9710   -0.0900 hc        1 NOQ      0.051200
     41 H13         1.1130    1.7130    0.8720 hc        1 NOQ      0.093700
     42 H301        0.0330    0.3790   -1.1110 h1        1 NOQ      0.116200
     43 H302        0.1000    1.9080   -2.0340 h1        1 NOQ      0.116200
     44 H441       -5.6260   -2.9360   -1.6390 h1        1 NOQ      0.049700
     45 H442       -6.1030   -4.0510   -0.2540 h1        1 NOQ      0.049700
     46 H443       -6.4660   -2.2500   -0.1560 h1        1 NOQ      0.049700
     47 H201        5.1270   -2.9790   -0.6490 h1        1 NOQ      0.027200
     48 H202        4.3220   -2.8210    0.9730 h1        1 NOQ      0.027200
     49 H211        4.0830   -5.2200   -0.7060 hn        1 NOQ      0.353300
     50 H212        5.0250   -5.0440    0.6170 hn        1 NOQ      0.353300
@<TRIPOS>BOND
     1    1    2 ar  
     2    1    5 ar  
     3    1   25 1   
     4    2    3 ar  
     5    2    7 1   
     6    3    4 ar  
     7    3   26 1   
     8    4    6 ar  
     9    4   27 1   
    10    5    6 ar  
    11    5   28 1   
    12    6   19 1   
    13    7   22 1   
    14    8    9 1   
    15    8   23 1   
    16    8   29 1   
    17    8   30 1   
    18    9   10 1   
    19    9   31 1   
    20   10   11 2   
    21   10   12 1   
    22   12   13 1   
    23   12   17 1   
    24   12   32 1   
    25   13   14 1   
    26   13   33 1   
    27   13   34 1   
    28   14   15 1   
    29   14   35 1   
    30   14   36 1   
    31   15   16 1   
    32   15   37 1   
    33   15   38 1   
    34   16   17 1   
    35   16   39 1   
    36   16   40 1   
    37   17   18 1   
    38   17   41 1   
    39   18   19 1   
    40   18   42 1   
    41   18   43 1   
    42   19   20 2   
    43   19   21 2   
    44   22   44 1   
    45   22   45 1   
    46   22   46 1   
    47   23   24 1   
    48   23   47 1   
    49   23   48 1   
    50   24   49 1   
    51   24   50 1   
@<TRIPOS>SUBSTRUCTURE
     1 NOQ         1 TEMP              0 ****  ****    0 ROOT
