@<TRIPOS>MOLECULE
NOQ
   52    53     1     0     0
SMALL
bcc


@<TRIPOS>ATOM
      1 C2          1.4720   -2.0500    0.5900 ca        1 NOQ     -0.207000
      2 C3          1.2850   -0.6550    0.3810 ca        1 NOQ      0.266100
      3 C4          0.2440    0.0230    1.0520 ca        1 NOQ     -0.207000
      4 C5         -0.5780   -0.6770    1.9120 ca        1 NOQ      0.039000
      5 C6          0.6380   -2.7190    1.4530 ca        1 NOQ      0.039000
      6 C7         -0.4120   -2.0630    2.1440 ca        1 NOQ     -0.561500
      7 O1          2.1560   -0.0820   -0.4790 os        1 NOQ     -0.280900
      8 C11        -4.8030   -4.3470    3.7290 c3        1 NOQ      0.072800
      9 N10        -3.7540   -4.5590    4.7570 n4        1 NOQ     -0.703800
     10 C18        -3.5030   -3.2890    5.6120 c         1 NOQ      0.561100
     11 O19        -4.3650   -2.4390    5.5450 o         1 NOQ     -0.358100
     12 C12        -2.2450   -3.3320    6.4610 c3        1 NOQ     -0.112700
     13 C16        -2.6870   -2.8440    7.8480 c3        1 NOQ     -0.082400
     14 C17        -1.5140   -2.7080    8.7900 c3        1 NOQ     -0.082400
     15 C15        -0.4900   -1.7580    8.2120 c3        1 NOQ     -0.089400
     16 C14        -0.0100   -2.2540    6.8680 c3        1 NOQ     -0.075400
     17 C13        -1.1430   -2.4480    5.8560 c3        1 NOQ     -0.013700
     18 C30        -0.5260   -3.0450    4.5920 c3        1 NOQ     -0.349600
     19 S8         -1.3830   -2.8490    3.1300 sy        1 NOQ      1.414300
     20 O9         -2.6370   -2.2380    3.4090 o         1 NOQ     -0.752300
     21 O41        -1.7220   -4.1970    2.7060 o         1 NOQ     -0.752300
     22 C44         2.0310    1.3270   -0.7230 c3        1 NOQ      0.099700
     23 C20        -4.9280   -5.4650    2.6900 c3        1 NOQ      0.084800
     24 N21        -3.9060   -5.4200    1.6110 n4        1 NOQ     -0.842600
     25 H2          2.2880   -2.5640    0.0550 ha        1 NOQ      0.184000
     26 H4          0.0870    1.1020    0.8930 ha        1 NOQ      0.184000
     27 H5         -1.3980   -0.1430    2.4300 ha        1 NOQ      0.156000
     28 H6          0.7830   -3.8030    1.6110 ha        1 NOQ      0.156000
     29 H111       -4.5930   -3.3410    3.2390 hx        1 NOQ      0.160200
     30 H112       -5.8010   -4.2540    4.2580 hx        1 NOQ      0.160200
     31 HN10       -4.0250   -5.3190    5.3880 hn        1 NOQ      0.458300
     32 H12        -1.8530   -4.3830    6.5580 hc        1 NOQ      0.083700
     33 H161       -3.1980   -1.8480    7.7440 hc        1 NOQ      0.072700
     34 H162       -3.4300   -3.5710    8.2700 hc        1 NOQ      0.072700
     35 H171       -1.0480   -3.7110    8.9790 hc        1 NOQ      0.073700
     36 H172       -1.8830   -2.3190    9.7770 hc        1 NOQ      0.073700
     37 H151       -0.9330   -0.7330    8.1090 hc        1 NOQ      0.074200
     38 H152        0.3860   -1.6760    8.9080 hc        1 NOQ      0.074200
     39 H141        0.7210   -1.5140    6.4440 hc        1 NOQ      0.064200
     40 H142        0.5320   -3.2280    7.0010 hc        1 NOQ      0.064200
     41 H13        -1.5930   -1.4420    5.6180 hc        1 NOQ      0.093700
     42 H301        0.5080   -2.5940    4.5010 h1        1 NOQ      0.143200
     43 H302       -0.3170   -4.1350    4.7820 h1        1 NOQ      0.143200
     44 H441        2.1800    1.8980    0.2240 h1        1 NOQ      0.075700
     45 H442        2.8650    1.5240   -1.4470 h1        1 NOQ      0.075700
     46 H443        1.0400    1.5520   -1.1840 h1        1 NOQ      0.075700
     47 H201       -4.8870   -6.4890    3.1670 hx        1 NOQ      0.135200
     48 H202       -5.9490   -5.3490    2.2070 hx        1 NOQ      0.135200
     49 H211       -2.9650   -5.6590    1.9710 hn        1 NOQ      0.482133
     50 H212       -3.8390   -4.4710    1.2200 hn        1 NOQ      0.482133
     51 H102       -2.8640   -4.8110    4.3030 hn        1 NOQ      0.458300
     52 H213       -4.1580   -6.0770    0.8640 hn        1 NOQ      0.482133
@<TRIPOS>BOND
     1    1    2 ar  
     2    1    5 ar  
     3    1   25 1   
     4    2    3 ar  
     5    2    7 1   
     6    3    4 ar  
     7    3   26 1   
     8    4    6 ar  
     9    4   27 1   
    10    5    6 ar  
    11    5   28 1   
    12    6   19 1   
    13    7   22 1   
    14    8    9 1   
    15    8   23 1   
    16    8   29 1   
    17    8   30 1   
    18    9   10 1   
    19    9   31 1   
    20    9   51 1   
    21   10   11 2   
    22   10   12 1   
    23   12   13 1   
    24   12   17 1   
    25   12   32 1   
    26   13   14 1   
    27   13   33 1   
    28   13   34 1   
    29   14   15 1   
    30   14   35 1   
    31   14   36 1   
    32   15   16 1   
    33   15   37 1   
    34   15   38 1   
    35   16   17 1   
    36   16   39 1   
    37   16   40 1   
    38   17   18 1   
    39   17   41 1   
    40   18   19 1   
    41   18   42 1   
    42   18   43 1   
    43   19   20 2   
    44   19   21 2   
    45   22   44 1   
    46   22   45 1   
    47   22   46 1   
    48   23   24 1   
    49   23   47 1   
    50   23   48 1   
    51   24   49 1   
    52   24   50 1   
    53   24   52 1   
@<TRIPOS>SUBSTRUCTURE
     1 NOQ         1 TEMP              0 ****  ****    0 ROOT
