@<TRIPOS>MOLECULE
NOQ
   50    48     1     0     0
SMALL
bcc


@<TRIPOS>ATOM
      1 C2          1.8740   -2.8820   -4.3330 c1        1 NOQ     -0.029500
      2 C3          2.1530   -1.7950   -5.1520 c1        1 NOQ      0.174600
      3 C4          2.3000   -0.5240   -4.5960 c1        1 NOQ     -0.178500
      4 C5          2.1680   -0.3450   -3.2220 c1        1 NOQ      0.078500
      5 C6          1.7410   -2.7030   -2.9540 c1        1 NOQ     -0.029500
      6 C7          1.8880   -1.4350   -2.4000 c1        1 NOQ     -0.476200
      7 O1          2.1380   -1.9520   -6.5620 os        1 NOQ     -0.302400
      8 C11        -2.0630    3.8650    2.4080 c3        1 NOQ      0.040000
      9 N10        -2.3680    2.4610    2.2150 n         1 NOQ     -0.565900
     10 C18        -1.3190    1.4570    2.3840 c         1 NOQ      0.658100
     11 O19        -0.5370    1.5440    3.3120 o         1 NOQ     -0.601100
     12 C12        -1.2450    0.2580    1.4290 c3        1 NOQ     -0.119700
     13 C16        -2.1400   -0.9170    1.9120 c3        1 NOQ     -0.071400
     14 C17        -1.5790   -1.6310    3.1380 c3        1 NOQ     -0.080400
     15 C15        -0.1770   -2.0690    2.9590 c3        1 NOQ     -0.071400
     16 C14         0.7290   -0.9710    2.4960 c3        1 NOQ     -0.098400
     17 C13         0.2030   -0.2470    1.2620 c3        1 NOQ     -0.016700
     18 C30         0.2570   -1.2070    0.0620 c3        1 NOQ     -0.308600
     19 S8          1.9330   -1.2380   -0.6090 s6        1 NOQ      1.434000
     20 O9          2.6600   -0.0680   -0.2370 o         1 NOQ     -0.654800
     21 O41         2.7240   -2.2650    0.0090 o         1 NOQ     -0.654800
     22 C44         3.4230   -2.1100   -7.1360 c3        1 NOQ      0.109700
     23 C20        -3.1640    4.5160    3.2530 c3        1 NOQ      0.127800
     24 N21        -2.9750    5.9300    3.2700 n3        1 NOQ     -0.902800
     25 H2          1.7720   -3.7660   -4.7190 ha        1 NOQ      0.101500
     26 H4          2.4960    0.2390   -5.1700 ha        1 NOQ      0.089500
     27 H5          2.2710    0.5470   -2.8320 ha        1 NOQ      0.099500
     28 H6          1.5470   -3.4570   -2.3860 ha        1 NOQ      0.101500
     29 H111       -2.0130    4.3170    1.5260 h1        1 NOQ      0.060700
     30 H112       -1.2060    3.9530    2.8680 h1        1 NOQ      0.060700
     31 HN10       -3.1980    2.2100    1.9310 hn        1 NOQ      0.302500
     32 H12        -1.5850    0.6510    0.6040 hc        1 NOQ      0.062700
     33 H161       -2.2290   -1.5710    1.1760 hc        1 NOQ      0.041200
     34 H162       -3.0380   -0.5630    2.1340 hc        1 NOQ      0.041200
     35 H171       -1.6240   -1.0220    3.9060 hc        1 NOQ      0.045700
     36 H172       -2.1380   -2.4260    3.3290 hc        1 NOQ      0.045700
     37 H151        0.1610   -2.4160    3.8250 hc        1 NOQ      0.040700
     38 H152       -0.1550   -2.7930    2.2990 hc        1 NOQ      0.040700
     39 H141        0.8320   -0.3210    3.2210 hc        1 NOQ      0.074200
     40 H142        1.6160   -1.3560    2.2850 hc        1 NOQ      0.074200
     41 H13         0.7810    0.5170    1.0780 hc        1 NOQ      0.084700
     42 H301       -0.3700   -0.8980   -0.6350 h1        1 NOQ      0.105700
     43 H302        0.0050   -2.1030    0.3510 h1        1 NOQ      0.105700
     44 H441        3.3620   -2.6960   -7.9210 h1        1 NOQ      0.051700
     45 H442        4.0290   -2.5090   -6.4770 h1        1 NOQ      0.051700
     46 H443        3.7700   -1.2310   -7.4100 h1        1 NOQ      0.051700
     47 H201       -3.1210    4.1700    4.1640 h1        1 NOQ      0.053700
     48 H202       -4.0410    4.3070    2.8650 h1        1 NOQ      0.053700
     49 H211       -2.8220    6.2080    4.1320 hn        1 NOQ      0.349300
     50 H212       -3.7250    6.3420    2.9450 hn        1 NOQ      0.349300
@<TRIPOS>BOND
     1    1    5 3   
     2    1   25 1   
     3    2    3 3   
     4    2    7 1   
     5    3   26 1   
     6    4    6 3   
     7    4   27 1   
     8    5   28 1   
     9    6   19 1   
    10    7   22 1   
    11    8    9 1   
    12    8   23 1   
    13    8   29 1   
    14    8   30 1   
    15    9   10 1   
    16    9   31 1   
    17   10   11 2   
    18   10   12 1   
    19   12   13 1   
    20   12   17 1   
    21   12   32 1   
    22   13   14 1   
    23   13   33 1   
    24   13   34 1   
    25   14   15 1   
    26   14   35 1   
    27   14   36 1   
    28   15   16 1   
    29   15   37 1   
    30   15   38 1   
    31   16   17 1   
    32   16   39 1   
    33   16   40 1   
    34   17   18 1   
    35   17   41 1   
    36   18   19 1   
    37   18   42 1   
    38   18   43 1   
    39   19   20 2   
    40   19   21 2   
    41   22   44 1   
    42   22   45 1   
    43   22   46 1   
    44   23   24 1   
    45   23   47 1   
    46   23   48 1   
    47   24   49 1   
    48   24   50 1   
@<TRIPOS>SUBSTRUCTURE
     1 NOQ         1 TEMP              0 ****  ****    0 ROOT
