@<TRIPOS>MOLECULE
NOQ
   52    53     1     0     0
SMALL
bcc


@<TRIPOS>ATOM
      1 C2          1.5040   -2.0740    0.6140 ca        1 NOQ     -0.207000
      2 C3          1.2980   -0.6870    0.3730 ca        1 NOQ      0.266100
      3 C4          0.2380   -0.0120    1.0170 ca        1 NOQ     -0.207000
      4 C5         -0.5830   -0.7060    1.8820 ca        1 NOQ      0.039000
      5 C6          0.6700   -2.7380    1.4810 ca        1 NOQ      0.039000
      6 C7         -0.3990   -2.0840    2.1450 ca        1 NOQ     -0.561500
      7 O1          2.1710   -0.1180   -0.4880 os        1 NOQ     -0.280900
      8 C11        -4.7730   -4.4050    3.7240 c3        1 NOQ      0.072800
      9 N10        -3.7340   -4.5780    4.7700 ny        1 NOQ     -0.703800
     10 C18        -3.5140   -3.2860    5.6000 c         1 NOQ      0.561100
     11 O19        -4.3890   -2.4520    5.5040 o         1 NOQ     -0.358100
     12 C12        -2.2670   -3.2900    6.4660 c3        1 NOQ     -0.112700
     13 C16        -2.7340   -2.7800    7.8360 c3        1 NOQ     -0.082400
     14 C17        -1.5750   -2.6050    8.7900 c3        1 NOQ     -0.082400
     15 C15        -0.5600   -1.6510    8.2030 c3        1 NOQ     -0.089400
     16 C14        -0.0550   -2.1670    6.8770 c3        1 NOQ     -0.075400
     17 C13        -1.1710   -2.4010    5.8560 c3        1 NOQ     -0.013700
     18 C30        -0.5290   -3.0150    4.6130 c3        1 NOQ     -0.349600
     19 S8         -1.3690   -2.8650    3.1360 sy        1 NOQ      1.414300
     20 O9         -2.6370   -2.2680    3.3860 o         1 NOQ     -0.752300
     21 O41        -1.6820   -4.2270    2.7370 o         1 NOQ     -0.752300
     22 C44         2.0270    1.2840   -0.7630 c3        1 NOQ      0.099700
     23 C20        -4.8660   -5.5470    2.7080 c3        1 NOQ      0.084800
     24 N21        -3.8320   -5.5080    1.6420 nz        1 NOQ     -0.842600
     25 H2          2.3340   -2.5860    0.1000 ha        1 NOQ      0.184000
     26 H4          0.0670    1.0610    0.8340 ha        1 NOQ      0.184000
     27 H5         -1.4170   -0.1750    2.3790 ha        1 NOQ      0.156000
     28 H6          0.8300   -3.8160    1.6630 ha        1 NOQ      0.156000
     29 H111       -5.7790   -4.3170    4.2390 hx        1 NOQ      0.160200
     30 H112       -4.5730   -3.4060    3.2150 hx        1 NOQ      0.160200
     31 HN10       -2.8340   -4.8250    4.3320 hn        1 NOQ      0.458300
     32 H12        -1.8590   -4.3320    6.5900 hc        1 NOQ      0.083700
     33 H161       -3.4700   -3.5090    8.2640 hc        1 NOQ      0.072700
     34 H162       -3.2590   -1.7940    7.7040 hc        1 NOQ      0.072700
     35 H171       -1.9640   -2.2000    9.7630 hc        1 NOQ      0.073700
     36 H172       -1.0960   -3.5950    9.0060 hc        1 NOQ      0.073700
     37 H151       -1.0180   -0.6350    8.0730 hc        1 NOQ      0.074200
     38 H152        0.3060   -1.5390    8.9090 hc        1 NOQ      0.074200
     39 H141        0.5010   -3.1300    7.0380 hc        1 NOQ      0.064200
     40 H142        0.6690   -1.4250    6.4460 hc        1 NOQ      0.064200
     41 H13        -1.6340   -1.4080    5.5900 hc        1 NOQ      0.093700
     42 H301       -0.3050   -4.0980    4.8280 h1        1 NOQ      0.143200
     43 H302        0.4990   -2.5500    4.5250 h1        1 NOQ      0.143200
     44 H441        2.8670    1.4780   -1.4810 h1        1 NOQ      0.075700
     45 H442        1.0380    1.4820   -1.2410 h1        1 NOQ      0.075700
     46 H443        2.1550    1.8760    0.1740 h1        1 NOQ      0.075700
     47 H201       -5.8820   -5.4580    2.2100 hx        1 NOQ      0.135200
     48 H202       -4.8150   -6.5590    3.2080 hx        1 NOQ      0.135200
     49 H211       -2.8910   -5.7240    2.0180 hn        1 NOQ      0.482133
     50 H212       -3.7750   -4.5670    1.2310 hn        1 NOQ      0.482133
     51 H102       -4.0000   -5.3290    5.4140 hn        1 NOQ      0.458300
     52 H213       -4.0630   -6.1860    0.9050 hn        1 NOQ      0.482133
@<TRIPOS>BOND
     1    1    2 ar  
     2    1    5 ar  
     3    1   25 1   
     4    2    3 ar  
     5    2    7 1   
     6    3    4 ar  
     7    3   26 1   
     8    4    6 ar  
     9    4   27 1   
    10    5    6 ar  
    11    5   28 1   
    12    6   19 1   
    13    7   22 1   
    14    8    9 1   
    15    8   23 1   
    16    8   29 1   
    17    8   30 1   
    18    9   10 1   
    19    9   31 1   
    20    9   51 1   
    21   10   11 2   
    22   10   12 1   
    23   12   13 1   
    24   12   17 1   
    25   12   32 1   
    26   13   14 1   
    27   13   33 1   
    28   13   34 1   
    29   14   15 1   
    30   14   35 1   
    31   14   36 1   
    32   15   16 1   
    33   15   37 1   
    34   15   38 1   
    35   16   17 1   
    36   16   39 1   
    37   16   40 1   
    38   17   18 1   
    39   17   41 1   
    40   18   19 1   
    41   18   42 1   
    42   18   43 1   
    43   19   20 2   
    44   19   21 2   
    45   22   44 1   
    46   22   45 1   
    47   22   46 1   
    48   23   24 1   
    49   23   47 1   
    50   23   48 1   
    51   24   49 1   
    52   24   50 1   
    53   24   52 1   
@<TRIPOS>SUBSTRUCTURE
     1 NOQ         1 TEMP              0 ****  ****    0 ROOT
