@<TRIPOS>MOLECULE
NOR
   42    42     1     0     0
SMALL
bcc


@<TRIPOS>ATOM
      1 N          -2.1220    0.0360   -0.2370 n3        1 NOR     -0.903800
      2 CA         -0.7170    0.2090   -0.0950 c3        1 NOR      0.194500
      3 CB         -0.3710    0.3460    1.3700 c3        1 NOR     -0.067400
      4 CG         -0.3210    1.6510    1.6980 c3        1 NOR     -0.051700
      5 CD1         0.9870    2.0030    2.5290 c3        1 NOR     -0.070900
      6 CD2        -1.3820    2.0220    2.8510 c3        1 NOR     -0.070900
      7 CE1         1.1520    1.1440    3.7730 c3        1 NOR     -0.075400
      8 CE2        -1.2360    1.1670    4.0850 c3        1 NOR     -0.075400
      9 CZ         -0.0170    0.5680    4.1370 c3        1 NOR     -0.075400
     10 CH         -0.0010   -0.9910   -0.6710 c3        1 NOR      0.054100
     11 OH         -0.5690   -2.1700   -0.1500 oh        1 NOR     -0.584800
     12 C          -0.1410   -0.9870   -2.1760 c         1 NOR      0.597100
     13 O1         -1.2150   -0.7370   -2.6860 o         1 NOR     -0.534000
     14 O2          0.9760   -1.2510   -2.9850 os        1 NOR     -0.455900
     15 CM          0.6560   -1.5130   -4.3290 c3        1 NOR      0.151100
     16 CM1         1.2360   -0.4270   -5.2060 c3        1 NOR     -0.109600
     17 CM2         1.2350   -2.8500   -4.7330 c3        1 NOR     -0.109600
     18 HN1        -2.4600    0.7040   -0.7640 hn        1 NOR      0.363300
     19 HN2        -2.2920   -0.7760   -0.6260 hn        1 NOR      0.363300
     20 HA         -0.4380    1.0140   -0.5730 h1        1 NOR      0.074700
     21 HB1         0.5010   -0.0670    1.5400 hc        1 NOR      0.048200
     22 HB2        -1.0560   -0.1000    1.9100 hc        1 NOR      0.048200
     23 HG         -0.4190    2.2300    0.9170 hc        1 NOR      0.046700
     24 HD11        1.7680    1.8760    1.9550 hc        1 NOR      0.043200
     25 HD12        0.9440    2.9420    2.8000 hc        1 NOR      0.043200
     26 HD21       -2.2860    1.9070    2.4950 hc        1 NOR      0.043200
     27 HD22       -1.2580    2.9590    3.1020 hc        1 NOR      0.043200
     28 HE11        1.8110    0.4420    3.5920 hc        1 NOR      0.037200
     29 HE12        1.4750    1.7050    4.5080 hc        1 NOR      0.037200
     30 HE21       -1.9310    0.4770    4.0800 hc        1 NOR      0.037200
     31 HE22       -1.3500    1.7300    4.8790 hc        1 NOR      0.037200
     32 HZ1         0.1030    0.2820    5.0680 hc        1 NOR      0.035200
     33 HZ2        -0.0940   -0.2480    3.5980 hc        1 NOR      0.035200
     34 HC          0.9460   -0.9520   -0.4310 h1        1 NOR      0.067700
     35 HH          0.0430   -2.8150   -0.1420 ho        1 NOR      0.422000
     36 HM         -0.3160   -1.5330   -4.4340 h1        1 NOR      0.070700
     37 HM11        2.2070   -0.5410   -5.2680 hc        1 NOR      0.049700
     38 HM12        1.0340    0.4500   -4.8170 hc        1 NOR      0.049700
     39 HM13        0.8420   -0.4860   -6.1020 hc        1 NOR      0.049700
     40 HM21        1.0870   -3.5010   -4.0140 hc        1 NOR      0.049700
     41 HM22        0.7960   -3.1620   -5.5510 hc        1 NOR      0.049700
     42 HM23        2.1970   -2.7550   -4.8940 hc        1 NOR      0.049700
@<TRIPOS>BOND
     1    1    2 1   
     2    1   18 1   
     3    1   19 1   
     4    2    3 1   
     5    2   10 1   
     6    2   20 1   
     7    3    4 1   
     8    3   21 1   
     9    3   22 1   
    10    4    5 1   
    11    4    6 1   
    12    4   23 1   
    13    5    7 1   
    14    5   24 1   
    15    5   25 1   
    16    6    8 1   
    17    6   26 1   
    18    6   27 1   
    19    7    9 1   
    20    7   28 1   
    21    7   29 1   
    22    8    9 1   
    23    8   30 1   
    24    8   31 1   
    25    9   32 1   
    26    9   33 1   
    27   10   11 1   
    28   10   12 1   
    29   10   34 1   
    30   11   35 1   
    31   12   13 2   
    32   12   14 1   
    33   14   15 1   
    34   15   16 1   
    35   15   17 1   
    36   15   36 1   
    37   16   37 1   
    38   16   38 1   
    39   16   39 1   
    40   17   40 1   
    41   17   41 1   
    42   17   42 1   
@<TRIPOS>SUBSTRUCTURE
     1 NOR         1 TEMP              0 ****  ****    0 ROOT
