@<TRIPOS>MOLECULE
NOR
   42    42     1     0     0
SMALL
bcc


@<TRIPOS>ATOM
      1 N          -0.0360    0.6480    1.7320 n3        1 NOR     -0.906800
      2 CA         -0.0510    0.4890    0.2930 c3        1 NOR      0.141500
      3 CB         -1.3440    0.9020   -0.4240 c3        1 NOR     -0.114400
      4 CG         -2.5980    0.2470    0.1300 c3        1 NOR     -0.063700
      5 CD1        -2.5440   -1.2690    0.0130 c3        1 NOR     -0.074900
      6 CD2        -3.8170    0.7890   -0.6110 c3        1 NOR     -0.074900
      7 CE1        -3.8250   -1.9090    0.5070 c3        1 NOR     -0.076400
      8 CE2        -5.0950    0.1520   -0.1100 c3        1 NOR     -0.076400
      9 CZ         -5.0360   -1.3580   -0.2170 c3        1 NOR     -0.077400
     10 CH          1.1140    1.2790   -0.3650 c3        1 NOR      0.106100
     11 OH          1.0280    2.6650   -0.1180 oh        1 NOR     -0.587800
     12 C           2.4430    0.7360    0.1170 c         1 NOR      0.618100
     13 O1          3.2400    1.3070    0.8640 o         1 NOR     -0.542000
     14 O2          2.7270   -0.5020   -0.3710 os        1 NOR     -0.437900
     15 CM          3.9640   -1.1230    0.0560 c3        1 NOR      0.149100
     16 CM1         3.7400   -2.6130   -0.1070 c3        1 NOR     -0.109100
     17 CM2         5.1020   -0.6180   -0.8070 c3        1 NOR     -0.109100
     18 HN1        -0.2710    1.5880    1.9850 hn        1 NOR      0.354300
     19 HN2        -0.6950    0.0220    2.1540 hn        1 NOR      0.354300
     20 HA          0.1470   -0.6050    0.0760 h1        1 NOR      0.077700
     21 HB1        -1.4510    2.0180   -0.3600 hc        1 NOR      0.055200
     22 HB2        -1.2410    0.6370   -1.5090 hc        1 NOR      0.055200
     23 HG         -2.7120    0.5160    1.2180 hc        1 NOR      0.041700
     24 HD11       -2.3700   -1.5530   -1.0580 hc        1 NOR      0.041450
     25 HD12       -1.6810   -1.6620    0.6110 hc        1 NOR      0.041450
     26 HD21       -3.8720    1.9000   -0.4740 hc        1 NOR      0.041450
     27 HD22       -3.7020    0.5880   -1.7090 hc        1 NOR      0.041450
     28 HE11       -3.7690   -3.0180    0.3560 hc        1 NOR      0.039700
     29 HE12       -3.9330   -1.7240    1.6090 hc        1 NOR      0.039700
     30 HE21       -5.2660    0.4440    0.9600 hc        1 NOR      0.039700
     31 HE22       -5.9630    0.5370   -0.7060 hc        1 NOR      0.039700
     32 HZ1        -4.9920   -1.6550   -1.2980 hc        1 NOR      0.040200
     33 HZ2        -5.9680   -1.8040    0.2180 hc        1 NOR      0.040200
     34 HC          1.0450    1.1720   -1.4850 h1        1 NOR      0.102700
     35 HH          1.4050    2.8390    0.7570 ho        1 NOR      0.427000
     36 HM          4.1460   -0.8610    1.1350 h1        1 NOR      0.072700
     37 HM11        3.5150   -2.8610   -1.1720 hc        1 NOR      0.048367
     38 HM12        4.6630   -3.1560    0.2080 hc        1 NOR      0.048367
     39 HM13        2.8830   -2.9470    0.5240 hc        1 NOR      0.048367
     40 HM21        4.8990   -0.8220   -1.8850 hc        1 NOR      0.048367
     41 HM22        5.2230    0.4840   -0.6650 hc        1 NOR      0.048367
     42 HM23        6.0490   -1.1290   -0.5120 hc        1 NOR      0.048367
@<TRIPOS>BOND
     1    1    2 1   
     2    1   18 1   
     3    1   19 1   
     4    2    3 1   
     5    2   10 1   
     6    2   20 1   
     7    3    4 1   
     8    3   21 1   
     9    3   22 1   
    10    4    5 1   
    11    4    6 1   
    12    4   23 1   
    13    5    7 1   
    14    5   24 1   
    15    5   25 1   
    16    6    8 1   
    17    6   26 1   
    18    6   27 1   
    19    7    9 1   
    20    7   28 1   
    21    7   29 1   
    22    8    9 1   
    23    8   30 1   
    24    8   31 1   
    25    9   32 1   
    26    9   33 1   
    27   10   11 1   
    28   10   12 1   
    29   10   34 1   
    30   11   35 1   
    31   12   13 2   
    32   12   14 1   
    33   14   15 1   
    34   15   16 1   
    35   15   17 1   
    36   15   36 1   
    37   16   37 1   
    38   16   38 1   
    39   16   39 1   
    40   17   40 1   
    41   17   41 1   
    42   17   42 1   
@<TRIPOS>SUBSTRUCTURE
     1 NOR         1 TEMP              0 ****  ****    0 ROOT
