@<TRIPOS>MOLECULE
NOS
   31    27     1     0     0
SMALL
bcc


@<TRIPOS>ATOM
      1 N9          0.1680    0.3180   -0.7240 n2        1 NOS     -0.193000
      2 C4          1.4600    0.5820   -0.8290 c1        1 NOS      0.055000
      3 N3          2.4140    0.8380    0.1100 n1        1 NOS     -0.203000
      4 C2          3.7730    0.9380   -0.2710 c1        1 NOS      0.017000
      5 N1          4.1300    0.7780   -1.5860 n1        1 NOS     -0.269000
      6 C6          3.1930    0.5260   -2.5080 c1        1 NOS      0.224000
      7 O6          3.8460    0.0050   -3.6120 o         1 NOS     -0.209000
      8 C5          1.8140    0.4240   -2.1230 c1        1 NOS     -0.181000
      9 N7          0.7250    0.0610   -2.8040 n1        1 NOS     -0.081000
     10 C8         -0.2940   -0.0070   -1.9450 c1        1 NOS     -0.033000
     11 C5'        -0.2480   -1.5310    1.6720 c3        1 NOS     -0.038000
     12 O5'        -0.2190   -2.3970    2.8260 oh        1 NOS     -0.341000
     13 C4'        -1.1050   -0.2230    2.0080 c3        1 NOS     -0.012000
     14 O4'        -0.4450    1.0450    1.3340 os        1 NOS     -0.273000
     15 C1'        -0.8280    1.0440    0.1250 c2        1 NOS      0.122000
     16 C2'        -2.1680    0.3160    0.1350 c3        1 NOS      0.025000
     17 O2'        -3.2060    1.2080   -0.0510 oh        1 NOS     -0.303000
     18 C3'        -2.2700   -0.3260    1.5160 c3        1 NOS     -0.018000
     19 O3'        -3.2370    0.4140    2.3470 oh        1 NOS     -0.326000
     20 H2          4.4530    1.1210    0.3980 ha        1 NOS      0.194000
     21 HO6         4.0330    0.6610   -4.1810 ho        1 NOS      0.244000
     22 H8         -1.1670   -0.1230   -2.1650 DU        1 NOS      0.210000
     23 H5'1        0.6090   -1.2860    1.4510 h1        1 NOS      0.085000
     24 H5'2       -0.6690   -2.0260    0.8900 h1        1 NOS      0.085000
     25 HO5'       -0.2590   -3.2570    2.5580 ho        1 NOS      0.211000
     26 H4'        -1.1560   -0.1020    2.9230 h1        1 NOS      0.126000
     27 H1'        -0.9590    2.0450   -0.2250 h4        1 NOS      0.145000
     28 H2'        -2.1820   -0.4180   -0.6080 h1        1 NOS      0.157000
     29 HO2'       -3.8150    0.8600   -0.7470 ho        1 NOS      0.224000
     30 H3'        -2.5590   -1.3580    1.4360 h1        1 NOS      0.128000
     31 HO3'       -3.8290   -0.1300    2.6470 ho        1 NOS      0.227000
@<TRIPOS>BOND
     1    1    2 1   
     2    1   10 1   
     3    2    8 1   
     4    3    4 1   
     5    4   20 1   
     6    5    6 1   
     7    6    8 1   
     8    7   21 1   
     9    9   10 1   
    10   11   12 1   
    11   11   13 1   
    12   11   23 1   
    13   11   24 1   
    14   12   25 1   
    15   13   14 1   
    16   13   18 1   
    17   13   26 1   
    18   14   15 1   
    19   15   16 1   
    20   15   27 1   
    21   16   17 1   
    22   16   18 1   
    23   16   28 1   
    24   17   29 1   
    25   18   19 1   
    26   18   30 1   
    27   19   31 1   
@<TRIPOS>SUBSTRUCTURE
     1 NOS         1 TEMP              0 ****  ****    0 ROOT
