@<TRIPOS>MOLECULE
NOS
   31    33     1     0     0
SMALL
bcc


@<TRIPOS>ATOM
      1 N9         -0.3100   -0.3430   -0.1670 na        1 NOS     -0.284000
      2 C4         -0.2010    0.2220   -1.4490 ca        1 NOS      0.458800
      3 N3         -0.8590    1.2730   -2.0220 nb        1 NOS     -0.706000
      4 C2         -0.4900    1.4960   -3.3040 ca        1 NOS      0.683900
      5 N1          0.4210    0.8270   -4.0700 nb        1 NOS     -0.795000
      6 C6          1.0670   -0.2180   -3.4910 ca        1 NOS      0.724600
      7 O6          1.9900   -0.9450   -4.1840 oh        1 NOS     -0.582300
      8 C5          0.8020   -0.5890   -2.1460 ca        1 NOS     -0.179200
      9 N7          1.2890   -1.5890   -1.2900 nc        1 NOS     -0.500100
     10 C8          0.6300   -1.4080   -0.1380 cd        1 NOS      0.398700
     11 C5'         1.5550    0.1210    3.0570 c3        1 NOS      0.118400
     12 O5'         2.2850    1.3250    3.1080 oh        1 NOS     -0.587800
     13 C4'         0.0510    0.3950    3.0060 c3        1 NOS      0.052100
     14 O4'        -0.2630    1.0370    1.7640 os        1 NOS     -0.408600
     15 C1'        -1.0750    0.1960    0.9290 c3        1 NOS      0.244800
     16 C2'        -1.6860   -0.9070    1.8560 c3        1 NOS      0.126100
     17 O2'        -3.0180   -0.5060    2.0860 oh        1 NOS     -0.581800
     18 C3'        -0.7860   -0.8910    3.1130 c3        1 NOS      0.082100
     19 O3'        -1.6280   -0.9180    4.2480 oh        1 NOS     -0.596800
     20 H2         -0.9990    2.3450   -3.8100 h5        1 NOS      0.060100
     21 HO6         2.0750   -0.5890   -5.0870 ho        1 NOS      0.446000
     22 H8          0.7580   -2.0200    0.7640 h5        1 NOS      0.069800
     23 H5'1        1.8650   -0.4890    2.1660 h1        1 NOS      0.051700
     24 H5'2        1.8180   -0.4210    4.0040 h1        1 NOS      0.051700
     25 HO5'        2.0420    1.8390    2.3260 ho        1 NOS      0.419000
     26 H1'        -1.8800    0.8780    0.5140 h2        1 NOS      0.148700
     27 H2'        -1.6880   -1.9250    1.3840 h1        1 NOS      0.070700
     28 HO2'       -3.3000   -0.8700    2.9380 ho        1 NOS      0.438000
     29 H3'        -0.1220   -1.7990    3.1280 h1        1 NOS      0.056700
     30 HO3'       -1.0970   -0.6510    5.0090 ho        1 NOS      0.426000
     31 H4'        -0.2320    1.1410    3.8020 h1        1 NOS      0.094700
@<TRIPOS>BOND
     1    1    2 1   
     2    1   10 1   
     3    1   15 1   
     4    2    3 ar  
     5    2    8 ar  
     6    3    4 ar  
     7    4    5 ar  
     8    4   20 1   
     9    5    6 ar  
    10    6    7 1   
    11    6    8 ar  
    12    7   21 1   
    13    8    9 1   
    14    9   10 2   
    15   10   22 1   
    16   11   12 1   
    17   11   13 1   
    18   11   23 1   
    19   11   24 1   
    20   12   25 1   
    21   13   14 1   
    22   13   18 1   
    23   13   31 1   
    24   14   15 1   
    25   15   16 1   
    26   15   26 1   
    27   16   17 1   
    28   16   18 1   
    29   16   27 1   
    30   17   28 1   
    31   18   19 1   
    32   18   29 1   
    33   19   30 1   
@<TRIPOS>SUBSTRUCTURE
     1 NOS         1 TEMP              0 ****  ****    0 ROOT
