@<TRIPOS>MOLECULE
NOS
   31    33     1     0     0
SMALL
bcc


@<TRIPOS>ATOM
      1 N9         -0.2290   -0.3600    0.4810 na        1 NOS     -0.292000
      2 C4          1.0460    0.0770    0.1020 ca        1 NOS      0.429800
      3 N3          2.0020    0.7640    0.7990 nb        1 NOS     -0.732000
      4 C2          3.1160    1.0030    0.0720 ca        1 NOS      0.679900
      5 N1          3.3940    0.6620   -1.2210 nb        1 NOS     -0.796000
      6 C6          2.4350   -0.0160   -1.9030 ca        1 NOS      0.722600
      7 O6          2.6310   -0.3920   -3.2000 oh        1 NOS     -0.580300
      8 C5          1.1990   -0.3560   -1.2920 ca        1 NOS     -0.167200
      9 N7          0.0450   -1.0340   -1.7100 nc        1 NOS     -0.519100
     10 C8         -0.7720   -1.0260   -0.6470 cd        1 NOS      0.426700
     11 C5'        -3.6800    0.3180    0.4070 c3        1 NOS      0.107400
     12 O5'        -4.0540   -0.9660   -0.0590 oh        1 NOS     -0.590800
     13 C4'        -3.1180    0.1490    1.8180 c3        1 NOS      0.091100
     14 O4'        -2.0890   -0.8500    1.8440 os        1 NOS     -0.382600
     15 C1'        -0.7980   -0.2420    1.8060 c3        1 NOS      0.218800
     16 C2'        -0.9710    1.2380    2.2910 c3        1 NOS      0.080100
     17 O2'        -0.4780    1.3480    3.6070 oh        1 NOS     -0.589800
     18 C3'        -2.5000    1.4730    2.3230 c3        1 NOS      0.129100
     19 O3'        -2.9940    1.8270    3.5890 oh        1 NOS     -0.572800
     20 H2          3.9260    1.5560    0.5960 h5        1 NOS      0.057100
     21 HO6         3.5140   -0.1060   -3.4930 ho        1 NOS      0.445000
     22 H8         -1.7800   -1.4730   -0.5900 h5        1 NOS      0.106800
     23 H5'1       -2.9010    0.7500   -0.2790 h1        1 NOS      0.036200
     24 H5'2       -4.5670    1.0040    0.4450 h1        1 NOS      0.036200
     25 HO5'       -4.5590   -0.8290   -0.8700 ho        1 NOS      0.407000
     26 H1'        -0.1610   -0.8340    2.5310 h2        1 NOS      0.108700
     27 H2'        -0.4670    1.9730    1.6110 h1        1 NOS      0.081700
     28 HO2'        0.4820    1.4410    3.5410 ho        1 NOS      0.431000
     29 H3'        -2.7820    2.3350    1.6580 h1        1 NOS      0.092700
     30 HO3'       -2.5860    1.2480    4.2470 ho        1 NOS      0.427000
     31 H4'        -3.9100   -0.2420    2.5130 h1        1 NOS      0.107700
@<TRIPOS>BOND
     1    1    2 1   
     2    1   10 1   
     3    1   15 1   
     4    2    3 ar  
     5    2    8 ar  
     6    3    4 ar  
     7    4    5 ar  
     8    4   20 1   
     9    5    6 ar  
    10    6    7 1   
    11    6    8 ar  
    12    7   21 1   
    13    8    9 1   
    14    9   10 2   
    15   10   22 1   
    16   11   12 1   
    17   11   13 1   
    18   11   23 1   
    19   11   24 1   
    20   12   25 1   
    21   13   14 1   
    22   13   18 1   
    23   13   31 1   
    24   14   15 1   
    25   15   16 1   
    26   15   26 1   
    27   16   17 1   
    28   16   18 1   
    29   16   27 1   
    30   17   28 1   
    31   18   19 1   
    32   18   29 1   
    33   19   30 1   
@<TRIPOS>SUBSTRUCTURE
     1 NOS         1 TEMP              0 ****  ****    0 ROOT
