@<TRIPOS>MOLECULE
NOS
   31    33     1     0     0
SMALL
bcc


@<TRIPOS>ATOM
      1 N9         -0.1860   -0.4530    0.4330 na        1 NOS     -0.290000
      2 C4          1.0590    0.0840    0.0820 ca        1 NOS      0.429800
      3 N3          1.9180    0.8870    0.7810 nb        1 NOS     -0.738000
      4 C2          3.0370    1.1930    0.0900 ca        1 NOS      0.682900
      5 N1          3.4030    0.8190   -1.1720 nb        1 NOS     -0.796000
      6 C6          2.5410    0.0250   -1.8570 ca        1 NOS      0.724600
      7 O6          2.8270   -0.3920   -3.1240 oh        1 NOS     -0.579300
      8 C5          1.3130   -0.3980   -1.2810 ca        1 NOS     -0.167200
      9 N7          0.2460   -1.1990   -1.7100 nc        1 NOS     -0.516100
     10 C8         -0.6150   -1.2160   -0.6810 cd        1 NOS      0.427700
     11 C5'        -3.7830    0.3400    0.4390 c3        1 NOS      0.109400
     12 O5'        -4.6610   -0.7380    0.1650 oh        1 NOS     -0.589800
     13 C4'        -3.1580    0.0640    1.8060 c3        1 NOS      0.127100
     14 O4'        -2.1200   -0.9220    1.6890 os        1 NOS     -0.391600
     15 C1'        -0.8280   -0.3160    1.7240 c3        1 NOS      0.222800
     16 C2'        -1.0070    1.1710    2.1770 c3        1 NOS      0.082100
     17 O2'        -0.3330    1.3930    3.3940 oh        1 NOS     -0.594800
     18 C3'        -2.5260    1.3360    2.4090 c3        1 NOS      0.130100
     19 O3'        -2.9090    1.3860    3.7660 oh        1 NOS     -0.584800
     20 H2          3.7700    1.8420    0.6170 h5        1 NOS      0.057100
     21 HO6         3.6940   -0.0410   -3.3950 ho        1 NOS      0.446000
     22 H8         -1.5730   -1.7570   -0.6450 h5        1 NOS      0.096800
     23 H5'1       -2.9870    0.4000   -0.3510 h1        1 NOS      0.034200
     24 H5'2       -4.3580    1.3040    0.4690 h1        1 NOS      0.034200
     25 HO5'       -5.0510   -0.5620   -0.7000 ho        1 NOS      0.406000
     26 H1'        -0.2300   -0.9000    2.4880 h2        1 NOS      0.107700
     27 H2'        -0.6530    1.8950    1.3950 h1        1 NOS      0.073700
     28 HO2'        0.6120    1.4450    3.1880 ho        1 NOS      0.438000
     29 H3'        -2.8910    2.2670    1.8970 h1        1 NOS      0.058700
     30 HO3'       -2.2290    1.8710    4.2530 ho        1 NOS      0.432000
     31 H4'        -3.9130   -0.3980    2.5020 h1        1 NOS      0.126700
@<TRIPOS>BOND
     1    1    2 1   
     2    1   10 1   
     3    1   15 1   
     4    2    3 ar  
     5    2    8 ar  
     6    3    4 ar  
     7    4    5 ar  
     8    4   20 1   
     9    5    6 ar  
    10    6    7 1   
    11    6    8 ar  
    12    7   21 1   
    13    8    9 1   
    14    9   10 2   
    15   10   22 1   
    16   11   12 1   
    17   11   13 1   
    18   11   23 1   
    19   11   24 1   
    20   12   25 1   
    21   13   14 1   
    22   13   18 1   
    23   13   31 1   
    24   14   15 1   
    25   15   16 1   
    26   15   26 1   
    27   16   17 1   
    28   16   18 1   
    29   16   27 1   
    30   17   28 1   
    31   18   19 1   
    32   18   29 1   
    33   19   30 1   
@<TRIPOS>SUBSTRUCTURE
     1 NOS         1 TEMP              0 ****  ****    0 ROOT
