@<TRIPOS>MOLECULE
NOS
   31    33     1     0     0
SMALL
bcc


@<TRIPOS>ATOM
      1 N9         -0.2330   -0.3580    0.4660 na        1 NOS     -0.292000
      2 C4          1.0380    0.0810    0.0750 ca        1 NOS      0.429800
      3 N3          2.0040    0.7570    0.7680 nb        1 NOS     -0.732000
      4 C2          3.1090    1.0040    0.0300 ca        1 NOS      0.679900
      5 N1          3.3690    0.6800   -1.2710 nb        1 NOS     -0.796000
      6 C6          2.4000    0.0120   -1.9490 ca        1 NOS      0.722600
      7 O6          2.5770   -0.3460   -3.2540 oh        1 NOS     -0.580300
      8 C5          1.1710   -0.3330   -1.3260 ca        1 NOS     -0.167200
      9 N7          0.0100   -1.0030   -1.7380 nc        1 NOS     -0.519100
     10 C8         -0.7930   -1.0080   -0.6640 cd        1 NOS      0.426700
     11 C5'        -3.6830    0.3270    0.4470 c3        1 NOS      0.107400
     12 O5'        -4.0660   -0.9500   -0.0310 oh        1 NOS     -0.590800
     13 C4'        -3.1030    0.1380    1.8480 c3        1 NOS      0.091100
     14 O4'        -2.0760   -0.8630    1.8460 os        1 NOS     -0.382600
     15 C1'        -0.7840   -0.2570    1.7990 c3        1 NOS      0.218800
     16 C2'        -0.9480    1.2160    2.3060 c3        1 NOS      0.080100
     17 O2'        -0.4370    1.3080    3.6170 oh        1 NOS     -0.589800
     18 C3'        -2.4760    1.4540    2.3620 c3        1 NOS      0.129100
     19 O3'        -2.9510    1.7920    3.6400 oh        1 NOS     -0.572800
     20 H2          3.9270    1.5480    0.5500 h5        1 NOS      0.057100
     21 HO6         3.4570   -0.0580   -3.5540 ho        1 NOS      0.445000
     22 H8         -1.8010   -1.4530   -0.6000 h5        1 NOS      0.106800
     23 H5'1       -2.9130    0.7680   -0.2430 h1        1 NOS      0.036200
     24 H5'2       -4.5690    1.0140    0.5060 h1        1 NOS      0.036200
     25 HO5'       -4.5810   -0.8000   -0.8340 ho        1 NOS      0.407000
     26 H1'        -0.1390   -0.8600    2.5080 h2        1 NOS      0.108700
     27 H2'        -0.4520    1.9600    1.6300 h1        1 NOS      0.081700
     28 HO2'        0.5230    1.4000    3.5390 ho        1 NOS      0.431000
     29 H3'        -2.7650    2.3250    1.7140 h1        1 NOS      0.092700
     30 HO3'       -2.5350    1.2020    4.2850 ho        1 NOS      0.427000
     31 H4'        -3.8870   -0.2610    2.5470 h1        1 NOS      0.107700
@<TRIPOS>BOND
     1    1    2 1   
     2    1   10 1   
     3    1   15 1   
     4    2    3 ar  
     5    2    8 ar  
     6    3    4 ar  
     7    4    5 ar  
     8    4   20 1   
     9    5    6 ar  
    10    6    7 1   
    11    6    8 ar  
    12    7   21 1   
    13    8    9 1   
    14    9   10 2   
    15   10   22 1   
    16   11   12 1   
    17   11   13 1   
    18   11   23 1   
    19   11   24 1   
    20   12   25 1   
    21   13   14 1   
    22   13   18 1   
    23   13   31 1   
    24   14   15 1   
    25   15   16 1   
    26   15   26 1   
    27   16   17 1   
    28   16   18 1   
    29   16   27 1   
    30   17   28 1   
    31   18   19 1   
    32   18   29 1   
    33   19   30 1   
@<TRIPOS>SUBSTRUCTURE
     1 NOS         1 TEMP              0 ****  ****    0 ROOT
