@<TRIPOS>MOLECULE
NOT
   23    22     1     0     0
SMALL
bcc


@<TRIPOS>ATOM
      1 N           2.5220    1.8060    0.1900 n3        1 NOT     -0.892800
      2 CA          2.2180    0.3940    0.3890 c3        1 NOT      0.017500
      3 C           3.3420   -0.5840   -0.0940 c         1 NOT      0.887600
      4 OXT         4.4010   -0.0830   -0.5690 o         1 NOT     -0.843300
      5 CB          0.9010   -0.0380   -0.2580 c3        1 NOT     -0.063400
      6 CG         -0.2990    0.6190    0.3880 c3        1 NOT     -0.074400
      7 C1         -1.5910    0.1000   -0.2080 c3        1 NOT     -0.103400
      8 C2         -2.7840    0.7460    0.4870 c3        1 NOT      0.157800
      9 O           3.1320   -1.8210    0.0390 o         1 NOT     -0.843300
     10 N1         -4.1060    0.4600   -0.0380 n2        1 NOT     -0.450200
     11 N2         -4.4950   -0.7030   -0.2760 n1        1 NOT      0.223000
     12 N3         -5.0370   -1.6620   -0.5610 n1        1 NOT     -0.099000
     13 HN          3.4870    1.9400    0.4470 hn        1 NOT      0.330800
     14 HNA         2.4650    2.0080   -0.7930 hn        1 NOT      0.330800
     15 HA          2.1280    0.2430    1.5040 h1        1 NOT      0.039700
     16 HB          0.9140    0.1950   -1.3540 hc        1 NOT      0.048200
     17 HBA         0.8340   -1.1540   -0.1520 hc        1 NOT      0.048200
     18 HG         -0.2860    0.4160    1.4920 hc        1 NOT      0.039200
     19 HGA        -0.2430    1.7310    0.2550 hc        1 NOT      0.039200
     20 H1         -1.6150    0.3260   -1.3060 hc        1 NOT      0.043700
     21 H1A        -1.6330   -1.0140   -0.0930 hc        1 NOT      0.043700
     22 H2         -2.7390    0.5010    1.5880 h1        1 NOT      0.060200
     23 H2A        -2.7190    1.8680    0.3800 h1        1 NOT      0.060200
@<TRIPOS>BOND
     1    1    2 1   
     2    1   13 1   
     3    1   14 1   
     4    2    3 1   
     5    2    5 1   
     6    2   15 1   
     7    3    4 1   
     8    3    9 1   
     9    5    6 1   
    10    5   16 1   
    11    5   17 1   
    12    6    7 1   
    13    6   18 1   
    14    6   19 1   
    15    7    8 1   
    16    7   20 1   
    17    7   21 1   
    18    8   10 1   
    19    8   22 1   
    20    8   23 1   
    21   10   11 1   
    22   11   12 3   
@<TRIPOS>SUBSTRUCTURE
     1 NOT         1 TEMP              0 ****  ****    0 ROOT
