@<TRIPOS>MOLECULE
NOV
   80    78     1     0     0
SMALL
bcc


@<TRIPOS>ATOM
      1 C1         -7.3750   -5.4590   -4.5870 c3        1 NOV     -0.076000
      2 O1         -6.1940   -4.6200   -4.5050 os        1 NOV     -0.269000
      3 N1         -8.9040   -1.0010   -3.6990 n         1 NOV     -0.388000
      4 C12        -7.8730   -1.4160   -2.7930 c2        1 NOV      0.392000
      5 O4         -7.3920   -0.6230   -2.0260 o         1 NOV     -0.404000
      6 O5         -7.4740   -2.7660   -2.7500 os        1 NOV     -0.271000
      7 C27        -5.7480   -4.3660   -3.1440 c3        1 NOV      0.002000
      8 C28        -6.0290   -2.9600   -2.8040 c3        1 NOV     -0.005000
      9 C29        -5.4380   -2.5680   -1.4840 c3        1 NOV     -0.009000
     10 O6         -6.1460   -3.2470   -0.4390 oh        1 NOV     -0.296000
     11 C30        -3.9630   -2.9130   -1.3860 c3        1 NOV      0.117000
     12 O7         -3.6880   -4.3040   -1.7310 os        1 NOV     -0.299000
     13 C31        -4.2680   -4.7020   -3.0370 c3        1 NOV      0.090000
     14 C23        -4.0960   -6.1680   -3.2110 c3        1 NOV     -0.220000
     15 C26        -3.5040   -3.9690   -4.1730 c3        1 NOV     -0.220000
     16 O8         -3.5260   -2.6770   -0.0620 os        1 NOV     -0.197000
     17 C3         -2.3250   -1.9360   -0.0830 c2        1 NOV      0.100000
     18 C4         -1.1720   -2.4560    0.5170 c2        1 NOV     -0.074000
     19 C2         -1.2340   -3.8160    1.2580 c3        1 NOV     -0.175000
     20 C5          0.0110   -1.7010    0.5350 c1        1 NOV      0.112000
     21 C9          0.0370   -0.4200   -0.0510 c1        1 NOV     -0.142000
     22 C10        -1.1140    0.0950   -0.6480 c1        1 NOV     -0.044000
     23 C11        -2.2990   -0.6650   -0.6650 c1        1 NOV     -0.188000
     24 O10         1.2290   -2.2430    1.2010 os        1 NOV     -0.173000
     25 C6          2.4730   -1.5030    1.1520 c2        1 NOV      0.345000
     26 O11         3.5090   -2.0160    1.5630 o         1 NOV     -0.314000
     27 C7          2.4940   -0.1360    0.6010 c2        1 NOV     -0.196000
     28 C8          1.3210    0.3920   -0.0400 c2        1 NOV      0.211000
     29 O9          1.3810    1.6630   -0.7250 oh        1 NOV     -0.239000
     30 N2          3.6450    0.7030    0.7980 n         1 NOV     -0.285000
     31 C13         4.1140    0.9760    2.1230 c2        1 NOV      0.341000
     32 O2          3.5360    0.4980    3.0840 o         1 NOV     -0.372000
     33 C14         5.2850    1.9660    2.3410 c2        1 NOV     -0.163000
     34 C15         5.0270    3.2640    2.7910 c2        1 NOV     -0.043000
     35 C16         6.0890    4.1320    3.0740 c1        1 NOV     -0.095000
     36 C17         7.4130    3.6990    2.9070 c1        1 NOV      0.106000
     37 O3          8.4810    4.5050    3.3750 oh        1 NOV     -0.245000
     38 C18         7.6700    2.3980    2.4560 c1        1 NOV     -0.222000
     39 C19         6.6090    1.5330    2.1730 c1        1 NOV     -0.061000
     40 C20         5.7940    5.6070    3.5790 c3        1 NOV     -0.089000
     41 C21         6.9780    6.4920    3.2810 c2        1 NOV     -0.178000
     42 C22         6.9990    7.8000    3.7430 c1        1 NOV     -0.108000
     43 C24         5.8300    8.3390    4.5490 c2        1 NOV     -0.185000
     44 C25         8.1680    8.6720    3.4490 c3        1 NOV     -0.180000
     45 H11A       -7.2960   -6.0590   -5.3540 h1        1 NOV      0.080333
     46 H12        -8.1720   -4.8930   -4.6940 h1        1 NOV      0.080333
     47 H13        -7.4590   -5.9940   -3.7570 h1        1 NOV      0.080333
     48 HN11       -9.3940   -0.2430   -3.5230 hn        1 NOV      0.236500
     49 HN12       -9.0950   -1.5070   -4.4290 hn        1 NOV      0.236500
     50 H27        -6.2480   -4.9450   -2.5340 h1        1 NOV      0.107000
     51 H28        -5.6550   -2.3820   -3.5050 h1        1 NOV      0.133000
     52 H29        -5.5440   -1.6080   -1.3640 h1        1 NOV      0.155000
     53 HO6        -5.9610   -2.8530    0.3550 ho        1 NOV      0.212000
     54 H30        -3.4640   -2.3330   -1.9900 h2        1 NOV      0.107000
     55 H231       -4.6380   -6.6400   -2.5500 hc        1 NOV      0.092167
     56 H232       -4.3850   -6.4250   -4.1140 hc        1 NOV      0.092167
     57 H233       -3.1620   -6.4020   -3.0900 hc        1 NOV      0.092167
     58 H261       -2.5350   -4.1120   -4.0660 hc        1 NOV      0.092167
     59 H262       -3.7970   -4.3280   -5.0550 hc        1 NOV      0.092167
     60 H263       -3.6980   -3.0130   -4.1310 hc        1 NOV      0.092167
     61 H21A       -0.6110   -3.8060    2.0100 hc        1 NOV      0.100667
     62 H22        -0.9880   -4.5350    0.6400 hc        1 NOV      0.100667
     63 H23        -2.1550   -3.9690    1.5940 hc        1 NOV      0.100667
     64 H10        -1.0980    0.9880   -1.0550 ha        1 NOV      0.163000
     65 H11        -3.1260   -0.2670   -0.9970 ha        1 NOV      0.150000
     66 HO9         0.9370    2.2870   -0.2450 ho        1 NOV      0.266000
     67 HN2         4.1050    1.0190    0.0800 hn        1 NOV      0.241000
     68 H15         4.1120    3.5640    2.9070 ha        1 NOV      0.165000
     69 HO3         9.2460    4.0070    3.4110 ho        1 NOV      0.223000
     70 H18         8.5990    2.0920    2.3380 ha        1 NOV      0.140000
     71 H19         6.7910    0.6230    1.8580 ha        1 NOV      0.141000
     72 H201        4.9940    5.9600    3.1130 hc        1 NOV      0.108000
     73 H202        5.6300    5.5950    4.5420 hc        1 NOV      0.108000
     74 H21         7.7200    6.1490    2.7690 ha        1 NOV      0.130000
     75 H241        5.9860    9.2890    4.7600 ha        1 NOV      0.081333
     76 H242        5.7440    7.8270    5.3820 ha        1 NOV      0.081333
     77 H243        5.0090    8.2520    4.0280 ha        1 NOV      0.081333
     78 H251        8.5650    8.4060    2.5990 hc        1 NOV      0.081333
     79 H252        8.8350    8.5780    4.1650 hc        1 NOV      0.081333
     80 H253        7.8760    9.6050    3.3960 hc        1 NOV      0.081333
@<TRIPOS>BOND
     1    1    2 1   
     2    1   45 1   
     3    1   46 1   
     4    1   47 1   
     5    2    7 1   
     6    3    4 1   
     7    3   48 1   
     8    3   49 1   
     9    4    5 1   
    10    4    6 1   
    11    6    8 1   
    12    7    8 1   
    13    7   13 1   
    14    7   50 1   
    15    8    9 1   
    16    8   51 1   
    17    9   10 1   
    18    9   11 1   
    19    9   52 1   
    20   10   53 1   
    21   11   12 1   
    22   11   16 1   
    23   11   54 1   
    24   12   13 1   
    25   13   14 1   
    26   13   15 1   
    27   14   55 1   
    28   14   56 1   
    29   14   57 1   
    30   15   58 1   
    31   15   59 1   
    32   15   60 1   
    33   16   17 1   
    34   17   18 1   
    35   17   23 1   
    36   18   19 1   
    37   18   20 1   
    38   19   61 1   
    39   19   62 1   
    40   19   63 1   
    41   20   24 1   
    42   21   22 1   
    43   21   28 1   
    44   22   64 1   
    45   23   65 1   
    46   24   25 1   
    47   25   26 1   
    48   25   27 1   
    49   27   28 1   
    50   27   30 1   
    51   28   29 1   
    52   29   66 1   
    53   30   31 1   
    54   30   67 1   
    55   31   32 1   
    56   31   33 1   
    57   33   34 1   
    58   33   39 1   
    59   34   35 1   
    60   34   68 1   
    61   35   40 1   
    62   36   37 1   
    63   36   38 1   
    64   37   69 1   
    65   38   70 1   
    66   39   71 1   
    67   40   41 1   
    68   40   72 1   
    69   40   73 1   
    70   41   42 1   
    71   41   74 1   
    72   42   44 1   
    73   43   75 1   
    74   43   76 1   
    75   43   77 1   
    76   44   78 1   
    77   44   79 1   
    78   44   80 1   
@<TRIPOS>SUBSTRUCTURE
     1 NOV         1 TEMP              0 ****  ****    0 ROOT
