@<TRIPOS>MOLECULE
NOV
   82    85     1     0     0
SMALL
bcc


@<TRIPOS>ATOM
      1 C1          1.1670    0.7900   -1.7910 c3        1 NOV      0.099700
      2 O1          2.4620    0.7760   -1.1980 os        1 NOV     -0.395600
      3 N1          1.6090    2.5390    4.3320 n4        1 NOV     -0.723400
      4 C12         1.2990    2.4930    2.8680 c         1 NOV      0.642100
      5 O4          0.5570    3.3040    2.3470 o         1 NOV     -0.371000
      6 O5          1.8890    1.4270    2.2750 os        1 NOV     -0.400900
      7 C27         2.4700    0.4050    0.1730 c3        1 NOV      0.118100
      8 C28         2.4930    1.7220    0.9730 c3        1 NOV      0.139100
      9 C29         3.8780    2.3250    1.2200 c3        1 NOV      0.102100
     10 O6          3.7800    3.0740    2.4270 oh        1 NOV     -0.668800
     11 C30         4.9920    1.2650    1.3770 c3        1 NOV      0.321900
     12 O7          4.9150    0.2490    0.4080 os        1 NOV     -0.414600
     13 C31         3.6920   -0.5070    0.4220 c3        1 NOV      0.165800
     14 C23         3.8530   -1.5060   -0.7210 c3        1 NOV     -0.108100
     15 C26         3.5260   -1.2370    1.7490 c3        1 NOV     -0.108100
     16 O8          6.1850    1.9660    1.0300 os        1 NOV     -0.327900
     17 C3          7.3760    1.2780    0.9510 ca        1 NOV      0.213100
     18 C4          8.4460    2.0310    0.4270 ca        1 NOV     -0.102300
     19 C2          8.2700    3.4280   -0.0250 c3        1 NOV     -0.052800
     20 C5          9.7030    1.3960    0.3540 ca        1 NOV      0.210100
     21 C9          9.9020    0.0590    0.7690 ca        1 NOV     -0.236800
     22 C10         8.7970   -0.6490    1.2850 ca        1 NOV     -0.036000
     23 C11         7.5540   -0.0540    1.3770 ca        1 NOV     -0.189000
     24 O10        10.7200    2.1790   -0.1490 os        1 NOV     -0.281200
     25 C6         11.9860    1.6430   -0.2990 c         1 NOV      0.750800
     26 O11        12.7970    2.4540   -0.7400 o         1 NOV     -0.545500
     27 C7         12.2370    0.2540    0.0770 cc        1 NOV     -0.277200
     28 C8         11.2170   -0.5140    0.6180 cd        1 NOV      0.347900
     29 O9         11.5330   -1.7760    1.0010 oh        1 NOV     -0.475100
     30 N2         13.5740   -0.2490   -0.1700 n4        1 NOV     -0.512600
     31 C13        13.7090   -1.0730   -1.4620 c         1 NOV      0.585700
     32 O2         12.6760   -1.5780   -1.8760 o         1 NOV     -0.432100
     33 C14        15.0480   -1.1260   -2.0260 ca        1 NOV     -0.250600
     34 C15        15.1400   -1.4880   -3.3870 ca        1 NOV     -0.012000
     35 C16        16.3710   -1.5720   -4.0280 ca        1 NOV     -0.089300
     36 C17        17.5400   -1.2990   -3.2740 ca        1 NOV      0.209100
     37 O3         18.7300   -1.3980   -3.9280 oh        1 NOV     -0.457100
     38 C18        17.4550   -0.9480   -1.9110 ca        1 NOV     -0.215000
     39 C19        16.2180   -0.8620   -1.2950 ca        1 NOV     -0.050000
     40 C20        16.4790   -1.9680   -5.4600 c3        1 NOV     -0.002900
     41 C21        15.3300   -1.5230   -6.2830 c2        1 NOV     -0.223200
     42 C22        14.8870   -2.1790   -7.3670 c2        1 NOV     -0.075400
     43 C24        15.4800   -3.4560   -7.8340 c3        1 NOV     -0.071400
     44 C25        13.7650   -1.6540   -8.1840 c3        1 NOV     -0.071400
     45 H11A        1.3650    1.0970   -2.8500 h1        1 NOV      0.056367
     46 H12         0.7080   -0.2280   -1.7560 h1        1 NOV      0.056367
     47 H13         0.5080    1.5340   -1.2810 h1        1 NOV      0.056367
     48 HN11        1.0260    3.2550    4.7850 hn        1 NOV      0.487133
     49 HN12        2.6070    2.7810    4.4310 hn        1 NOV      0.487133
     50 H27         1.5400   -0.1680    0.4530 h1        1 NOV      0.087700
     51 H28         1.8460    2.4800    0.4410 h1        1 NOV      0.115700
     52 H29         4.1360    2.9950    0.3480 h1        1 NOV      0.119700
     53 HO6         4.5180    3.6990    2.4290 ho        1 NOV      0.457000
     54 H30         5.0500    0.8550    2.4210 h2        1 NOV      0.062700
     55 H231        4.6530   -2.2420   -0.4700 hc        1 NOV      0.060867
     56 H232        2.8870   -2.0410   -0.8790 hc        1 NOV      0.060867
     57 H233        4.1330   -0.9670   -1.6590 hc        1 NOV      0.060867
     58 H261        3.1820   -0.5410    2.5510 hc        1 NOV      0.060867
     59 H262        2.7740   -2.0550    1.6380 hc        1 NOV      0.060867
     60 H263        4.5010   -1.6890    2.0540 hc        1 NOV      0.060867
     61 H21A        8.9990    3.6790   -0.8360 hc        1 NOV      0.069367
     62 H22         8.4420    4.1300    0.8300 hc        1 NOV      0.069367
     63 H23         7.2320    3.5870   -0.4130 hc        1 NOV      0.069367
     64 H10         8.9070   -1.6930    1.6190 ha        1 NOV      0.144000
     65 H11         6.6930   -0.6300    1.7500 ha        1 NOV      0.163000
     66 HO9        10.7390   -2.2540    1.2950 ho        1 NOV      0.473000
     67 HN2        13.8530   -0.8460    0.6190 hn        1 NOV      0.469300
     68 H15        14.2180   -1.7090   -3.9560 ha        1 NOV      0.176000
     69 HO3        19.4510   -1.1670   -3.3180 ho        1 NOV      0.447000
     70 H18        18.3750   -0.7470   -1.3400 ha        1 NOV      0.164000
     71 H19        16.1910   -0.6070   -0.2240 ha        1 NOV      0.125000
     72 H201       17.4250   -1.5340   -5.8950 hc        1 NOV      0.082200
     73 H202       16.5900   -3.0900   -5.5040 hc        1 NOV      0.082200
     74 H21        14.8710   -0.5660   -5.9840 ha        1 NOV      0.121000
     75 H241       16.5850   -3.3470   -7.9740 hc        1 NOV      0.050700
     76 H242       15.0340   -3.7770   -8.8080 hc        1 NOV      0.050700
     77 H243       15.3020   -4.2670   -7.0830 hc        1 NOV      0.050700
     78 H251       12.9520   -2.4200   -8.2560 hc        1 NOV      0.050700
     79 H252       13.3350   -0.7190   -7.7490 hc        1 NOV      0.050700
     80 H253       14.1240   -1.4300   -9.2200 hc        1 NOV      0.050700
     81 H131        1.4400    1.6230    4.7610 hn        1 NOV      0.487133
     82 H221       14.2150    0.5580   -0.2340 hn        1 NOV      0.469300
@<TRIPOS>BOND
     1    1    2 1   
     2    1   45 1   
     3    1   46 1   
     4    1   47 1   
     5    2    7 1   
     6    3    4 1   
     7    3   48 1   
     8    3   49 1   
     9    3   81 1   
    10    4    5 2   
    11    4    6 1   
    12    6    8 1   
    13    7    8 1   
    14    7   13 1   
    15    7   50 1   
    16    8    9 1   
    17    8   51 1   
    18    9   10 1   
    19    9   11 1   
    20    9   52 1   
    21   10   53 1   
    22   11   12 1   
    23   11   16 1   
    24   11   54 1   
    25   12   13 1   
    26   13   14 1   
    27   13   15 1   
    28   14   55 1   
    29   14   56 1   
    30   14   57 1   
    31   15   58 1   
    32   15   59 1   
    33   15   60 1   
    34   16   17 1   
    35   17   18 ar  
    36   17   23 ar  
    37   18   19 1   
    38   18   20 ar  
    39   19   61 1   
    40   19   62 1   
    41   19   63 1   
    42   20   21 ar  
    43   20   24 1   
    44   21   22 ar  
    45   21   28 1   
    46   22   23 ar  
    47   22   64 1   
    48   23   65 1   
    49   24   25 1   
    50   25   26 2   
    51   25   27 1   
    52   27   28 2   
    53   27   30 1   
    54   28   29 1   
    55   29   66 1   
    56   30   31 1   
    57   30   67 1   
    58   30   82 1   
    59   31   32 2   
    60   31   33 1   
    61   33   34 ar  
    62   33   39 ar  
    63   34   35 ar  
    64   34   68 1   
    65   35   36 ar  
    66   35   40 1   
    67   36   37 1   
    68   36   38 ar  
    69   37   69 1   
    70   38   39 ar  
    71   38   70 1   
    72   39   71 1   
    73   40   41 1   
    74   40   72 1   
    75   40   73 1   
    76   41   42 2   
    77   41   74 1   
    78   42   43 1   
    79   42   44 1   
    80   43   75 1   
    81   43   76 1   
    82   43   77 1   
    83   44   78 1   
    84   44   79 1   
    85   44   80 1   
@<TRIPOS>SUBSTRUCTURE
     1 NOV         1 TEMP              0 ****  ****    0 ROOT
