@<TRIPOS>MOLECULE
NOV
   80    83     1     0     0
SMALL
bcc


@<TRIPOS>ATOM
      1 C1          9.2280   -1.9900   -1.8570 c3        1 NOV      0.106700
      2 O1          7.8340   -1.7740   -1.6770 os        1 NOV     -0.410600
      3 N1          8.8240    3.0050    1.0030 n         1 NOV     -0.631000
      4 C12         8.8410    1.7060    0.5670 c         1 NOV      0.737100
      5 O4          9.8240    1.0420    0.1930 o         1 NOV     -0.595000
      6 O5          7.5780    1.1420    0.4920 os        1 NOV     -0.436900
      7 C27         7.5090   -0.4170   -1.3820 c3        1 NOV      0.096100
      8 C28         7.5390   -0.2520    0.1510 c3        1 NOV      0.142100
      9 C29         6.2780   -0.8430    0.7870 c3        1 NOV      0.127100
     10 O6          6.2800   -0.5350    2.1660 oh        1 NOV     -0.584800
     11 C30         5.0400   -0.2500    0.0870 c3        1 NOV      0.302900
     12 O7          5.0280   -0.5960   -1.2850 os        1 NOV     -0.424600
     13 C31         6.1440   -0.0920   -2.0360 c3        1 NOV      0.167800
     14 C23         6.0250   -0.7810   -3.3930 c3        1 NOV     -0.105600
     15 C26         6.0110    1.4190   -2.2030 c3        1 NOV     -0.105600
     16 O8          3.9250   -0.9720    0.6000 os        1 NOV     -0.324900
     17 C3          2.6790   -0.3920    0.4480 ca        1 NOV      0.173100
     18 C4          1.7120   -0.7990    1.3850 ca        1 NOV     -0.119300
     19 C2          2.0300   -1.7640    2.4590 c3        1 NOV     -0.037800
     20 C5          0.4160   -0.2610    1.2430 ca        1 NOV      0.172100
     21 C9          0.0950    0.6500    0.2200 ca        1 NOV     -0.171800
     22 C10         1.0930    1.0240   -0.6960 ca        1 NOV     -0.030000
     23 C11         2.3740    0.5120   -0.5860 ca        1 NOV     -0.207000
     24 O10        -0.5100   -0.6740    2.1780 os        1 NOV     -0.311200
     25 C6         -1.8070   -0.1850    2.1070 c         1 NOV      0.731800
     26 O11        -2.4960   -0.6300    3.0290 o         1 NOV     -0.589500
     27 C7         -2.2080    0.7530    1.0520 cc        1 NOV     -0.218600
     28 C8         -1.2620    1.1630    0.1360 cd        1 NOV      0.272900
     29 O9         -1.4520    2.0490   -0.8770 oh        1 NOV     -0.485100
     30 N2         -3.5440    1.2080    1.1050 n         1 NOV     -0.439100
     31 C13        -4.4280    1.0630    0.0340 c         1 NOV      0.667700
     32 O2         -4.0000    0.9160   -1.1310 o         1 NOV     -0.615100
     33 C14        -5.8820    1.1730    0.3200 ca        1 NOV     -0.188600
     34 C15        -6.7570    0.4550   -0.5040 ca        1 NOV     -0.032000
     35 C16        -8.1380    0.5040   -0.3010 ca        1 NOV     -0.166300
     36 C17        -8.6320    1.3010    0.7510 ca        1 NOV      0.161100
     37 O3         -9.9660    1.4310    1.0440 oh        1 NOV     -0.494100
     38 C18        -7.7580    2.0400    1.5710 ca        1 NOV     -0.169000
     39 C19        -6.3890    1.9720    1.3510 ca        1 NOV     -0.065000
     40 C20        -9.0490   -0.2500   -1.2050 c3        1 NOV     -0.003900
     41 C21        -9.8040   -1.3240   -0.5110 c2        1 NOV     -0.208200
     42 C22       -10.7450   -2.0680   -1.1160 c2        1 NOV     -0.103400
     43 C24       -11.1210   -1.8640   -2.5360 c3        1 NOV     -0.064400
     44 C25       -11.4690   -3.1440   -0.3990 c3        1 NOV     -0.064400
     45 H11A        9.5700   -1.5070   -2.8050 h1        1 NOV      0.042700
     46 H12         9.8130   -1.5900   -0.9930 h1        1 NOV      0.042700
     47 H13         9.3250   -3.1020   -1.9240 h1        1 NOV      0.042700
     48 HN11        9.6950    3.4130    1.2390 hn        1 NOV      0.326000
     49 HN12        7.9980    3.3580    1.4200 hn        1 NOV      0.326000
     50 H27         8.2800    0.2800   -1.8200 h1        1 NOV      0.074700
     51 H28         8.4470   -0.7730    0.5680 h1        1 NOV      0.099700
     52 H29         6.2960   -1.9580    0.6260 h1        1 NOV      0.087700
     53 HO6         5.4740   -0.9270    2.5300 ho        1 NOV      0.419000
     54 H30         4.9450    0.8570    0.2450 h2        1 NOV      0.073700
     55 H231        5.9750   -1.8870   -3.2520 hc        1 NOV      0.052033
     56 H232        5.0980   -0.4380   -3.9110 hc        1 NOV      0.052033
     57 H233        6.9180   -0.5290   -4.0110 hc        1 NOV      0.052033
     58 H261        6.7020    1.7720   -3.0050 hc        1 NOV      0.052033
     59 H262        4.9630    1.6710   -2.4920 hc        1 NOV      0.052033
     60 H263        6.2630    1.9490   -1.2530 hc        1 NOV      0.052033
     61 H21A        3.0960   -1.6520    2.7800 hc        1 NOV      0.054033
     62 H22         1.3630   -1.6090    3.3430 hc        1 NOV      0.054033
     63 H23         1.8850   -2.8090    2.0850 hc        1 NOV      0.054033
     64 H10         0.8370    1.7270   -1.5060 ha        1 NOV      0.161000
     65 H11         3.1500    0.7820   -1.3200 ha        1 NOV      0.163000
     66 HO9        -2.4020    2.1980   -1.0250 ho        1 NOV      0.466000
     67 HN2        -3.9450    1.1360    2.0200 hn        1 NOV      0.327500
     68 H15        -6.3410   -0.1500   -1.3270 ha        1 NOV      0.158000
     69 HO3       -10.4680    0.8250    0.4770 ho        1 NOV      0.434000
     70 H18        -8.1760    2.6630    2.3740 ha        1 NOV      0.157000
     71 H19        -5.7180    2.5670    1.9900 ha        1 NOV      0.142000
     72 H201       -9.7730    0.4700   -1.6850 hc        1 NOV      0.061200
     73 H202       -8.4560   -0.7070   -2.0460 hc        1 NOV      0.061200
     74 H21        -9.5360   -1.5020    0.5430 ha        1 NOV      0.133000
     75 H241      -10.2170   -1.9400   -3.1930 hc        1 NOV      0.045200
     76 H242      -11.8680   -2.6240   -2.8720 hc        1 NOV      0.045200
     77 H243      -11.5640   -0.8460   -2.6780 hc        1 NOV      0.045200
     78 H251      -12.5700   -2.9510   -0.4280 hc        1 NOV      0.045200
     79 H252      -11.2740   -4.1290   -0.8930 hc        1 NOV      0.045200
     80 H253      -11.1500   -3.2170    0.6700 hc        1 NOV      0.045200
@<TRIPOS>BOND
     1    1    2 1   
     2    1   45 1   
     3    1   46 1   
     4    1   47 1   
     5    2    7 1   
     6    3    4 1   
     7    3   48 1   
     8    3   49 1   
     9    4    5 2   
    10    4    6 1   
    11    6    8 1   
    12    7    8 1   
    13    7   13 1   
    14    7   50 1   
    15    8    9 1   
    16    8   51 1   
    17    9   10 1   
    18    9   11 1   
    19    9   52 1   
    20   10   53 1   
    21   11   12 1   
    22   11   16 1   
    23   11   54 1   
    24   12   13 1   
    25   13   14 1   
    26   13   15 1   
    27   14   55 1   
    28   14   56 1   
    29   14   57 1   
    30   15   58 1   
    31   15   59 1   
    32   15   60 1   
    33   16   17 1   
    34   17   18 ar  
    35   17   23 ar  
    36   18   19 1   
    37   18   20 ar  
    38   19   61 1   
    39   19   62 1   
    40   19   63 1   
    41   20   21 ar  
    42   20   24 1   
    43   21   22 ar  
    44   21   28 1   
    45   22   23 ar  
    46   22   64 1   
    47   23   65 1   
    48   24   25 1   
    49   25   26 2   
    50   25   27 1   
    51   27   28 2   
    52   27   30 1   
    53   28   29 1   
    54   29   66 1   
    55   30   31 1   
    56   30   67 1   
    57   31   32 2   
    58   31   33 1   
    59   33   34 ar  
    60   33   39 ar  
    61   34   35 ar  
    62   34   68 1   
    63   35   36 ar  
    64   35   40 1   
    65   36   37 1   
    66   36   38 ar  
    67   37   69 1   
    68   38   39 ar  
    69   38   70 1   
    70   39   71 1   
    71   40   41 1   
    72   40   72 1   
    73   40   73 1   
    74   41   42 2   
    75   41   74 1   
    76   42   43 1   
    77   42   44 1   
    78   43   75 1   
    79   43   76 1   
    80   43   77 1   
    81   44   78 1   
    82   44   79 1   
    83   44   80 1   
@<TRIPOS>SUBSTRUCTURE
     1 NOV         1 TEMP              0 ****  ****    0 ROOT
