@<TRIPOS>MOLECULE
NOV
   82    85     1     0     0
SMALL
bcc


@<TRIPOS>ATOM
      1 C1          1.1800    0.8730   -1.8310 c3        1 NOV      0.099700
      2 O1          2.4710    0.8380   -1.2300 os        1 NOV     -0.395600
      3 N1          1.5930    2.5220    4.3210 n4        1 NOV     -0.723400
      4 C12         1.2940    2.5020    2.8550 c         1 NOV      0.642100
      5 O4          0.5620    3.3280    2.3410 o         1 NOV     -0.371000
      6 O5          1.8780    1.4400    2.2490 os        1 NOV     -0.400900
      7 C27         2.4660    0.4460    0.1350 c3        1 NOV      0.118100
      8 C28         2.4940    1.7500    0.9560 c3        1 NOV      0.139100
      9 C29         3.8820    2.3370    1.2220 c3        1 NOV      0.102100
     10 O6          3.7810    3.0680    2.4400 oh        1 NOV     -0.668800
     11 C30         4.9860    1.2660    1.3690 c3        1 NOV      0.321900
     12 O7          4.9080    0.2660    0.3840 os        1 NOV     -0.414600
     13 C31         3.6780   -0.4800    0.3790 c3        1 NOV      0.165800
     14 C23         3.8400   -1.4630   -0.7780 c3        1 NOV     -0.108100
     15 C26         3.4980   -1.2290    1.6930 c3        1 NOV     -0.108100
     16 O8          6.1870    1.9630    1.0410 os        1 NOV     -0.327900
     17 C3          7.3730    1.2670    0.9590 ca        1 NOV      0.213100
     18 C4          8.4520    2.0180    0.4530 ca        1 NOV     -0.102300
     19 C2          8.2900    3.4230    0.0200 c3        1 NOV     -0.052800
     20 C5          9.7040    1.3740    0.3790 ca        1 NOV      0.210100
     21 C9          9.8900    0.0300    0.7760 ca        1 NOV     -0.236800
     22 C10         8.7770   -0.6760    1.2740 ca        1 NOV     -0.036000
     23 C11         7.5380   -0.0730    1.3670 ca        1 NOV     -0.189000
     24 O10        10.7310    2.1560   -0.1070 os        1 NOV     -0.281200
     25 C6         11.9930    1.6110   -0.2580 c         1 NOV      0.750800
     26 O11        12.8130    2.4220   -0.6820 o         1 NOV     -0.545500
     27 C7         12.2310    0.2160    0.1000 cc        1 NOV     -0.277200
     28 C8         11.2010   -0.5510    0.6240 cd        1 NOV      0.347900
     29 O9         11.5050   -1.8210    0.9910 oh        1 NOV     -0.475100
     30 N2         13.5660   -0.2950   -0.1450 n4        1 NOV     -0.512600
     31 C13        13.7020   -1.1020   -1.4480 c         1 NOV      0.585700
     32 O2         12.6680   -1.5940   -1.8750 o         1 NOV     -0.432100
     33 C14        15.0440   -1.1590   -2.0040 ca        1 NOV     -0.250600
     34 C15        15.1420   -1.5070   -3.3680 ca        1 NOV     -0.012000
     35 C16        16.3760   -1.5930   -4.0030 ca        1 NOV     -0.089300
     36 C17        17.5420   -1.3370   -3.2380 ca        1 NOV      0.209100
     37 O3         18.7350   -1.4380   -3.8860 oh        1 NOV     -0.457100
     38 C18        17.4520   -1.0020   -1.8720 ca        1 NOV     -0.215000
     39 C19        16.2120   -0.9130   -1.2620 ca        1 NOV     -0.050000
     40 C20        16.4900   -1.9740   -5.4380 c3        1 NOV     -0.002900
     41 C21        15.3490   -1.5110   -6.2630 c2        1 NOV     -0.223200
     42 C22        14.9060   -2.1530   -7.3560 c2        1 NOV     -0.075400
     43 C24        15.4910   -3.4300   -7.8320 c3        1 NOV     -0.071400
     44 C25        13.7930   -1.6110   -8.1730 c3        1 NOV     -0.071400
     45 H11A        1.3890    1.1940   -2.8840 h1        1 NOV      0.056367
     46 H12         0.5240    1.6150   -1.3140 h1        1 NOV      0.056367
     47 H13         0.7120   -0.1420   -1.8150 h1        1 NOV      0.056367
     48 HN11        1.0130    3.2350    4.7820 hn        1 NOV      0.487133
     49 HN12        1.4130    1.6000    4.7340 hn        1 NOV      0.487133
     50 H27         1.5300   -0.1240    0.4000 h1        1 NOV      0.087700
     51 H28         1.8570    2.5220    0.4320 h1        1 NOV      0.115700
     52 H29         4.1520    3.0200    0.3630 h1        1 NOV      0.119700
     53 HO6         4.5250    3.6870    2.4570 ho        1 NOV      0.457000
     54 H30         5.0340    0.8400    2.4080 h2        1 NOV      0.062700
     55 H231        4.1300   -0.9120   -1.7060 hc        1 NOV      0.060867
     56 H232        2.8710   -1.9870   -0.9510 hc        1 NOV      0.060867
     57 H233        4.6320   -2.2080   -0.5330 hc        1 NOV      0.060867
     58 H261        4.4670   -1.6930    1.9980 hc        1 NOV      0.060867
     59 H262        2.7400   -2.0390    1.5640 hc        1 NOV      0.060867
     60 H263        3.1540   -0.5420    2.5030 hc        1 NOV      0.060867
     61 H21A        7.2560    3.5960   -0.3710 hc        1 NOV      0.069367
     62 H22         8.4640    4.1120    0.8850 hc        1 NOV      0.069367
     63 H23         9.0270    3.6800   -0.7830 hc        1 NOV      0.069367
     64 H10         8.8760   -1.7260    1.5930 ha        1 NOV      0.144000
     65 H11         6.6700   -0.6470    1.7270 ha        1 NOV      0.163000
     66 HO9        10.7050   -2.2970    1.2740 ho        1 NOV      0.473000
     67 HN2        14.2130    0.5080   -0.1950 hn        1 NOV      0.469300
     68 H15        14.2220   -1.7130   -3.9450 ha        1 NOV      0.176000
     69 HO3        19.4550   -1.2200   -3.2690 ho        1 NOV      0.447000
     70 H18        18.3690   -0.8140   -1.2920 ha        1 NOV      0.164000
     71 H19        16.1800   -0.6710   -0.1890 ha        1 NOV      0.125000
     72 H201       17.4420   -1.5410   -5.8620 hc        1 NOV      0.082200
     73 H202       16.5930   -3.0950   -5.4940 hc        1 NOV      0.082200
     74 H21        14.8960   -0.5530   -5.9570 ha        1 NOV      0.121000
     75 H241       15.0480   -3.7380   -8.8110 hc        1 NOV      0.050700
     76 H242       15.3030   -4.2460   -7.0900 hc        1 NOV      0.050700
     77 H243       16.5980   -3.3290   -7.9660 hc        1 NOV      0.050700
     78 H251       12.9740   -2.3690   -8.2570 hc        1 NOV      0.050700
     79 H252       13.3690   -0.6760   -7.7320 hc        1 NOV      0.050700
     80 H253       14.1590   -1.3790   -9.2050 hc        1 NOV      0.050700
     81 H131        2.5920    2.7540    4.4310 hn        1 NOV      0.487133
     82 H221       13.8350   -0.9040    0.6370 hn        1 NOV      0.469300
@<TRIPOS>BOND
     1    1    2 1   
     2    1   45 1   
     3    1   46 1   
     4    1   47 1   
     5    2    7 1   
     6    3    4 1   
     7    3   48 1   
     8    3   49 1   
     9    3   81 1   
    10    4    5 2   
    11    4    6 1   
    12    6    8 1   
    13    7    8 1   
    14    7   13 1   
    15    7   50 1   
    16    8    9 1   
    17    8   51 1   
    18    9   10 1   
    19    9   11 1   
    20    9   52 1   
    21   10   53 1   
    22   11   12 1   
    23   11   16 1   
    24   11   54 1   
    25   12   13 1   
    26   13   14 1   
    27   13   15 1   
    28   14   55 1   
    29   14   56 1   
    30   14   57 1   
    31   15   58 1   
    32   15   59 1   
    33   15   60 1   
    34   16   17 1   
    35   17   18 ar  
    36   17   23 ar  
    37   18   19 1   
    38   18   20 ar  
    39   19   61 1   
    40   19   62 1   
    41   19   63 1   
    42   20   21 ar  
    43   20   24 1   
    44   21   22 ar  
    45   21   28 1   
    46   22   23 ar  
    47   22   64 1   
    48   23   65 1   
    49   24   25 1   
    50   25   26 2   
    51   25   27 1   
    52   27   28 2   
    53   27   30 1   
    54   28   29 1   
    55   29   66 1   
    56   30   31 1   
    57   30   67 1   
    58   30   82 1   
    59   31   32 2   
    60   31   33 1   
    61   33   34 ar  
    62   33   39 ar  
    63   34   35 ar  
    64   34   68 1   
    65   35   36 ar  
    66   35   40 1   
    67   36   37 1   
    68   36   38 ar  
    69   37   69 1   
    70   38   39 ar  
    71   38   70 1   
    72   39   71 1   
    73   40   41 1   
    74   40   72 1   
    75   40   73 1   
    76   41   42 2   
    77   41   74 1   
    78   42   43 1   
    79   42   44 1   
    80   43   75 1   
    81   43   76 1   
    82   43   77 1   
    83   44   78 1   
    84   44   79 1   
    85   44   80 1   
@<TRIPOS>SUBSTRUCTURE
     1 NOV         1 TEMP              0 ****  ****    0 ROOT
