@<TRIPOS>MOLECULE
NOV
   82    85     1     0     0
SMALL
bcc


@<TRIPOS>ATOM
      1 C1          1.1690    0.8440   -1.8440 c3        1 NOV      0.099700
      2 O1          2.4600    0.8130   -1.2430 os        1 NOV     -0.395600
      3 N1          1.5880    2.5280    4.3000 nz        1 NOV     -0.723400
      4 C12         1.2870    2.5000    2.8330 c         1 NOV      0.642100
      5 O4          0.5540    3.3220    2.3160 o         1 NOV     -0.371000
      6 O5          1.8710    1.4350    2.2330 os        1 NOV     -0.400900
      7 C27         2.4570    0.4290    0.1240 c3        1 NOV      0.118100
      8 C28         2.4860    1.7380    0.9370 c3        1 NOV      0.139100
      9 C29         3.8740    2.3270    1.1980 c3        1 NOV      0.102100
     10 O6          3.7740    3.0650    2.4130 oh        1 NOV     -0.668800
     11 C30         4.9780    1.2570    1.3510 c3        1 NOV      0.321900
     12 O7          4.8990    0.2510    0.3720 os        1 NOV     -0.414600
     13 C31         3.6700   -0.4950    0.3720 c3        1 NOV      0.165800
     14 C23         3.8300   -1.4840   -0.7800 c3        1 NOV     -0.108100
     15 C26         3.4910   -1.2370    1.6900 c3        1 NOV     -0.108100
     16 O8          6.1790    1.9520    1.0180 os        1 NOV     -0.327900
     17 C3          7.3650    1.2560    0.9390 ca        1 NOV      0.213100
     18 C4          8.4440    2.0050    0.4300 ca        1 NOV     -0.102300
     19 C2          8.2810    3.4090   -0.0100 c3        1 NOV     -0.052800
     20 C5          9.6960    1.3620    0.3580 ca        1 NOV      0.210100
     21 C9          9.8830    0.0190    0.7610 ca        1 NOV     -0.236800
     22 C10         8.7690   -0.6850    1.2630 ca        1 NOV     -0.036000
     23 C11         7.5300   -0.0810    1.3540 ca        1 NOV     -0.189000
     24 O10        10.7220    2.1420   -0.1310 os        1 NOV     -0.281200
     25 C6         11.9850    1.5970   -0.2790 c         1 NOV      0.750800
     26 O11        12.8050    2.4060   -0.7070 o         1 NOV     -0.545500
     27 C7         12.2240    0.2030    0.0850 cc        1 NOV     -0.277200
     28 C8         11.1940   -0.5620    0.6120 cd        1 NOV      0.347900
     29 O9         11.4980   -1.8300    0.9840 oh        1 NOV     -0.475100
     30 N2         13.5580   -0.3080   -0.1580 ny        1 NOV     -0.512600
     31 C13        13.6950   -1.1190   -1.4580 c         1 NOV      0.585700
     32 O2         12.6610   -1.6130   -1.8840 o         1 NOV     -0.432100
     33 C14        15.0380   -1.1770   -2.0140 ca        1 NOV     -0.250600
     34 C15        15.1360   -1.5260   -3.3780 ca        1 NOV     -0.012000
     35 C16        16.3700   -1.6130   -4.0120 ca        1 NOV     -0.089300
     36 C17        17.5360   -1.3570   -3.2470 ca        1 NOV      0.209100
     37 O3         18.7290   -1.4580   -3.8940 oh        1 NOV     -0.457100
     38 C18        17.4450   -1.0200   -1.8810 ca        1 NOV     -0.215000
     39 C19        16.2050   -0.9300   -1.2720 ca        1 NOV     -0.050000
     40 C20        16.4850   -1.9950   -5.4470 c3        1 NOV     -0.002900
     41 C21        15.3460   -1.5280   -6.2730 c2        1 NOV     -0.223200
     42 C22        14.9060   -2.1680   -7.3690 c2        1 NOV     -0.075400
     43 C24        15.4920   -3.4440   -7.8470 c3        1 NOV     -0.071400
     44 C25        13.7950   -1.6230   -8.1880 c3        1 NOV     -0.071400
     45 H11A        0.5130    1.5890   -1.3300 h1        1 NOV      0.056367
     46 H12         0.7010   -0.1700   -1.8210 h1        1 NOV      0.056367
     47 H13         1.3770    1.1600   -2.8980 h1        1 NOV      0.056367
     48 HN11        1.4080    1.6090    4.7180 hn        1 NOV      0.487133
     49 HN12        2.5860    2.7610    4.4070 hn        1 NOV      0.487133
     50 H27         1.5210   -0.1400    0.3930 h1        1 NOV      0.087700
     51 H28         1.8470    2.5060    0.4090 h1        1 NOV      0.115700
     52 H29         4.1420    3.0050    0.3360 h1        1 NOV      0.119700
     53 HO6         4.5170    3.6840    2.4260 ho        1 NOV      0.457000
     54 H30         5.0270    0.8360    2.3920 h2        1 NOV      0.062700
     55 H231        2.8610   -2.0100   -0.9490 hc        1 NOV      0.060867
     56 H232        4.1190   -0.9380   -1.7110 hc        1 NOV      0.060867
     57 H233        4.6230   -2.2280   -0.5320 hc        1 NOV      0.060867
     58 H261        4.4610   -1.6980    1.9970 hc        1 NOV      0.060867
     59 H262        3.1470   -0.5450    2.4970 hc        1 NOV      0.060867
     60 H263        2.7330   -2.0470    1.5670 hc        1 NOV      0.060867
     61 H21A        8.4540    4.1010    0.8530 hc        1 NOV      0.069367
     62 H22         9.0170    3.6620   -0.8140 hc        1 NOV      0.069367
     63 H23         7.2470    3.5790   -0.4020 hc        1 NOV      0.069367
     64 H10         8.8690   -1.7340    1.5870 ha        1 NOV      0.144000
     65 H11         6.6620   -0.6550    1.7160 ha        1 NOV      0.163000
     66 HO9        10.6980   -2.3050    1.2690 ho        1 NOV      0.473000
     67 HN2        14.2050    0.4940   -0.2100 hn        1 NOV      0.469300
     68 H15        14.2160   -1.7330   -3.9550 ha        1 NOV      0.176000
     69 HO3        19.4490   -1.2400   -3.2770 ho        1 NOV      0.447000
     70 H18        18.3620   -0.8320   -1.3010 ha        1 NOV      0.164000
     71 H19        16.1720   -0.6870   -0.1990 ha        1 NOV      0.125000
     72 H201       17.4390   -1.5660   -5.8700 hc        1 NOV      0.082200
     73 H202       16.5840   -3.1160   -5.5020 hc        1 NOV      0.082200
     74 H21        14.8930   -0.5720   -5.9650 ha        1 NOV      0.121000
     75 H241       15.2990   -4.2630   -7.1090 hc        1 NOV      0.050700
     76 H242       16.5990   -3.3440   -7.9750 hc        1 NOV      0.050700
     77 H243       15.0520   -3.7480   -8.8290 hc        1 NOV      0.050700
     78 H251       12.9770   -2.3800   -8.2760 hc        1 NOV      0.050700
     79 H252       13.3700   -0.6890   -7.7450 hc        1 NOV      0.050700
     80 H253       14.1640   -1.3880   -9.2180 hc        1 NOV      0.050700
     81 H131        1.0080    3.2440    4.7560 hn        1 NOV      0.487133
     82 H221       13.8270   -0.9150    0.6260 hn        1 NOV      0.469300
@<TRIPOS>BOND
     1    1    2 1   
     2    1   45 1   
     3    1   46 1   
     4    1   47 1   
     5    2    7 1   
     6    3    4 1   
     7    3   48 1   
     8    3   49 1   
     9    3   81 1   
    10    4    5 2   
    11    4    6 1   
    12    6    8 1   
    13    7    8 1   
    14    7   13 1   
    15    7   50 1   
    16    8    9 1   
    17    8   51 1   
    18    9   10 1   
    19    9   11 1   
    20    9   52 1   
    21   10   53 1   
    22   11   12 1   
    23   11   16 1   
    24   11   54 1   
    25   12   13 1   
    26   13   14 1   
    27   13   15 1   
    28   14   55 1   
    29   14   56 1   
    30   14   57 1   
    31   15   58 1   
    32   15   59 1   
    33   15   60 1   
    34   16   17 1   
    35   17   18 ar  
    36   17   23 ar  
    37   18   19 1   
    38   18   20 ar  
    39   19   61 1   
    40   19   62 1   
    41   19   63 1   
    42   20   21 ar  
    43   20   24 1   
    44   21   22 ar  
    45   21   28 1   
    46   22   23 ar  
    47   22   64 1   
    48   23   65 1   
    49   24   25 1   
    50   25   26 2   
    51   25   27 1   
    52   27   28 2   
    53   27   30 1   
    54   28   29 1   
    55   29   66 1   
    56   30   31 1   
    57   30   67 1   
    58   30   82 1   
    59   31   32 2   
    60   31   33 1   
    61   33   34 ar  
    62   33   39 ar  
    63   34   35 ar  
    64   34   68 1   
    65   35   36 ar  
    66   35   40 1   
    67   36   37 1   
    68   36   38 ar  
    69   37   69 1   
    70   38   39 ar  
    71   38   70 1   
    72   39   71 1   
    73   40   41 1   
    74   40   72 1   
    75   40   73 1   
    76   41   42 2   
    77   41   74 1   
    78   42   43 1   
    79   42   44 1   
    80   43   75 1   
    81   43   76 1   
    82   43   77 1   
    83   44   78 1   
    84   44   79 1   
    85   44   80 1   
@<TRIPOS>SUBSTRUCTURE
     1 NOV         1 TEMP              0 ****  ****    0 ROOT
