@<TRIPOS>MOLECULE
NOW
   59    60     1     0     0
SMALL
bcc


@<TRIPOS>ATOM
      1 O18         0.3780   -1.1360   -0.7520 o         1 NOW     -0.575100
      2 C17         1.4450   -0.6240   -0.3910 c         1 NOW      0.628700
      3 C19         2.0180   -0.4740    0.8910 cc        1 NOW     -0.313900
      4 N23         1.4050   -0.9390    2.0960 na        1 NOW      0.212400
      5 C24         0.1200   -1.6200    2.1390 c3        1 NOW      0.009600
      6 N22         2.1480   -0.6750    3.1360 nc        1 NOW     -0.368800
      7 C21         3.3030   -0.0200    2.7080 cd        1 NOW      0.357600
      8 C25         4.4050    0.4450    3.6150 c3        1 NOW     -0.087300
      9 C28         4.1160    0.1170    5.0740 c3        1 NOW     -0.093433
     10 C27         5.7000   -0.2440    3.1940 c3        1 NOW     -0.093433
     11 C26         4.5520    1.9560    3.4610 c3        1 NOW     -0.093433
     12 C20         3.2580    0.1260    1.2960 cd        1 NOW     -0.185300
     13 N16         2.2840   -0.0700   -1.5420 n4        1 NOW     -0.675800
     14 C9          1.4800    0.1220   -2.7940 c3        1 NOW      0.065500
     15 C10         1.0460   -1.2410   -3.3490 c         1 NOW      0.520100
     16 N12        -0.4200   -1.4430   -3.5590 n4        1 NOW     -0.650800
     17 C13        -0.7420   -2.6670   -4.3640 c3        1 NOW     -0.007500
     18 C14        -2.2440   -2.8930   -4.4460 c2        1 NOW      0.374200
     19 N15        -2.9420   -3.1600   -5.4670 n2        1 NOW     -0.632100
     20 O11         1.8170   -2.1480   -3.6150 o         1 NOW     -0.368100
     21 C8          2.2970    0.8550   -3.8850 c3        1 NOW     -0.040100
     22 C5          2.8950    2.1000   -3.3390 ca        1 NOW     -0.184300
     23 C3          4.2000    2.0780   -2.8270 ca        1 NOW     -0.167000
     24 C1          4.7860    3.2580   -2.3740 ca        1 NOW     -0.102000
     25 C6          2.1890    3.3060   -3.3960 ca        1 NOW     -0.115000
     26 C4          2.7750    4.4940   -2.9420 ca        1 NOW     -0.036300
     27 C7          2.0440    5.7770   -3.0310 c3        1 NOW     -0.077800
     28 C2          4.0790    4.4590   -2.4280 ca        1 NOW     -0.087000
     29 H24        -0.1600   -1.8600    3.2030 h1        1 NOW      0.097367
     30 H24A        0.2000   -2.5690    1.5440 h1        1 NOW      0.097367
     31 H24B       -0.6550   -0.9470    1.6840 h1        1 NOW      0.097367
     32 H28         4.9620    0.4810    5.7070 hc        1 NOW      0.053033
     33 H28A        3.1790    0.6180    5.4160 hc        1 NOW      0.053033
     34 H28B        4.0150   -0.9850    5.2210 hc        1 NOW      0.053033
     35 H27         6.5400    0.1240    3.8330 hc        1 NOW      0.053033
     36 H27A        5.6170   -1.3490    3.3220 hc        1 NOW      0.053033
     37 H27B        5.9390   -0.0170    2.1270 hc        1 NOW      0.053033
     38 H26         4.7680    2.2250    2.3990 hc        1 NOW      0.053033
     39 H26A        3.6210    2.4770    3.7880 hc        1 NOW      0.053033
     40 H26B        5.3990    2.3120    4.0980 hc        1 NOW      0.053033
     41 H20         4.0150    0.5960    0.6750 ha        1 NOW      0.179000
     42 HN16        3.0680   -0.7110   -1.7260 hn        1 NOW      0.490300
     43 H9          0.5890    0.7610   -2.5090 hx        1 NOW      0.136700
     44 HN12       -0.8600   -1.5280   -2.6250 hn        1 NOW      0.481800
     45 H13        -0.2690   -2.5450   -5.3810 hx        1 NOW      0.128700
     46 H13A       -0.2640   -3.5600   -3.8590 hx        1 NOW      0.128700
     47 H14        -2.7650   -2.8820   -3.4620 h4        1 NOW      0.045800
     48 HN15       -2.5220   -3.2150   -6.3720 hn        1 NOW      0.430400
     49 H8          1.5930    1.0940   -4.7280 hc        1 NOW      0.101700
     50 H8A         3.0950    0.1720   -4.2860 hc        1 NOW      0.101700
     51 H3          4.7890    1.1490   -2.8410 ha        1 NOW      0.130000
     52 H1          5.8220    3.2480   -1.9940 ha        1 NOW      0.166000
     53 H6          1.1750    3.3350   -3.8250 ha        1 NOW      0.139000
     54 H7          0.9440    5.6160   -3.1500 hc        1 NOW      0.070700
     55 H7A         2.2160    6.3970   -2.1150 hc        1 NOW      0.070700
     56 H7B         2.4100    6.3600   -3.9160 hc        1 NOW      0.070700
     57 H2          4.5530    5.3940   -2.0810 ha        1 NOW      0.173000
     58 H162        2.6850    0.8530   -1.2820 hn        1 NOW      0.490300
     59 H122       -0.8200   -0.6190   -4.0270 hn        1 NOW      0.481800
@<TRIPOS>BOND
     1    1    2 2   
     2    2    3 1   
     3    2   13 1   
     4    3    4 1   
     5    3   12 2   
     6    4    5 1   
     7    4    6 1   
     8    5   29 1   
     9    5   30 1   
    10    5   31 1   
    11    6    7 2   
    12    7    8 1   
    13    7   12 1   
    14    8    9 1   
    15    8   10 1   
    16    8   11 1   
    17    9   32 1   
    18    9   33 1   
    19    9   34 1   
    20   10   35 1   
    21   10   36 1   
    22   10   37 1   
    23   11   38 1   
    24   11   39 1   
    25   11   40 1   
    26   12   41 1   
    27   13   14 1   
    28   13   42 1   
    29   13   58 1   
    30   14   15 1   
    31   14   21 1   
    32   14   43 1   
    33   15   16 1   
    34   15   20 2   
    35   16   17 1   
    36   16   44 1   
    37   16   59 1   
    38   17   18 1   
    39   17   45 1   
    40   17   46 1   
    41   18   19 2   
    42   18   47 1   
    43   19   48 1   
    44   21   22 1   
    45   21   49 1   
    46   21   50 1   
    47   22   23 ar  
    48   22   25 ar  
    49   23   24 ar  
    50   23   51 1   
    51   24   28 ar  
    52   24   52 1   
    53   25   26 ar  
    54   25   53 1   
    55   26   27 1   
    56   26   28 ar  
    57   27   54 1   
    58   27   55 1   
    59   27   56 1   
    60   28   57 1   
@<TRIPOS>SUBSTRUCTURE
     1 NOW         1 TEMP              0 ****  ****    0 ROOT
