@<TRIPOS>MOLECULE
NOW
   59    60     1     0     0
SMALL
bcc


@<TRIPOS>ATOM
      1 O18         0.4910   -1.2290   -0.8180 o         1 NOW     -0.577100
      2 C17         1.5320   -0.6700   -0.4490 c         1 NOW      0.627700
      3 C19         2.1190   -0.5490    0.8300 cc        1 NOW     -0.316900
      4 N23         1.5570   -1.1080    2.0200 na        1 NOW      0.216400
      5 C24         0.3170   -1.8680    2.0490 c3        1 NOW      0.008600
      6 N22         2.3010   -0.8500    3.0580 nc        1 NOW     -0.370800
      7 C21         3.4090   -0.1040    2.6440 cd        1 NOW      0.357600
      8 C25         4.4770    0.3660    3.5870 c3        1 NOW     -0.085300
      9 C28         3.8560    1.2680    4.6500 c3        1 NOW     -0.096433
     10 C27         5.1290   -0.8390    4.2570 c3        1 NOW     -0.096433
     11 C26         5.5320    1.1470    2.8150 c3        1 NOW     -0.096433
     12 C20         3.3280    0.1070    1.2440 cd        1 NOW     -0.185300
     13 N16         2.3130   -0.0110   -1.5850 n4        1 NOW     -0.675800
     14 C9          1.4750    0.1930   -2.8110 c3        1 NOW      0.065500
     15 C10         1.1110   -1.1640   -3.4260 c         1 NOW      0.520100
     16 N12        -0.3450   -1.4440   -3.6220 n4        1 NOW     -0.650800
     17 C13        -0.6090   -2.6440   -4.4820 c3        1 NOW     -0.007500
     18 C14        -2.0960   -2.9550   -4.5490 c2        1 NOW      0.374200
     19 N15        -2.7980   -3.2130   -5.5710 n2        1 NOW     -0.632100
     20 O11         1.9290   -2.0100   -3.7510 o         1 NOW     -0.368100
     21 C8          2.2240    1.0260   -3.8780 c3        1 NOW     -0.040100
     22 C5          2.7590    2.2760   -3.2810 ca        1 NOW     -0.184300
     23 C3          4.0740    2.3080   -2.7940 ca        1 NOW     -0.167000
     24 C1          4.5980    3.4980   -2.2930 ca        1 NOW     -0.102000
     25 C6          1.9820    3.4390   -3.2640 ca        1 NOW     -0.115000
     26 C4          2.5060    4.6360   -2.7610 ca        1 NOW     -0.036300
     27 C7          1.6980    5.8770   -2.7710 c3        1 NOW     -0.077800
     28 C2          3.8210    4.6550   -2.2720 ca        1 NOW     -0.087000
     29 H24         0.4430   -2.7800    1.4060 h1        1 NOW      0.097700
     30 H24A       -0.5050   -1.2230    1.6380 h1        1 NOW      0.097700
     31 H24B        0.0710   -2.1750    3.1030 h1        1 NOW      0.097700
     32 H28         4.6610    1.6520    5.3230 hc        1 NOW      0.054033
     33 H28A        3.3420    2.1380    4.1770 hc        1 NOW      0.054033
     34 H28B        3.1200    0.7020    5.2700 hc        1 NOW      0.054033
     35 H27         4.3880   -1.3970    4.8790 hc        1 NOW      0.054033
     36 H27A        5.9550   -0.4890    4.9240 hc        1 NOW      0.054033
     37 H27B        5.5580   -1.5300    3.4940 hc        1 NOW      0.054033
     38 H26         6.3250    1.4950    3.5230 hc        1 NOW      0.054033
     39 H26A        5.0820    2.0430    2.3250 hc        1 NOW      0.054033
     40 H26B        6.0120    0.5040    2.0400 hc        1 NOW      0.054033
     41 H20         4.0420    0.6510    0.6320 ha        1 NOW      0.180000
     42 HN16        3.1300   -0.5940   -1.8130 hn        1 NOW      0.490300
     43 H9          0.5530    0.7630   -2.4800 hx        1 NOW      0.136700
     44 HN12       -0.8020   -0.6230   -4.0390 hn        1 NOW      0.481800
     45 H13        -0.0690   -3.5300   -4.0320 hx        1 NOW      0.128700
     46 H13A       -0.1650   -2.4420   -5.5000 hx        1 NOW      0.128700
     47 H14        -2.5970   -3.0260   -3.5580 h4        1 NOW      0.045800
     48 HN15       -2.3940   -3.1970   -6.4840 hn        1 NOW      0.430400
     49 H8          3.0540    0.4130   -4.3260 hc        1 NOW      0.101700
     50 H8A         1.4910    1.2640   -4.6950 hc        1 NOW      0.101700
     51 H3          4.7160    1.4170   -2.8650 ha        1 NOW      0.130000
     52 H1          5.6400    3.5310   -1.9320 ha        1 NOW      0.166000
     53 H6          0.9590    3.4290   -3.6730 ha        1 NOW      0.139000
     54 H7          0.6080    5.6560   -2.8790 hc        1 NOW      0.070700
     55 H7A         2.0110    6.5240   -3.6320 hc        1 NOW      0.070700
     56 H7B         1.8520    6.4600   -1.8290 hc        1 NOW      0.070700
     57 H2          4.2450    5.5980   -1.8870 ha        1 NOW      0.173000
     58 H162        2.6630    0.9200   -1.2860 hn        1 NOW      0.490300
     59 H122       -0.7590   -1.6030   -2.6850 hn        1 NOW      0.481800
@<TRIPOS>BOND
     1    1    2 2   
     2    2    3 1   
     3    2   13 1   
     4    3    4 1   
     5    3   12 2   
     6    4    5 1   
     7    4    6 1   
     8    5   29 1   
     9    5   30 1   
    10    5   31 1   
    11    6    7 2   
    12    7    8 1   
    13    7   12 1   
    14    8    9 1   
    15    8   10 1   
    16    8   11 1   
    17    9   32 1   
    18    9   33 1   
    19    9   34 1   
    20   10   35 1   
    21   10   36 1   
    22   10   37 1   
    23   11   38 1   
    24   11   39 1   
    25   11   40 1   
    26   12   41 1   
    27   13   14 1   
    28   13   42 1   
    29   13   58 1   
    30   14   15 1   
    31   14   21 1   
    32   14   43 1   
    33   15   16 1   
    34   15   20 2   
    35   16   17 1   
    36   16   44 1   
    37   16   59 1   
    38   17   18 1   
    39   17   45 1   
    40   17   46 1   
    41   18   19 2   
    42   18   47 1   
    43   19   48 1   
    44   21   22 1   
    45   21   49 1   
    46   21   50 1   
    47   22   23 ar  
    48   22   25 ar  
    49   23   24 ar  
    50   23   51 1   
    51   24   28 ar  
    52   24   52 1   
    53   25   26 ar  
    54   25   53 1   
    55   26   27 1   
    56   26   28 ar  
    57   27   54 1   
    58   27   55 1   
    59   27   56 1   
    60   28   57 1   
@<TRIPOS>SUBSTRUCTURE
     1 NOW         1 TEMP              0 ****  ****    0 ROOT
