@<TRIPOS>MOLECULE
NOW
   59    60     1     0     0
SMALL
bcc


@<TRIPOS>ATOM
      1 O18         0.3840   -1.1350   -0.7760 o         1 NOW     -0.575100
      2 C17         1.4460   -0.6210   -0.4030 c         1 NOW      0.628700
      3 C19         2.0060   -0.4730    0.8850 cc        1 NOW     -0.313900
      4 N23         1.3830   -0.9450    2.0820 na        1 NOW      0.212400
      5 C24         0.1020   -1.6320    2.1110 c3        1 NOW      0.009600
      6 N22         2.1140   -0.6810    3.1300 nc        1 NOW     -0.368800
      7 C21         3.2710   -0.0190    2.7160 cd        1 NOW      0.357600
      8 C25         4.3610    0.4490    3.6340 c3        1 NOW     -0.087300
      9 C28         4.0610    0.1130    5.0890 c3        1 NOW     -0.093433
     10 C27         5.6640   -0.2300    3.2230 c3        1 NOW     -0.093433
     11 C26         4.5010    1.9610    3.4890 c3        1 NOW     -0.093433
     12 C20         3.2390    0.1320    1.3040 cd        1 NOW     -0.185300
     13 N16         2.2930   -0.0600   -1.5450 ny        1 NOW     -0.675800
     14 C9          1.5010    0.1350   -2.8020 c3        1 NOW      0.065500
     15 C10         1.0730   -1.2260   -3.3670 c         1 NOW      0.520100
     16 N12        -0.3900   -1.4300   -3.5910 ny        1 NOW     -0.650800
     17 C13        -0.7020   -2.6510   -4.4050 c3        1 NOW     -0.007500
     18 C14        -2.2030   -2.8790   -4.5020 c2        1 NOW      0.374200
     19 N15        -2.8920   -3.1420   -5.5300 n2        1 NOW     -0.632100
     20 O11         1.8490   -2.1320   -3.6300 o         1 NOW     -0.368100
     21 C8          2.3260    0.8730   -3.8840 c3        1 NOW     -0.040100
     22 C5          2.9180    2.1160   -3.3280 ca        1 NOW     -0.184300
     23 C3          4.2200    2.0930   -2.8050 ca        1 NOW     -0.167000
     24 C1          4.8010    3.2720   -2.3420 ca        1 NOW     -0.102000
     25 C6          2.2120    3.3220   -3.3850 ca        1 NOW     -0.115000
     26 C4          2.7940    4.5080   -2.9210 ca        1 NOW     -0.036300
     27 C7          2.0620    5.7920   -3.0100 c3        1 NOW     -0.077800
     28 C2          4.0940    4.4730   -2.3960 ca        1 NOW     -0.087000
     29 H24        -0.1890   -1.8740    3.1710 h1        1 NOW      0.097367
     30 H24A        0.1920   -2.5800    1.5160 h1        1 NOW      0.097367
     31 H24B       -0.6720   -0.9630    1.6470 h1        1 NOW      0.097367
     32 H28         3.9650   -0.9900    5.2310 hc        1 NOW      0.053033
     33 H28A        4.8980    0.4790    5.7320 hc        1 NOW      0.053033
     34 H28B        3.1180    0.6070    5.4250 hc        1 NOW      0.053033
     35 H27         5.5870   -1.3370    3.3450 hc        1 NOW      0.053033
     36 H27A        5.9120    0.0030    2.1600 hc        1 NOW      0.053033
     37 H27B        6.4960    0.1400    3.8710 hc        1 NOW      0.053033
     38 H26         5.3390    2.3200    4.1350 hc        1 NOW      0.053033
     39 H26A        3.5630    2.4750    3.8090 hc        1 NOW      0.053033
     40 H26B        4.7240    2.2360    2.4300 hc        1 NOW      0.053033
     41 H20         3.9990    0.6070    0.6910 ha        1 NOW      0.179000
     42 HN16        3.0810   -0.7000   -1.7240 hn        1 NOW      0.490300
     43 H9          0.6060    0.7720   -2.5230 hx        1 NOW      0.136700
     44 HN12       -0.8380   -1.5210   -2.6610 hn        1 NOW      0.481800
     45 H13        -0.2210   -2.5220   -5.4180 hx        1 NOW      0.128700
     46 H13A       -0.2280   -3.5450   -3.9010 hx        1 NOW      0.128700
     47 H14        -2.7330   -2.8740   -3.5230 h4        1 NOW      0.045800
     48 HN15       -2.4640   -3.1910   -6.4310 hn        1 NOW      0.430400
     49 H8          3.1280    0.1930   -4.2810 hc        1 NOW      0.101700
     50 H8A         1.6280    1.1160   -4.7310 hc        1 NOW      0.101700
     51 H3          4.8090    1.1640   -2.8180 ha        1 NOW      0.130000
     52 H1          5.8340    3.2600   -1.9540 ha        1 NOW      0.166000
     53 H6          1.2020    3.3530   -3.8220 ha        1 NOW      0.139000
     54 H7          2.2270    6.4080   -2.0910 hc        1 NOW      0.070700
     55 H7A         2.4350    6.3790   -3.8900 hc        1 NOW      0.070700
     56 H7B         0.9640    5.6310   -3.1380 hc        1 NOW      0.070700
     57 H2          4.5640    5.4060   -2.0420 ha        1 NOW      0.173000
     58 H162        2.6910    0.8620   -1.2780 hn        1 NOW      0.490300
     59 H122       -0.7870   -0.6040   -4.0580 hn        1 NOW      0.481800
@<TRIPOS>BOND
     1    1    2 2   
     2    2    3 1   
     3    2   13 1   
     4    3    4 1   
     5    3   12 2   
     6    4    5 1   
     7    4    6 1   
     8    5   29 1   
     9    5   30 1   
    10    5   31 1   
    11    6    7 2   
    12    7    8 1   
    13    7   12 1   
    14    8    9 1   
    15    8   10 1   
    16    8   11 1   
    17    9   32 1   
    18    9   33 1   
    19    9   34 1   
    20   10   35 1   
    21   10   36 1   
    22   10   37 1   
    23   11   38 1   
    24   11   39 1   
    25   11   40 1   
    26   12   41 1   
    27   13   14 1   
    28   13   42 1   
    29   13   58 1   
    30   14   15 1   
    31   14   21 1   
    32   14   43 1   
    33   15   16 1   
    34   15   20 2   
    35   16   17 1   
    36   16   44 1   
    37   16   59 1   
    38   17   18 1   
    39   17   45 1   
    40   17   46 1   
    41   18   19 2   
    42   18   47 1   
    43   19   48 1   
    44   21   22 1   
    45   21   49 1   
    46   21   50 1   
    47   22   23 ar  
    48   22   25 ar  
    49   23   24 ar  
    50   23   51 1   
    51   24   28 ar  
    52   24   52 1   
    53   25   26 ar  
    54   25   53 1   
    55   26   27 1   
    56   26   28 ar  
    57   27   54 1   
    58   27   55 1   
    59   27   56 1   
    60   28   57 1   
@<TRIPOS>SUBSTRUCTURE
     1 NOW         1 TEMP              0 ****  ****    0 ROOT
