@<TRIPOS>MOLECULE
NOW
   57    58     1     0     0
SMALL
bcc


@<TRIPOS>ATOM
      1 O18        -0.7770   -1.0890    1.5900 o         1 NOW     -0.641100
      2 C17        -0.1030   -0.6960    0.6100 c         1 NOW      0.709700
      3 C19         1.3650   -0.8270    0.5610 cc        1 NOW     -0.183900
      4 N23         2.1330   -1.3770    1.6070 na        1 NOW      0.141400
      5 C24         1.5780   -1.8790    2.8450 c3        1 NOW      0.035600
      6 N22         3.4320   -1.3780    1.3120 nc        1 NOW     -0.482800
      7 C21         3.5720   -0.8320    0.0630 cd        1 NOW      0.306600
      8 C25         4.8660   -0.6400   -0.6630 c3        1 NOW     -0.074300
      9 C28         6.0540   -1.1300    0.1540 c3        1 NOW     -0.084767
     10 C27         4.8120   -1.4170   -1.9760 c3        1 NOW     -0.084767
     11 C26         5.0470    0.8450   -0.9600 c3        1 NOW     -0.084767
     12 C20         2.2730   -0.4650   -0.4520 cd        1 NOW     -0.248300
     13 N16        -0.7160   -0.1410   -0.4950 n         1 NOW     -0.546900
     14 C9         -2.1230    0.1730   -0.5030 c3        1 NOW      0.044700
     15 C10        -2.9830   -1.0320   -0.9730 c         1 NOW      0.638100
     16 N12        -2.9210   -2.1720   -0.2070 n         1 NOW     -0.558900
     17 C13        -3.7100   -3.3340   -0.4970 c3        1 NOW      0.031700
     18 C14        -5.0300   -3.3720    0.2610 c2        1 NOW      0.402200
     19 N15        -5.3350   -4.3390    1.0370 n2        1 NOW     -0.762100
     20 O11        -3.6880   -0.9550   -1.9980 o         1 NOW     -0.615100
     21 C8         -2.4600    1.3730   -1.4060 c3        1 NOW     -0.044100
     22 C5         -1.7090    2.5950   -1.0160 ca        1 NOW     -0.087300
     23 C3         -0.6390    3.0450   -1.7970 ca        1 NOW     -0.137000
     24 C1          0.0520    4.2010   -1.4360 ca        1 NOW     -0.122000
     25 C6         -2.0790    3.3140    0.1250 ca        1 NOW     -0.124000
     26 C4         -1.3860    4.4720    0.4930 ca        1 NOW     -0.070300
     27 C7         -1.7730    5.2180    1.7130 c3        1 NOW     -0.055800
     28 C2         -0.3170    4.9120   -0.2960 ca        1 NOW     -0.127000
     29 H24         0.8660   -2.7150    2.6080 h1        1 NOW      0.071367
     30 H24A        2.3920   -2.2470    3.5220 h1        1 NOW      0.071367
     31 H24B        1.0050   -1.0510    3.3440 h1        1 NOW      0.071367
     32 H28         5.9550   -2.2190    0.3770 hc        1 NOW      0.039144
     33 H28A        6.9970   -0.9690   -0.4230 hc        1 NOW      0.039144
     34 H28B        6.1260   -0.5710    1.1170 hc        1 NOW      0.039144
     35 H27         3.9490   -1.0740   -2.5950 hc        1 NOW      0.039144
     36 H27A        5.7550   -1.2540   -2.5500 hc        1 NOW      0.039144
     37 H27B        4.6980   -2.5090   -1.7750 hc        1 NOW      0.039144
     38 H26         5.1060    1.4260   -0.0090 hc        1 NOW      0.039144
     39 H26A        5.9890    1.0040   -1.5370 hc        1 NOW      0.039144
     40 H26B        4.1890    1.2290   -1.5620 hc        1 NOW      0.039144
     41 H20         2.0680   -0.0120   -1.4150 ha        1 NOW      0.164000
     42 HN16       -0.1630    0.2300   -1.2330 hn        1 NOW      0.327500
     43 H9         -2.4430    0.4190    0.5570 h1        1 NOW      0.087700
     44 HN12       -2.4220   -2.1550    0.6550 hn        1 NOW      0.341500
     45 H13        -3.9670   -3.3460   -1.5970 h1        1 NOW      0.079700
     46 H13A       -3.0870   -4.2450   -0.2640 h1        1 NOW      0.079700
     47 H14        -5.6800   -2.4950    0.0430 h4        1 NOW     -0.030200
     48 HN15       -6.2380   -4.2850    1.4600 hn        1 NOW      0.386400
     49 H8         -2.2580    1.1040   -2.4780 hc        1 NOW      0.078200
     50 H8A        -3.5660    1.5520   -1.3200 hc        1 NOW      0.078200
     51 H3         -0.3500    2.4930   -2.7040 ha        1 NOW      0.129000
     52 H1          0.8900    4.5530   -2.0550 ha        1 NOW      0.133000
     53 H6         -2.9240    2.9650    0.7390 ha        1 NOW      0.133000
     54 H7         -1.2040    4.8270    2.5940 hc        1 NOW      0.046367
     55 H7A        -1.5450    6.3070    1.6050 hc        1 NOW      0.046367
     56 H7B        -2.8640    5.1040    1.9230 hc        1 NOW      0.046367
     57 H2          0.2310    5.8240   -0.0150 ha        1 NOW      0.134000
@<TRIPOS>BOND
     1    1    2 2   
     2    2    3 1   
     3    2   13 1   
     4    3    4 1   
     5    3   12 2   
     6    4    5 1   
     7    4    6 1   
     8    5   29 1   
     9    5   30 1   
    10    5   31 1   
    11    6    7 2   
    12    7    8 1   
    13    7   12 1   
    14    8    9 1   
    15    8   10 1   
    16    8   11 1   
    17    9   32 1   
    18    9   33 1   
    19    9   34 1   
    20   10   35 1   
    21   10   36 1   
    22   10   37 1   
    23   11   38 1   
    24   11   39 1   
    25   11   40 1   
    26   12   41 1   
    27   13   14 1   
    28   13   42 1   
    29   14   15 1   
    30   14   21 1   
    31   14   43 1   
    32   15   16 1   
    33   15   20 2   
    34   16   17 1   
    35   16   44 1   
    36   17   18 1   
    37   17   45 1   
    38   17   46 1   
    39   18   19 2   
    40   18   47 1   
    41   19   48 1   
    42   21   22 1   
    43   21   49 1   
    44   21   50 1   
    45   22   23 ar  
    46   22   25 ar  
    47   23   24 ar  
    48   23   51 1   
    49   24   28 ar  
    50   24   52 1   
    51   25   26 ar  
    52   25   53 1   
    53   26   27 1   
    54   26   28 ar  
    55   27   54 1   
    56   27   55 1   
    57   27   56 1   
    58   28   57 1   
@<TRIPOS>SUBSTRUCTURE
     1 NOW         1 TEMP              0 ****  ****    0 ROOT
