@<TRIPOS>MOLECULE
NOW
   57    51     1     0     0
SMALL
bcc


@<TRIPOS>ATOM
      1 O18        -1.5740    0.7560    1.0600 o         1 NOW     -0.403000
      2 C17        -0.4870    0.2370    0.9890 c1        1 NOW      0.383000
      3 C19         0.1500   -0.4300    2.2640 c2        1 NOW     -0.139000
      4 N23        -0.4140   -0.4910    3.5010 n2        1 NOW     -0.073000
      5 C24        -1.7220    0.0410    3.8760 c2        1 NOW     -0.063000
      6 N22         0.4740   -1.1070    4.3420 n2        1 NOW     -0.050000
      7 C21         1.5770   -1.4230    3.6290 c1        1 NOW     -0.116000
      8 C25         2.8080   -2.1610    4.1600 c2        1 NOW      0.020000
      9 C28         2.5210   -2.6800    5.5640 c3        1 NOW     -0.202667
     10 C27         3.1320   -3.3220    3.2490 c3        1 NOW     -0.202667
     11 C26         3.9910   -1.2080    4.2080 c3        1 NOW     -0.202667
     12 C20         1.3810   -1.0030    2.3350 c1        1 NOW     -0.182000
     13 N16         0.2160    0.2270   -0.2450 n2        1 NOW     -0.356000
     14 C9         -0.5170    0.2970   -1.4960 c3        1 NOW      0.018000
     15 C10        -1.0230   -1.0760   -1.8630 c2        1 NOW      0.286000
     16 N12        -2.2430   -1.2140   -2.6350 n         1 NOW     -0.369000
     17 C13        -2.7370   -2.5040   -2.9580 c3        1 NOW     -0.057000
     18 C14        -4.1760   -2.3830   -3.4520 c2        1 NOW     -0.085000
     19 N15        -4.8770   -3.4560   -3.6900 n1        1 NOW     -0.223000
     20 O11        -0.4720   -2.0650   -1.4180 o         1 NOW     -0.373000
     21 C8          0.3910    0.8050   -2.5830 c3        1 NOW     -0.130000
     22 C5          0.1870    2.3230   -2.7580 c2        1 NOW     -0.081000
     23 C3          1.1270    3.1990   -2.2710 c2        1 NOW     -0.137000
     24 C1          1.0230    4.5480   -2.5490 c1        1 NOW     -0.122000
     25 C6         -0.8600    2.7930   -3.5260 c1        1 NOW     -0.124000
     26 C4         -0.9620    4.1360   -3.8020 c1        1 NOW     -0.062000
     27 C7         -2.1250    4.6480   -4.5750 c3        1 NOW     -0.182000
     28 C2         -0.0200    5.0140   -3.3140 c1        1 NOW     -0.127000
     29 H24        -1.7080    1.0310    3.8140 ha        1 NOW      0.110333
     30 H24A       -2.4110   -0.3180    3.2660 ha        1 NOW      0.110333
     31 H24B       -1.9300   -0.2240    4.7900 ha        1 NOW      0.110333
     32 H28         1.6950   -3.2100    5.5560 hc        1 NOW      0.078667
     33 H28A        3.2680   -3.2420    5.8650 hc        1 NOW      0.078667
     34 H28B        2.4170   -1.9240    6.1740 hc        1 NOW      0.078667
     35 H27         2.3560   -3.9040    3.1770 hc        1 NOW      0.078667
     36 H27A        3.8920   -3.8310    3.6220 hc        1 NOW      0.078667
     37 H27B        3.3690   -2.9840    2.3610 hc        1 NOW      0.078667
     38 H26         4.7660   -1.6690    4.5840 hc        1 NOW      0.078667
     39 H26A        3.7640   -0.4320    4.7720 hc        1 NOW      0.078667
     40 H26B        4.2000   -0.9040    3.3080 hc        1 NOW      0.078667
     41 H20         2.0280   -1.1020    1.5800 DU        1 NOW      0.149000
     42 HN16        1.1250    0.1010   -0.2520 hn        1 NOW      0.241000
     43 H9         -1.2740    0.9050   -1.3940 h1        1 NOW      0.127000
     44 HN12       -2.6710   -0.4670   -2.9550 hn        1 NOW      0.255000
     45 H13        -2.1780   -2.9030   -3.6670 h1        1 NOW      0.112000
     46 H13A       -2.7110   -3.0670   -2.1710 h1        1 NOW      0.112000
     47 H14        -4.5700   -1.5060   -3.5880 h4        1 NOW      0.150000
     48 HN15       -4.5010   -4.2940   -3.5600 DU        1 NOW      0.149000
     49 H8          1.3200    0.6280   -2.3390 hc        1 NOW      0.118000
     50 H8A         0.1820    0.3480   -3.4230 hc        1 NOW      0.118000
     51 H3          1.8720    2.8660   -1.7250 ha        1 NOW      0.129000
     52 H1          1.6900    5.1700   -2.2040 ha        1 NOW      0.133000
     53 H6         -1.5380    2.1620   -3.8810 ha        1 NOW      0.133000
     54 H7         -2.9370    4.2590   -4.2280 hc        1 NOW      0.085667
     55 H7A        -2.1680    5.6260   -4.4900 hc        1 NOW      0.085667
     56 H7B        -2.0220    4.4040   -5.5230 hc        1 NOW      0.085667
     57 H2         -0.0950    5.9820   -3.5140 ha        1 NOW      0.134000
@<TRIPOS>BOND
     1    1    2 1   
     2    2    3 1   
     3    3    4 1   
     4    3   12 1   
     5    4    6 1   
     6    5   29 1   
     7    5   30 1   
     8    5   31 1   
     9    6    7 1   
    10    7   12 1   
    11    8    9 1   
    12    8   10 1   
    13    8   11 1   
    14    9   32 1   
    15    9   33 1   
    16    9   34 1   
    17   10   35 1   
    18   10   36 1   
    19   10   37 1   
    20   11   38 1   
    21   11   39 1   
    22   11   40 1   
    23   13   14 1   
    24   13   42 1   
    25   14   15 1   
    26   14   21 1   
    27   14   43 1   
    28   15   16 1   
    29   15   20 1   
    30   16   17 1   
    31   16   44 1   
    32   17   18 1   
    33   17   45 1   
    34   17   46 1   
    35   18   19 1   
    36   18   47 1   
    37   21   22 1   
    38   21   49 1   
    39   21   50 1   
    40   22   23 1   
    41   22   25 1   
    42   23   24 1   
    43   23   51 1   
    44   24   52 1   
    45   25   53 1   
    46   26   27 1   
    47   26   28 1   
    48   27   54 1   
    49   27   55 1   
    50   27   56 1   
    51   28   57 1   
@<TRIPOS>SUBSTRUCTURE
     1 NOW         1 TEMP              0 ****  ****    0 ROOT
