@<TRIPOS>MOLECULE
NOX
   49    50     1     0     0
SMALL
bcc


@<TRIPOS>ATOM
      1 N1         -5.2480   -0.4080    0.1570 n4        1 NOX     -0.146600
      2 C2         -5.7240    0.2450   -1.1380 c3        1 NOX      0.091300
      3 C3         -7.2390    0.2540   -1.2660 c3        1 NOX     -0.083400
      4 C4         -7.8850    0.9670   -0.0980 c3        1 NOX     -0.080400
      5 C5         -7.4260    0.3550    1.2080 c3        1 NOX     -0.083400
      6 C6         -5.9090    0.3520    1.3080 c3        1 NOX      0.091300
      7 O7         -5.5150   -1.6510    0.1930 o         1 NOX     -0.648000
      8 C8         -3.7500   -0.1370    0.2870 c3        1 NOX      0.099800
      9 C9         -2.9030   -0.8630   -0.7510 c3        1 NOX     -0.029100
     10 C10        -1.4610   -0.6430   -0.4640 ca        1 NOX     -0.141300
     11 C11        -0.7900   -1.4400    0.4680 ca        1 NOX     -0.099000
     12 C12         0.5560   -1.2430    0.7510 ca        1 NOX     -0.180000
     13 C13         1.2820   -0.2220    0.0960 ca        1 NOX      0.094600
     14 C14         0.5970    0.5760   -0.8580 ca        1 NOX     -0.180000
     15 C15        -0.7470    0.3610   -1.1250 ca        1 NOX     -0.099000
     16 N16         2.6290    0.0540    0.3460 n         1 NOX     -0.471100
     17 C17         3.5100   -0.6450    1.1650 c         1 NOX      0.668100
     18 O18         3.1550   -1.6500    1.8140 o         1 NOX     -0.625100
     19 C19         4.9310   -0.1240    1.2820 c3        1 NOX     -0.150400
     20 C20         5.4280    0.7240    0.1340 c3        1 NOX     -0.080400
     21 C21         6.8950    1.0500    0.2770 c3        1 NOX     -0.199400
     22 C22         7.3080    2.1770   -0.6920 c         1 NOX      0.910600
     23 O23         8.5110    2.2040   -1.0730 o         1 NOX     -0.846800
     24 O24         6.4310    3.0200   -1.0420 o         1 NOX     -0.846800
     25 H21        -5.3270    1.2940   -1.1700 hx        1 NOX      0.062700
     26 H22        -5.2850   -0.3530   -1.9810 hx        1 NOX      0.062700
     27 H31        -7.6080   -0.8060   -1.3110 hc        1 NOX      0.061450
     28 H32        -7.5100    0.7610   -2.2280 hc        1 NOX      0.061450
     29 H41        -9.0000    0.8910   -0.1790 hc        1 NOX      0.038700
     30 H42        -7.6190    2.0560   -0.1220 hc        1 NOX      0.038700
     31 H51        -7.7990   -0.7020    1.2820 hc        1 NOX      0.061450
     32 H52        -7.8370    0.9340    2.0750 hc        1 NOX      0.061450
     33 H61        -5.5960   -0.1630    2.2550 hx        1 NOX      0.062700
     34 H62        -5.5210    1.4060    1.3040 hx        1 NOX      0.062700
     35 H81        -3.4510   -0.4970    1.3100 hx        1 NOX      0.064200
     36 H82        -3.5800    0.9710    0.2180 hx        1 NOX      0.064200
     37 H91        -3.1490   -0.4880   -1.7800 hc        1 NOX      0.064200
     38 H92        -3.1500   -1.9600   -0.7230 hc        1 NOX      0.064200
     39 H11        -1.3370   -2.2430    0.9880 ha        1 NOX      0.126500
     40 H12         1.0530   -1.8930    1.4910 ha        1 NOX      0.157000
     41 H14         1.1300    1.3740   -1.3990 ha        1 NOX      0.157000
     42 H15        -1.2540    0.9910   -1.8720 ha        1 NOX      0.126500
     43 HN6         3.0130    0.8150   -0.1770 hn        1 NOX      0.337500
     44 H191        5.5950   -1.0220    1.4050 hc        1 NOX      0.070200
     45 H192        4.9790    0.4650    2.2370 hc        1 NOX      0.070200
     46 H201        4.8730    1.7020    0.0850 hc        1 NOX      0.053200
     47 H202        5.2630    0.1920   -0.8390 hc        1 NOX      0.053200
     48 H211        7.5220    0.1460    0.0790 hc        1 NOX      0.025700
     49 H212        7.1150    1.4010    1.3160 hc        1 NOX      0.025700
@<TRIPOS>BOND
     1    1    2 1   
     2    1    6 1   
     3    1    7 1   
     4    1    8 1   
     5    2    3 1   
     6    2   25 1   
     7    2   26 1   
     8    3    4 1   
     9    3   27 1   
    10    3   28 1   
    11    4    5 1   
    12    4   29 1   
    13    4   30 1   
    14    5    6 1   
    15    5   31 1   
    16    5   32 1   
    17    6   33 1   
    18    6   34 1   
    19    8    9 1   
    20    8   35 1   
    21    8   36 1   
    22    9   10 1   
    23    9   37 1   
    24    9   38 1   
    25   10   11 ar  
    26   10   15 ar  
    27   11   12 ar  
    28   11   39 1   
    29   12   13 ar  
    30   12   40 1   
    31   13   14 ar  
    32   13   16 1   
    33   14   15 ar  
    34   14   41 1   
    35   15   42 1   
    36   16   17 1   
    37   16   43 1   
    38   17   18 2   
    39   17   19 1   
    40   19   20 1   
    41   19   44 1   
    42   19   45 1   
    43   20   21 1   
    44   20   46 1   
    45   20   47 1   
    46   21   22 1   
    47   21   48 1   
    48   21   49 1   
    49   22   23 1   
    50   22   24 1   
@<TRIPOS>SUBSTRUCTURE
     1 NOX         1 TEMP              0 ****  ****    0 ROOT
