@<TRIPOS>MOLECULE
NOX
   49    50     1     0     0
SMALL
bcc


@<TRIPOS>ATOM
      1 N1          0.1050    0.0390    0.0200 n4        1 NOX     -0.146600
      2 C2          1.6230    0.1970    0.0280 c3        1 NOX      0.091300
      3 C3          2.2600   -0.3250    1.3060 c3        1 NOX     -0.083400
      4 C4          1.9230   -1.7840    1.5310 c3        1 NOX     -0.080400
      5 C5          0.4220   -1.9830    1.5160 c3        1 NOX     -0.083400
      6 C6         -0.1890   -1.4470    0.2320 c3        1 NOX      0.091300
      7 O7         -0.4570    0.7650    0.9010 o         1 NOX     -0.648000
      8 C8         -0.3860    0.3620   -1.3910 c3        1 NOX      0.099800
      9 C9         -0.2290    1.8280   -1.7740 c3        1 NOX     -0.029100
     10 C10        -0.8500    2.0680   -3.1030 ca        1 NOX     -0.141300
     11 C11        -2.2230    2.3070   -3.2160 ca        1 NOX     -0.099000
     12 C12        -2.8180    2.5270   -4.4530 ca        1 NOX     -0.180000
     13 C13        -2.0410    2.5130   -5.6330 ca        1 NOX      0.094600
     14 C14        -0.6450    2.2820   -5.5100 ca        1 NOX     -0.180000
     15 C15        -0.0720    2.0640   -4.2650 ca        1 NOX     -0.099000
     16 N16        -2.5700    2.7000   -6.9120 n         1 NOX     -0.471100
     17 C17        -3.8780    3.0260   -7.2600 c         1 NOX      0.668100
     18 O18        -4.7720    3.1780   -6.4040 o         1 NOX     -0.625100
     19 C19        -4.2050    3.1550   -8.7370 c3        1 NOX     -0.150400
     20 C20        -3.0450    3.4740   -9.6520 c3        1 NOX     -0.080400
     21 C21        -3.5080    3.7410  -11.0640 c3        1 NOX     -0.199400
     22 C22        -2.3190    3.7250  -12.0470 c         1 NOX      0.910600
     23 O23        -2.4260    4.4150  -13.1000 o         1 NOX     -0.846800
     24 O24        -1.3100    3.0170  -11.7600 o         1 NOX     -0.846800
     25 H21         1.8330    1.2960   -0.0680 hx        1 NOX      0.062700
     26 H22         2.0390   -0.3470   -0.8620 hx        1 NOX      0.062700
     27 H31         3.3690   -0.1900    1.2290 hc        1 NOX      0.061450
     28 H32         1.8900    0.2840    2.1740 hc        1 NOX      0.061450
     29 H41         2.3980   -2.4120    0.7320 hc        1 NOX      0.038700
     30 H42         2.3390   -2.1200    2.5160 hc        1 NOX      0.038700
     31 H51         0.1740   -3.0720    1.5990 hc        1 NOX      0.061450
     32 H52        -0.0370   -1.4500    2.3910 hc        1 NOX      0.061450
     33 H61         0.2100   -2.0150   -0.6510 hx        1 NOX      0.062700
     34 H62        -1.3060   -1.5510    0.2770 hx        1 NOX      0.062700
     35 H81        -1.4790    0.1000   -1.4130 hx        1 NOX      0.064200
     36 H82         0.1680   -0.2890   -2.1190 hx        1 NOX      0.064200
     37 H91        -0.7180    2.4660   -0.9870 hc        1 NOX      0.064200
     38 H92         0.8590    2.1040   -1.8050 hc        1 NOX      0.064200
     39 H11        -2.8460    2.3240   -2.3080 ha        1 NOX      0.126500
     40 H12        -3.9040    2.7150   -4.5020 ha        1 NOX      0.157000
     41 H14        -0.0030    2.2740   -6.4040 ha        1 NOX      0.157000
     42 H15         1.0130    1.8900   -4.1960 ha        1 NOX      0.126500
     43 HN6        -1.9080    2.6490   -7.6600 hn        1 NOX      0.337500
     44 H191       -4.6770    2.1840   -9.0480 hc        1 NOX      0.070200
     45 H192       -4.9890    3.9550   -8.8250 hc        1 NOX      0.070200
     46 H201       -2.4900    4.3710   -9.2720 hc        1 NOX      0.053200
     47 H202       -2.3180    2.6170   -9.6960 hc        1 NOX      0.053200
     48 H211       -4.0280    4.7280  -11.1300 hc        1 NOX      0.025700
     49 H212       -4.2280    2.9500  -11.3920 hc        1 NOX      0.025700
@<TRIPOS>BOND
     1    1    2 1   
     2    1    6 1   
     3    1    7 1   
     4    1    8 1   
     5    2    3 1   
     6    2   25 1   
     7    2   26 1   
     8    3    4 1   
     9    3   27 1   
    10    3   28 1   
    11    4    5 1   
    12    4   29 1   
    13    4   30 1   
    14    5    6 1   
    15    5   31 1   
    16    5   32 1   
    17    6   33 1   
    18    6   34 1   
    19    8    9 1   
    20    8   35 1   
    21    8   36 1   
    22    9   10 1   
    23    9   37 1   
    24    9   38 1   
    25   10   11 ar  
    26   10   15 ar  
    27   11   12 ar  
    28   11   39 1   
    29   12   13 ar  
    30   12   40 1   
    31   13   14 ar  
    32   13   16 1   
    33   14   15 ar  
    34   14   41 1   
    35   15   42 1   
    36   16   17 1   
    37   16   43 1   
    38   17   18 2   
    39   17   19 1   
    40   19   20 1   
    41   19   44 1   
    42   19   45 1   
    43   20   21 1   
    44   20   46 1   
    45   20   47 1   
    46   21   22 1   
    47   21   48 1   
    48   21   49 1   
    49   22   23 1   
    50   22   24 1   
@<TRIPOS>SUBSTRUCTURE
     1 NOX         1 TEMP              0 ****  ****    0 ROOT
