@<TRIPOS>MOLECULE
NOX
   49    48     1     0     0
SMALL
bcc


@<TRIPOS>ATOM
      1 N1          0.8250   -0.5400    4.2630 n4        1 NOX      0.328000
      2 C2          1.8550   -1.4560    4.7200 c3        1 NOX     -0.145500
      3 C3          2.0940   -1.3620    6.2200 c3        1 NOX     -0.162500
      4 C4          0.8380   -1.4860    7.0030 c3        1 NOX     -0.159000
      5 C5         -0.1990   -0.5630    6.5410 c3        1 NOX     -0.162500
      6 C6         -0.4330   -0.6590    5.0440 c3        1 NOX     -0.145500
      7 O7          1.2900    0.7310    4.3720 o         1 NOX     -0.648000
      8 C8          0.5530   -0.8030    2.9240 c3        1 NOX     -0.137000
      9 C9          0.7930    0.4970    2.0720 c3        1 NOX     -0.115000
     10 C10         0.3450    0.2470    0.6090 c2        1 NOX     -0.133000
     11 C11        -0.8780    0.7330    0.1660 c2        1 NOX     -0.104000
     12 C12        -1.2450    0.5840   -1.1720 c1        1 NOX     -0.170000
     13 C13        -0.3880   -0.0480   -2.0590 c1        1 NOX      0.102000
     14 C14         0.8370   -0.5350   -1.6160 c1        1 NOX     -0.189000
     15 C15         1.2030   -0.3870   -0.2800 c1        1 NOX     -0.096000
     16 N16        -0.8250   -0.3290   -3.4000 n         1 NOX     -0.324000
     17 C17        -1.0850    0.7490   -4.3100 c2        1 NOX      0.313000
     18 O18        -0.9370    1.8990   -3.9470 o         1 NOX     -0.388000
     19 C19        -1.5590    0.4440   -5.7570 c3        1 NOX     -0.179000
     20 C20        -0.8970    1.4530   -6.7450 c3        1 NOX     -0.159000
     21 C21        -1.4700    1.2390   -8.1550 c3        1 NOX     -0.228000
     22 C22        -0.8390    2.2430   -9.1180 c2        1 NOX      0.330000
     23 O23        -1.4640    3.3010   -9.4270 o         1 NOX     -0.581000
     24 O24         0.2570    1.9730   -9.6800 o         1 NOX     -0.581000
     25 H21         2.6950   -1.2500    4.2500 hx        1 NOX      0.101750
     26 H22         1.5810   -2.3800    4.4990 hx        1 NOX      0.101750
     27 H31         2.7130   -2.0850    6.4920 hc        1 NOX      0.100750
     28 H32         2.5080   -0.4990    6.4210 hc        1 NOX      0.100750
     29 H41         0.5040   -2.4030    6.9240 hc        1 NOX      0.078000
     30 H42         1.0330   -1.2980    7.9520 hc        1 NOX      0.078000
     31 H51         0.0710    0.3530    6.7610 hc        1 NOX      0.100750
     32 H52        -1.0430   -0.7700    7.0110 hc        1 NOX      0.100750
     33 H61        -0.8530   -1.5290    4.8410 hx        1 NOX      0.101750
     34 H62        -1.0450    0.0580    4.7720 hx        1 NOX      0.101750
     35 H81        -0.3810   -1.0880    2.8300 hx        1 NOX      0.103000
     36 H82         1.1470   -1.5180    2.6040 hx        1 NOX      0.103000
     37 H91         0.2740    1.2400    2.4510 hc        1 NOX      0.104000
     38 H92         1.7520    0.7250    2.0860 hc        1 NOX      0.104000
     39 H11        -1.4490    1.2320    0.7730 ha        1 NOX      0.121000
     40 H12        -2.1400    0.8400   -1.4600 ha        1 NOX      0.174000
     41 H14         1.4390   -0.9990   -2.2430 ha        1 NOX      0.140000
     42 H15         2.0260   -0.7950    0.0460 ha        1 NOX      0.132000
     43 HN6        -0.9510   -1.1950   -3.6680 hn        1 NOX      0.252000
     44 H191       -1.2990   -0.4670   -6.0000 hc        1 NOX      0.109500
     45 H192       -2.5320    0.5300   -5.8070 hc        1 NOX      0.109500
     46 H201       -1.0840    2.3670   -6.4510 hc        1 NOX      0.092500
     47 H202        0.0750    1.3060   -6.7610 hc        1 NOX      0.092500
     48 H211       -1.2690    0.3290   -8.4550 hc        1 NOX      0.065000
     49 H212       -2.4420    1.3710   -8.1370 hc        1 NOX      0.065000
@<TRIPOS>BOND
     1    1    2 1   
     2    1    6 1   
     3    1    7 1   
     4    1    8 1   
     5    2    3 1   
     6    2   25 1   
     7    2   26 1   
     8    3    4 1   
     9    3   27 1   
    10    3   28 1   
    11    4    5 1   
    12    4   29 1   
    13    4   30 1   
    14    5    6 1   
    15    5   31 1   
    16    5   32 1   
    17    6   33 1   
    18    6   34 1   
    19    8    9 1   
    20    8   35 1   
    21    8   36 1   
    22    9   10 1   
    23    9   37 1   
    24    9   38 1   
    25   10   11 1   
    26   10   15 1   
    27   11   12 1   
    28   11   39 1   
    29   12   40 1   
    30   13   14 1   
    31   13   16 1   
    32   14   41 1   
    33   15   42 1   
    34   16   17 1   
    35   16   43 1   
    36   17   18 1   
    37   17   19 1   
    38   19   20 1   
    39   19   44 1   
    40   19   45 1   
    41   20   21 1   
    42   20   46 1   
    43   20   47 1   
    44   21   22 1   
    45   21   48 1   
    46   21   49 1   
    47   22   23 1   
    48   22   24 1   
@<TRIPOS>SUBSTRUCTURE
     1 NOX         1 TEMP              0 ****  ****    0 ROOT
