@<TRIPOS>MOLECULE
NOX
   49    50     1     0     0
SMALL
bcc


@<TRIPOS>ATOM
      1 N1          0.0930    0.0770    0.0360 n4        1 NOX     -0.146600
      2 C2          1.6130    0.2110    0.0390 c3        1 NOX      0.091300
      3 C3          2.2430   -0.3040    1.3230 c3        1 NOX     -0.083400
      4 C4          1.8830   -1.7530    1.5690 c3        1 NOX     -0.080400
      5 C5          0.3800   -1.9290    1.5600 c3        1 NOX     -0.083400
      6 C6         -0.2250   -1.4010    0.2700 c3        1 NOX      0.091300
      7 O7         -0.4560    0.8250    0.9070 o         1 NOX     -0.648000
      8 C8         -0.3950    0.3880   -1.3790 c3        1 NOX      0.099800
      9 C9         -0.2160    1.8470   -1.7820 c3        1 NOX     -0.029100
     10 C10        -0.8360    2.0780   -3.1140 ca        1 NOX     -0.141300
     11 C11        -2.2080    2.3240   -3.2290 ca        1 NOX     -0.099000
     12 C12        -2.8020    2.5350   -4.4670 ca        1 NOX     -0.180000
     13 C13        -2.0250    2.5050   -5.6470 ca        1 NOX      0.094600
     14 C14        -0.6300    2.2670   -5.5220 ca        1 NOX     -0.180000
     15 C15        -0.0580    2.0580   -4.2760 ca        1 NOX     -0.099000
     16 N16        -2.5540    2.6830   -6.9280 ns        1 NOX     -0.471100
     17 C17        -3.8600    3.0080   -7.2800 c         1 NOX      0.668100
     18 O18        -4.7540    3.1710   -6.4250 o         1 NOX     -0.625100
     19 C19        -4.1870    3.1240   -8.7580 c3        1 NOX     -0.150400
     20 C20        -3.0260    3.4270   -9.6760 c3        1 NOX     -0.080400
     21 C21        -3.4870    3.6800  -11.0910 c3        1 NOX     -0.199400
     22 C22        -2.2990    3.6480  -12.0740 c         1 NOX      0.910600
     23 O23        -2.4040    4.3250  -13.1350 o         1 NOX     -0.846800
     24 O24        -1.2930    2.9390  -11.7790 o         1 NOX     -0.846800
     25 H21         2.0180   -0.3520   -0.8440 hx        1 NOX      0.062700
     26 H22         1.8410    1.3050   -0.0730 hx        1 NOX      0.062700
     27 H31         3.3550   -0.1880    1.2430 hc        1 NOX      0.061450
     28 H32         1.8850    0.3240    2.1830 hc        1 NOX      0.061450
     29 H41         2.2960   -2.0820    2.5580 hc        1 NOX      0.038700
     30 H42         2.3470   -2.4000    0.7790 hc        1 NOX      0.038700
     31 H51        -0.0700   -1.3760    2.4280 hc        1 NOX      0.061450
     32 H52         0.1140   -3.0130    1.6580 hc        1 NOX      0.061450
     33 H61         0.1630   -1.9870   -0.6060 hx        1 NOX      0.062700
     34 H62        -1.3430   -1.4860    0.3170 hx        1 NOX      0.062700
     35 H81         0.1470   -0.2810   -2.0980 hx        1 NOX      0.064200
     36 H82        -1.4930    0.1430   -1.3950 hx        1 NOX      0.064200
     37 H91         0.8750    2.1060   -1.8180 hc        1 NOX      0.064200
     38 H92        -0.6950    2.5030   -1.0040 hc        1 NOX      0.064200
     39 H11        -2.8310    2.3530   -2.3210 ha        1 NOX      0.126500
     40 H12        -3.8860    2.7290   -4.5180 ha        1 NOX      0.157000
     41 H14         0.0120    2.2480   -6.4170 ha        1 NOX      0.157000
     42 H15         1.0260    1.8790   -4.2050 ha        1 NOX      0.126500
     43 HN6        -1.8920    2.6220   -7.6760 hn        1 NOX      0.337500
     44 H191       -4.9660    3.9280   -8.8530 hc        1 NOX      0.070200
     45 H192       -4.6650    2.1530   -9.0580 hc        1 NOX      0.070200
     46 H201       -2.4650    4.3250   -9.3070 hc        1 NOX      0.053200
     47 H202       -2.3030    2.5640   -9.7110 hc        1 NOX      0.053200
     48 H211       -4.2110    2.8880  -11.4110 hc        1 NOX      0.025700
     49 H212       -4.0030    4.6680  -11.1680 hc        1 NOX      0.025700
@<TRIPOS>BOND
     1    1    2 1   
     2    1    6 1   
     3    1    7 1   
     4    1    8 1   
     5    2    3 1   
     6    2   25 1   
     7    2   26 1   
     8    3    4 1   
     9    3   27 1   
    10    3   28 1   
    11    4    5 1   
    12    4   29 1   
    13    4   30 1   
    14    5    6 1   
    15    5   31 1   
    16    5   32 1   
    17    6   33 1   
    18    6   34 1   
    19    8    9 1   
    20    8   35 1   
    21    8   36 1   
    22    9   10 1   
    23    9   37 1   
    24    9   38 1   
    25   10   11 ar  
    26   10   15 ar  
    27   11   12 ar  
    28   11   39 1   
    29   12   13 ar  
    30   12   40 1   
    31   13   14 ar  
    32   13   16 1   
    33   14   15 ar  
    34   14   41 1   
    35   15   42 1   
    36   16   17 1   
    37   16   43 1   
    38   17   18 2   
    39   17   19 1   
    40   19   20 1   
    41   19   44 1   
    42   19   45 1   
    43   20   21 1   
    44   20   46 1   
    45   20   47 1   
    46   21   22 1   
    47   21   48 1   
    48   21   49 1   
    49   22   23 1   
    50   22   24 1   
@<TRIPOS>SUBSTRUCTURE
     1 NOX         1 TEMP              0 ****  ****    0 ROOT
