@<TRIPOS>MOLECULE
NOX
   50    51     1     0     0
SMALL
bcc


@<TRIPOS>ATOM
      1 N1         -0.0800    0.0400   -0.0030 n4        1 NOX     -0.147600
      2 C2          1.4240   -0.1160    0.2020 c3        1 NOX      0.093800
      3 C3          1.7820   -0.5060    1.6270 c3        1 NOX     -0.084400
      4 C4          1.0990   -1.7960    2.0300 c3        1 NOX     -0.081400
      5 C5         -0.3970   -1.6850    1.8270 c3        1 NOX     -0.084400
      6 C6         -0.7280   -1.2860    0.3980 c3        1 NOX      0.093800
      7 O7         -0.5560    1.0210    0.6530 o         1 NOX     -0.646000
      8 C8         -0.3270    0.1900   -1.5040 c3        1 NOX      0.096800
      9 C9          0.2070    1.4990   -2.0720 c3        1 NOX     -0.038100
     10 C10        -0.3270    1.7220   -3.4420 ca        1 NOX     -0.116300
     11 C11        -1.6440    2.1620   -3.6220 ca        1 NOX     -0.101500
     12 C12        -2.1530    2.3860   -4.8930 ca        1 NOX     -0.170000
     13 C13        -1.3450    2.1720   -6.0390 ca        1 NOX      0.070600
     14 C14        -0.0190    1.7320   -5.8520 ca        1 NOX     -0.170000
     15 C15         0.4720    1.5130   -4.5680 ca        1 NOX     -0.101500
     16 N16        -1.9090    2.4140   -7.3010 n         1 NOX     -0.468100
     17 C17        -1.3050    2.2660   -8.5370 c         1 NOX      0.666100
     18 O18        -0.1360    1.8690   -8.7000 o         1 NOX     -0.597100
     19 C19        -2.1730    2.6070   -9.7430 c3        1 NOX     -0.159400
     20 C20        -2.3950    4.1010   -9.8690 c3        1 NOX     -0.069400
     21 C21        -3.7960    4.4300  -10.3400 c3        1 NOX     -0.178400
     22 C22        -4.8300    4.1470   -9.2910 c         1 NOX      0.630100
     23 O23        -4.6650    3.6240   -8.1870 o         1 NOX     -0.510000
     24 O24        -6.1290    4.4880   -9.5400 oh        1 NOX     -0.574100
     25 H21         1.8860    0.8790   -0.0390 hx        1 NOX      0.061950
     26 H22         1.7980   -0.8920   -0.5170 hx        1 NOX      0.061950
     27 H31         1.4680    0.3180    2.3220 hc        1 NOX      0.064200
     28 H32         2.8940   -0.6180    1.6940 hc        1 NOX      0.064200
     29 H41         1.3180   -2.0180    3.1070 hc        1 NOX      0.041700
     30 H42         1.5040   -2.6470    1.4220 hc        1 NOX      0.041700
     31 H51        -0.8160   -0.9150    2.5290 hc        1 NOX      0.064200
     32 H52        -0.8930   -2.6660    2.0440 hc        1 NOX      0.064200
     33 H61        -1.8370   -1.1470    0.2950 hx        1 NOX      0.061950
     34 H62        -0.3760   -2.0790   -0.3150 hx        1 NOX      0.061950
     35 H81        -1.4430    0.1610   -1.6440 hx        1 NOX      0.062700
     36 H82         0.1370   -0.6840   -2.0340 hx        1 NOX      0.062700
     37 H91        -0.1020    2.3450   -1.3960 hc        1 NOX      0.070200
     38 H92         1.3290    1.4750   -2.0950 hc        1 NOX      0.070200
     39 H11        -2.2820    2.3380   -2.7410 ha        1 NOX      0.136000
     40 H12        -3.1930    2.7330   -5.0010 ha        1 NOX      0.155000
     41 H14         0.6430    1.5560   -6.7160 ha        1 NOX      0.155000
     42 H15         1.5120    1.1730   -4.4460 ha        1 NOX      0.136000
     43 HN6        -2.8570    2.7390   -7.2970 hn        1 NOX      0.343500
     44 H191       -3.1550    2.0690   -9.6540 hc        1 NOX      0.075200
     45 H192       -1.6490    2.2150  -10.6540 hc        1 NOX      0.075200
     46 H201       -2.2170    4.6150   -8.8860 hc        1 NOX      0.066700
     47 H202       -1.6590    4.5270  -10.6010 hc        1 NOX      0.066700
     48 H211       -3.8540    5.5190  -10.6120 hc        1 NOX      0.077200
     49 H212       -4.0490    3.8330  -11.2570 hc        1 NOX      0.077200
     50 H162       -6.2030    4.8960  -10.4130 ho        1 NOX      0.427000
@<TRIPOS>BOND
     1    1    2 1   
     2    1    6 1   
     3    1    7 1   
     4    1    8 1   
     5    2    3 1   
     6    2   25 1   
     7    2   26 1   
     8    3    4 1   
     9    3   27 1   
    10    3   28 1   
    11    4    5 1   
    12    4   29 1   
    13    4   30 1   
    14    5    6 1   
    15    5   31 1   
    16    5   32 1   
    17    6   33 1   
    18    6   34 1   
    19    8    9 1   
    20    8   35 1   
    21    8   36 1   
    22    9   10 1   
    23    9   37 1   
    24    9   38 1   
    25   10   11 ar  
    26   10   15 ar  
    27   11   12 ar  
    28   11   39 1   
    29   12   13 ar  
    30   12   40 1   
    31   13   14 ar  
    32   13   16 1   
    33   14   15 ar  
    34   14   41 1   
    35   15   42 1   
    36   16   17 1   
    37   16   43 1   
    38   17   18 2   
    39   17   19 1   
    40   19   20 1   
    41   19   44 1   
    42   19   45 1   
    43   20   21 1   
    44   20   46 1   
    45   20   47 1   
    46   21   22 1   
    47   21   48 1   
    48   21   49 1   
    49   22   23 2   
    50   22   24 1   
    51   24   50 1   
@<TRIPOS>SUBSTRUCTURE
     1 NOX         1 TEMP              0 ****  ****    0 ROOT
