@<TRIPOS>MOLECULE
NOY
   24    24     1     0     0
SMALL
bcc


@<TRIPOS>ATOM
      1 O4          0.0600    0.0690   -0.2900 oh        1 NOY     -0.611800
      2 C4          1.4710    0.0500   -0.1450 c3        1 NOY      0.152100
      3 C3          1.8540    0.0890    1.3420 c3        1 NOY      0.080100
      4 O3          1.4480    1.3550    1.8340 oh        1 NOY     -0.609800
      5 C2          3.3890   -0.0730    1.5080 c3        1 NOY      0.343300
      6 N           3.8730   -1.2780    0.8460 n3        1 NOY     -0.863200
      7 C7          3.4950   -1.3710   -0.5470 c3        1 NOY      0.180800
      8 C5          1.9850   -1.2440   -0.7810 c3        1 NOY     -0.112700
      9 C6          1.7020   -1.2710   -2.2810 c3        1 NOY      0.145400
     10 O2          3.7020   -0.0790    2.8960 oh        1 NOY     -0.606800
     11 O6          0.3880   -1.6980   -2.5660 oh        1 NOY     -0.602800
     12 H4         -0.2590    0.8380    0.2020 ho        1 NOY      0.427000
     13 HA          1.9090    0.9490   -0.6640 h1        1 NOY      0.048700
     14 H3          1.3120   -0.7210    1.9050 h1        1 NOY      0.063700
     15 H5          1.4500   -2.1120   -0.3030 hc        1 NOY      0.091700
     16 HB          1.8520    1.4590    2.7070 ho        1 NOY      0.425000
     17 H           4.8640   -1.3670    0.9610 hn        1 NOY      0.383800
     18 H7C1        4.0140   -0.5890   -1.1790 h1        1 NOY      0.038700
     19 H7C2        3.8300   -2.3840   -0.9120 h1        1 NOY      0.038700
     20 H6C1        1.8840   -0.2560   -2.7280 h1        1 NOY      0.042700
     21 H6C2        2.3590   -2.0260   -2.7920 h1        1 NOY      0.042700
     22 H6C3       -0.2190   -1.1210   -2.0820 ho        1 NOY      0.422000
     23 H12         3.8940    0.8740    1.1370 h2        1 NOY      0.063700
     24 H22         3.3730   -0.8990    3.2850 ho        1 NOY      0.416000
@<TRIPOS>BOND
     1    1    2 1   
     2    1   12 1   
     3    2    3 1   
     4    2    8 1   
     5    2   13 1   
     6    3    4 1   
     7    3    5 1   
     8    3   14 1   
     9    4   16 1   
    10    5    6 1   
    11    5   10 1   
    12    5   23 1   
    13    6    7 1   
    14    6   17 1   
    15    7    8 1   
    16    7   18 1   
    17    7   19 1   
    18    8    9 1   
    19    8   15 1   
    20    9   11 1   
    21    9   20 1   
    22    9   21 1   
    23   10   24 1   
    24   11   22 1   
@<TRIPOS>SUBSTRUCTURE
     1 NOY         1 TEMP              0 ****  ****    0 ROOT
