@<TRIPOS>MOLECULE
NOY
   24    24     1     0     0
SMALL
bcc


@<TRIPOS>ATOM
      1 O4          0.0450    0.0370   -0.2510 oh        1 NOY     -0.611800
      2 C4          1.4580    0.0400   -0.1230 c3        1 NOY      0.152100
      3 C3          1.8590    0.0540    1.3600 c3        1 NOY      0.080100
      4 O3          1.4360    1.3010    1.8840 oh        1 NOY     -0.609800
      5 C2          3.3980   -0.0840    1.5040 c3        1 NOY      0.343300
      6 N           3.8960   -1.2650    0.8100 n7        1 NOY     -0.863200
      7 C7          3.5030   -1.3350   -0.5800 c3        1 NOY      0.180800
      8 C5          1.9870   -1.2300   -0.7930 c3        1 NOY     -0.112700
      9 C6          1.6860   -1.2300   -2.2900 c3        1 NOY      0.145400
     10 O2          3.7280   -0.1130    2.8870 oh        1 NOY     -0.606800
     11 O6          0.3770   -1.6740   -2.5680 oh        1 NOY     -0.602800
     12 H4         -0.2810    0.7890    0.2610 ho        1 NOY      0.427000
     13 HA          1.8740    0.9580   -0.6280 h1        1 NOY      0.048700
     14 H3          1.3390   -0.7770    1.9110 h1        1 NOY      0.063700
     15 H5          1.4740   -2.1180   -0.3280 hc        1 NOY      0.091700
     16 HB          1.8490    1.3940    2.7540 ho        1 NOY      0.425000
     17 H           4.8900   -1.3380    0.9120 hn        1 NOY      0.383800
     18 H7C1        3.8510   -2.3330   -0.9710 h1        1 NOY      0.038700
     19 H7C2        3.9990   -0.5300   -1.2010 h1        1 NOY      0.038700
     20 H6C1        1.8450   -0.2030   -2.7170 h1        1 NOY      0.042700
     21 H6C2        2.3510   -1.9620   -2.8250 h1        1 NOY      0.042700
     22 H6C3       -0.2340   -1.1190   -2.0650 ho        1 NOY      0.422000
     23 H12         3.8820    0.8800    1.1480 h2        1 NOY      0.063700
     24 H22         3.4190   -0.9480    3.2630 ho        1 NOY      0.416000
@<TRIPOS>BOND
     1    1    2 1   
     2    1   12 1   
     3    2    3 1   
     4    2    8 1   
     5    2   13 1   
     6    3    4 1   
     7    3    5 1   
     8    3   14 1   
     9    4   16 1   
    10    5    6 1   
    11    5   10 1   
    12    5   23 1   
    13    6    7 1   
    14    6   17 1   
    15    7    8 1   
    16    7   18 1   
    17    7   19 1   
    18    8    9 1   
    19    8   15 1   
    20    9   11 1   
    21    9   20 1   
    22    9   21 1   
    23   10   24 1   
    24   11   22 1   
@<TRIPOS>SUBSTRUCTURE
     1 NOY         1 TEMP              0 ****  ****    0 ROOT
