@<TRIPOS>MOLECULE
NOY
   24    24     1     0     0
SMALL
bcc


@<TRIPOS>ATOM
      1 O4         -2.2590    0.4290   -0.0060 oh        1 NOY     -0.611800
      2 C4         -0.8000    0.5000    0.0040 c3        1 NOY      0.152100
      3 C3         -0.3420    0.5160    1.3920 c3        1 NOY      0.080100
      4 O3         -0.7650    1.7690    2.0150 oh        1 NOY     -0.609800
      5 C2          1.1590    0.3960    1.5040 c3        1 NOY      0.343300
      6 N           1.6940   -0.7560    0.7460 n3        1 NOY     -0.863200
      7 C7          1.2410   -0.7840   -0.6420 c3        1 NOY      0.180800
      8 C5         -0.2530   -0.6710   -0.7600 c3        1 NOY     -0.112700
      9 C6         -0.6330   -0.5230   -2.2680 c3        1 NOY      0.145400
     10 O2          1.5070    0.2440    2.8740 oh        1 NOY     -0.606800
     11 O6         -1.7770   -1.3110   -2.5410 oh        1 NOY     -0.602800
     12 H4         -2.6040    1.2610   -0.1390 ho        1 NOY      0.427000
     13 HA         -0.5140    1.3370   -0.4390 h1        1 NOY      0.048700
     14 H3         -0.7530   -0.2260    1.8660 h1        1 NOY      0.063700
     15 H5         -0.6500   -1.4740   -0.4210 hc        1 NOY      0.091700
     16 HB         -1.3070    1.5840    2.7440 ho        1 NOY      0.425000
     17 H           2.6350   -0.7380    0.7690 hn        1 NOY      0.383800
     18 H7C1        1.6630   -0.0350   -1.1340 h1        1 NOY      0.038700
     19 H7C2        1.5240   -1.6300   -1.0480 h1        1 NOY      0.038700
     20 H6C1        0.1030   -0.8220   -2.8150 h1        1 NOY      0.042700
     21 H6C2       -0.8300    0.4180   -2.4680 h1        1 NOY      0.042700
     22 H6C3       -1.9470   -1.3020   -3.4390 ho        1 NOY      0.422000
     23 H12         1.5540    1.1900    1.1730 h2        1 NOY      0.063700
     24 H22         2.3520    0.6300    3.0320 ho        1 NOY      0.416000
@<TRIPOS>BOND
     1    1    2 1   
     2    1   12 1   
     3    2    3 1   
     4    2    8 1   
     5    2   13 1   
     6    3    4 1   
     7    3    5 1   
     8    3   14 1   
     9    4   16 1   
    10    5    6 1   
    11    5   10 1   
    12    5   23 1   
    13    6    7 1   
    14    6   17 1   
    15    7    8 1   
    16    7   18 1   
    17    7   19 1   
    18    8    9 1   
    19    8   15 1   
    20    9   11 1   
    21    9   20 1   
    22    9   21 1   
    23   10   24 1   
    24   11   22 1   
@<TRIPOS>SUBSTRUCTURE
     1 NOY         1 TEMP              0 ****  ****    0 ROOT
