@<TRIPOS>MOLECULE
NOY
   24    24     1     0     0
SMALL
bcc


@<TRIPOS>ATOM
      1 O4          1.8610   -2.9500    2.2830 oh        1 NOY     -0.601800
      2 C4          1.4660   -1.7120    1.7080 c3        1 NOY      0.161100
      3 C3          2.7190   -0.8230    1.6830 c3        1 NOY      0.080100
      4 O3          2.9320   -0.3870    3.0150 oh        1 NOY     -0.584800
      5 C2          2.5240    0.4270    0.7730 c3        1 NOY      0.327300
      6 N           1.9840    0.1420   -0.5520 n3        1 NOY     -0.823200
      7 C7          0.7930   -0.6720   -0.4920 c3        1 NOY      0.168800
      8 C5          0.9360   -1.9790    0.2940 c3        1 NOY     -0.177700
      9 C6         -0.4110   -2.6900    0.3570 c3        1 NOY      0.135400
     10 O2          3.7600    1.1300    0.7290 oh        1 NOY     -0.588800
     11 O6         -0.3690   -3.8380    1.1820 oh        1 NOY     -0.604800
     12 H4          1.1020   -3.2840    2.7800 ho        1 NOY      0.422000
     13 HA          0.6740   -1.2160    2.3320 h1        1 NOY      0.061700
     14 H3          3.6040   -1.4240    1.3360 h1        1 NOY      0.049700
     15 H5          1.6720   -2.6550   -0.2250 hc        1 NOY      0.064700
     16 HB          3.6560    0.2540    2.9810 ho        1 NOY      0.415000
     17 H           2.6820   -0.2780   -1.1370 hn        1 NOY      0.357800
     18 H7C1        0.4800   -0.9100   -1.5470 h1        1 NOY      0.061700
     19 H7C2       -0.0220   -0.0510   -0.0210 h1        1 NOY      0.061700
     20 H6C1       -0.7380   -2.9740   -0.6790 h1        1 NOY      0.049700
     21 H6C2       -1.1930   -2.0340    0.8270 h1        1 NOY      0.049700
     22 H6C3        0.3660   -4.3860    0.8790 ho        1 NOY      0.411000
     23 H12         1.8240    1.1550    1.2880 h2        1 NOY      0.106700
     24 H22         4.4070    0.5930    0.2540 ho        1 NOY      0.400000
@<TRIPOS>BOND
     1    1    2 1   
     2    1   12 1   
     3    2    3 1   
     4    2    8 1   
     5    2   13 1   
     6    3    4 1   
     7    3    5 1   
     8    3   14 1   
     9    4   16 1   
    10    5    6 1   
    11    5   10 1   
    12    5   23 1   
    13    6    7 1   
    14    6   17 1   
    15    7    8 1   
    16    7   18 1   
    17    7   19 1   
    18    8    9 1   
    19    8   15 1   
    20    9   11 1   
    21    9   20 1   
    22    9   21 1   
    23   10   24 1   
    24   11   22 1   
@<TRIPOS>SUBSTRUCTURE
     1 NOY         1 TEMP              0 ****  ****    0 ROOT
