@<TRIPOS>MOLECULE
NOY
   24    24     1     0     0
SMALL
bcc


@<TRIPOS>ATOM
      1 O4          0.0400    0.1010   -0.3390 oh        1 NOY     -0.612800
      2 C4          1.4450    0.0420   -0.1420 c3        1 NOY      0.150100
      3 C3          1.7650    0.0150    1.3620 c3        1 NOY      0.081100
      4 O3          1.3850    1.2780    1.8770 oh        1 NOY     -0.607800
      5 C2          3.2870   -0.2150    1.5750 c3        1 NOY      0.336300
      6 N           3.8240   -1.3770    0.8730 n3        1 NOY     -0.838200
      7 C7          3.4500   -1.4040   -0.5230 c3        1 NOY      0.166800
      8 C5          1.9530   -1.2340   -0.8190 c3        1 NOY     -0.147700
      9 C6          1.7290   -1.1820   -2.3280 c3        1 NOY      0.149400
     10 O2          3.4280   -0.3430    2.9880 oh        1 NOY     -0.613800
     11 O6          0.4180   -1.5630   -2.6830 oh        1 NOY     -0.603800
     12 H4         -0.2780    0.8620    0.1650 ho        1 NOY      0.427000
     13 HA          1.9230    0.9520   -0.6040 h1        1 NOY      0.052700
     14 H3          1.1770   -0.7960    1.8730 h1        1 NOY      0.064700
     15 H5          1.3770   -2.1080   -0.4070 hc        1 NOY      0.081700
     16 HB          1.6310    1.2780    2.8120 ho        1 NOY      0.426000
     17 H           3.5430   -2.2210    1.3400 hn        1 NOY      0.368800
     18 H7C1        4.0140   -0.5760   -1.0420 h1        1 NOY      0.061200
     19 H7C2        3.7960   -2.3840   -0.9570 h1        1 NOY      0.061200
     20 H6C1        1.9520   -0.1530   -2.7170 h1        1 NOY      0.043200
     21 H6C2        2.3890   -1.9290   -2.8480 h1        1 NOY      0.043200
     22 H6C3       -0.1940   -0.9900   -2.2020 ho        1 NOY      0.422000
     23 H12         3.8530    0.6970    1.2170 h2        1 NOY      0.066700
     24 H22         4.3720   -0.3800    3.1890 ho        1 NOY      0.422000
@<TRIPOS>BOND
     1    1    2 1   
     2    1   12 1   
     3    2    3 1   
     4    2    8 1   
     5    2   13 1   
     6    3    4 1   
     7    3    5 1   
     8    3   14 1   
     9    4   16 1   
    10    5    6 1   
    11    5   10 1   
    12    5   23 1   
    13    6    7 1   
    14    6   17 1   
    15    7    8 1   
    16    7   18 1   
    17    7   19 1   
    18    8    9 1   
    19    8   15 1   
    20    9   11 1   
    21    9   20 1   
    22    9   21 1   
    23   10   24 1   
    24   11   22 1   
@<TRIPOS>SUBSTRUCTURE
     1 NOY         1 TEMP              0 ****  ****    0 ROOT
