@<TRIPOS>MOLECULE
NOZ
   24    24     1     0     0
SMALL
bcc


@<TRIPOS>ATOM
      1 O4         -0.0380   -0.0510   -0.1190 oh        1 NOZ     -0.602800
      2 C4          1.3780   -0.0240   -0.0260 c3        1 NOZ      0.115100
      3 C3          1.8230   -0.0570    1.4450 c3        1 NOZ      0.120100
      4 O3          1.3520    1.0870    2.1250 oh        1 NOZ     -0.601800
      5 C2          3.3660   -0.1610    1.5520 c3        1 NOZ      0.336300
      6 N           3.9100   -1.2390    0.7480 n3        1 NOZ     -0.837200
      7 C7          3.4520   -1.2830   -0.6270 c3        1 NOZ      0.165800
      8 C5          1.9250   -1.2480   -0.7600 c3        1 NOZ     -0.061700
      9 C6          1.5290   -1.1940   -2.2310 c3        1 NOZ      0.134400
     10 O6          1.9600   -2.4050   -2.8340 oh        1 NOZ     -0.606800
     11 O2          3.8480    1.1440    1.1860 oh        1 NOZ     -0.646800
     12 H4         -0.3710    0.5560    0.5570 ho        1 NOZ      0.417000
     13 HA          1.7580    0.9230   -0.5060 h1        1 NOZ      0.048700
     14 H3          1.3470   -0.9270    1.9780 h1        1 NOZ      0.100700
     15 H5          1.4840   -2.1780   -0.3070 hc        1 NOZ      0.086700
     16 HB          1.8410    1.8520    1.7890 ho        1 NOZ      0.421000
     17 H           4.9120   -1.2270    0.7750 hn        1 NOZ      0.370800
     18 H7C1        3.8780   -0.4330   -1.2360 h1        1 NOZ      0.048200
     19 H7C2        3.8190   -2.2500   -1.0760 h1        1 NOZ      0.048200
     20 H6C1        2.0220   -0.3260   -2.7450 h1        1 NOZ      0.035700
     21 H6C2        0.4140   -1.0860   -2.3110 h1        1 NOZ      0.035700
     22 H6          1.5220   -2.4550   -3.6910 ho        1 NOZ      0.402000
     23 H2          4.7290    1.2500    1.5590 ho        1 NOZ      0.407000
     24 H8          3.6440   -0.3650    2.6290 h2        1 NOZ      0.063700
@<TRIPOS>BOND
     1    1    2 1   
     2    1   12 1   
     3    2    3 1   
     4    2    8 1   
     5    2   13 1   
     6    3    4 1   
     7    3    5 1   
     8    3   14 1   
     9    4   16 1   
    10    5    6 1   
    11    5   11 1   
    12    5   24 1   
    13    6    7 1   
    14    6   17 1   
    15    7    8 1   
    16    7   18 1   
    17    7   19 1   
    18    8    9 1   
    19    8   15 1   
    20    9   10 1   
    21    9   20 1   
    22    9   21 1   
    23   10   22 1   
    24   11   23 1   
@<TRIPOS>SUBSTRUCTURE
     1 NOZ         1 TEMP              0 ****  ****    0 ROOT
