@<TRIPOS>MOLECULE
NOZ
   24    24     1     0     0
SMALL
bcc


@<TRIPOS>ATOM
      1 O4         -0.0220    0.0120   -0.1740 oh        1 NOZ     -0.602800
      2 C4          1.3930    0.0020   -0.0540 c3        1 NOZ      0.115100
      3 C3          1.8080   -0.0200    1.4260 c3        1 NOZ      0.120100
      4 O3          1.3550    1.1470    2.0800 oh        1 NOZ     -0.601800
      5 C2          3.3460   -0.1640    1.5650 c3        1 NOZ      0.336300
      6 N           3.8750   -1.2680    0.7880 n3        1 NOZ     -0.837200
      7 C7          3.4430   -1.3210   -0.5950 c3        1 NOZ      0.165800
      8 C5          1.9200   -1.2470   -0.7590 c3        1 NOZ     -0.061700
      9 C6          1.5540   -1.2050   -2.2380 c3        1 NOZ      0.134400
     10 O6          1.9640   -2.4360   -2.8150 oh        1 NOZ     -0.606800
     11 O2          3.8700    1.1220    1.1890 oh        1 NOZ     -0.646800
     12 H4         -0.3510    0.6380    0.4870 ho        1 NOZ      0.417000
     13 HA          1.8080    0.9310   -0.5400 h1        1 NOZ      0.048700
     14 H3          1.2990   -0.8690    1.9620 h1        1 NOZ      0.100700
     15 H5          1.4460   -2.1580   -0.3000 hc        1 NOZ      0.086700
     16 HB          1.8710    1.8930    1.7430 ho        1 NOZ      0.421000
     17 H           4.8770   -1.2830    0.8350 hn        1 NOZ      0.370800
     18 H7C1        3.9030   -0.4920   -1.2080 h1        1 NOZ      0.048200
     19 H7C2        3.7920   -2.3040   -1.0230 h1        1 NOZ      0.048200
     20 H6C1        2.0810   -0.3590   -2.7550 h1        1 NOZ      0.035700
     21 H6C2        0.4440   -1.0680   -2.3410 h1        1 NOZ      0.035700
     22 H6          1.5400   -2.4880   -3.6790 ho        1 NOZ      0.402000
     23 H2          4.7460    1.2090    1.5780 ho        1 NOZ      0.407000
     24 H8          3.5970   -0.3590    2.6500 h2        1 NOZ      0.063700
@<TRIPOS>BOND
     1    1    2 1   
     2    1   12 1   
     3    2    3 1   
     4    2    8 1   
     5    2   13 1   
     6    3    4 1   
     7    3    5 1   
     8    3   14 1   
     9    4   16 1   
    10    5    6 1   
    11    5   11 1   
    12    5   24 1   
    13    6    7 1   
    14    6   17 1   
    15    7    8 1   
    16    7   18 1   
    17    7   19 1   
    18    8    9 1   
    19    8   15 1   
    20    9   10 1   
    21    9   20 1   
    22    9   21 1   
    23   10   22 1   
    24   11   23 1   
@<TRIPOS>SUBSTRUCTURE
     1 NOZ         1 TEMP              0 ****  ****    0 ROOT
