@<TRIPOS>MOLECULE
NOZ
   24    24     1     0     0
SMALL
bcc


@<TRIPOS>ATOM
      1 O4         -0.2450    2.2730    0.0640 oh        1 NOZ     -0.602800
      2 C4          0.0720    0.9120   -0.1850 c3        1 NOZ      0.115100
      3 C3          1.3340    0.5010    0.5910 c3        1 NOZ      0.120100
      4 O3          2.4440    1.2610    0.1590 oh        1 NOZ     -0.601800
      5 C2          1.6120   -1.0150    0.4280 c3        1 NOZ      0.336300
      6 N           0.4480   -1.8300    0.7220 n3        1 NOZ     -0.837200
      7 C7         -0.7790   -1.4240    0.0650 c3        1 NOZ      0.165800
      8 C5         -1.1130    0.0590    0.2640 c3        1 NOZ     -0.061700
      9 C6         -2.3560    0.4280   -0.5380 c3        1 NOZ      0.134400
     10 O6         -3.4450   -0.3080   -0.0020 oh        1 NOZ     -0.606800
     11 O2          2.1020   -1.1570   -0.9170 oh        1 NOZ     -0.646800
     12 H4          0.5900    2.7620    0.0320 ho        1 NOZ      0.417000
     13 HA          0.2570    0.7760   -1.2890 h1        1 NOZ      0.048700
     14 H3          1.2200    0.7510    1.6820 h1        1 NOZ      0.100700
     15 H5         -1.3200    0.2570    1.3510 hc        1 NOZ      0.086700
     16 HB          2.6640    0.9760   -0.7390 ho        1 NOZ      0.421000
     17 H           0.6370   -2.7960    0.5300 hn        1 NOZ      0.370800
     18 H7C1       -0.7460   -1.6320   -1.0450 h1        1 NOZ      0.048200
     19 H7C2       -1.6190   -2.0340    0.5070 h1        1 NOZ      0.048200
     20 H6C1       -2.5400    1.5320   -0.4490 h1        1 NOZ      0.035700
     21 H6C2       -2.2240    0.1610   -1.6220 h1        1 NOZ      0.035700
     22 H6         -4.2460    0.0870   -0.3630 ho        1 NOZ      0.402000
     23 H2          2.6070   -1.9750   -0.9630 ho        1 NOZ      0.407000
     24 H8          2.4290   -1.3160    1.1500 h2        1 NOZ      0.063700
@<TRIPOS>BOND
     1    1    2 1   
     2    1   12 1   
     3    2    3 1   
     4    2    8 1   
     5    2   13 1   
     6    3    4 1   
     7    3    5 1   
     8    3   14 1   
     9    4   16 1   
    10    5    6 1   
    11    5   11 1   
    12    5   24 1   
    13    6    7 1   
    14    6   17 1   
    15    7    8 1   
    16    7   18 1   
    17    7   19 1   
    18    8    9 1   
    19    8   15 1   
    20    9   10 1   
    21    9   20 1   
    22    9   21 1   
    23   10   22 1   
    24   11   23 1   
@<TRIPOS>SUBSTRUCTURE
     1 NOZ         1 TEMP              0 ****  ****    0 ROOT
