@<TRIPOS>MOLECULE
NOZ
   24    24     1     0     0
SMALL
bcc


@<TRIPOS>ATOM
      1 O4         -2.3480    0.2160    0.0830 oh        1 NOZ     -0.599800
      2 C4         -0.8800    0.3820    0.1020 c3        1 NOZ      0.112100
      3 C3         -0.4160    0.4020    1.5210 c3        1 NOZ      0.078100
      4 O3         -0.9100    1.5670    2.1450 oh        1 NOZ     -0.615800
      5 C2          1.0910    0.3880    1.6330 c3        1 NOZ      0.376300
      6 N           1.6990   -0.6990    0.8570 n3        1 NOZ     -0.808200
      7 C7          1.2370   -0.7230   -0.5580 c3        1 NOZ      0.159800
      8 C5         -0.2650   -0.7110   -0.6740 c3        1 NOZ     -0.060700
      9 C6         -0.6590   -0.5420   -2.1930 c3        1 NOZ      0.133400
     10 O6         -0.9390   -1.8340   -2.7610 oh        1 NOZ     -0.602800
     11 O2          1.5820    1.5870    1.1760 oh        1 NOZ     -0.642800
     12 H4         -2.7270    0.9750   -0.1790 ho        1 NOZ      0.401000
     13 HA         -0.6440    1.2640   -0.3330 h1        1 NOZ      0.057700
     14 H3         -0.7700   -0.3700    1.9760 h1        1 NOZ      0.070700
     15 H5         -0.6070   -1.5490   -0.3560 hc        1 NOZ      0.087700
     16 HB         -1.3280    1.3490    2.8610 ho        1 NOZ      0.413000
     17 H           2.6240   -0.6150    0.8790 hn        1 NOZ      0.380800
     18 H7C1        1.5940    0.0600   -1.0200 h1        1 NOZ      0.050700
     19 H7C2        1.5810   -1.5290   -0.9890 h1        1 NOZ      0.050700
     20 H6C1        0.1180   -0.1030   -2.7040 h1        1 NOZ      0.033200
     21 H6C2       -1.4410    0.0150   -2.2610 h1        1 NOZ      0.033200
     22 H6         -1.0560   -1.7560   -3.6090 ho        1 NOZ      0.402000
     23 H2          2.1160    1.9490    1.8000 ho        1 NOZ      0.428000
     24 H8          1.3460    0.2800    2.6040 h2        1 NOZ      0.061700
@<TRIPOS>BOND
     1    1    2 1   
     2    1   12 1   
     3    2    3 1   
     4    2    8 1   
     5    2   13 1   
     6    3    4 1   
     7    3    5 1   
     8    3   14 1   
     9    4   16 1   
    10    5    6 1   
    11    5   11 1   
    12    5   24 1   
    13    6    7 1   
    14    6   17 1   
    15    7    8 1   
    16    7   18 1   
    17    7   19 1   
    18    8    9 1   
    19    8   15 1   
    20    9   10 1   
    21    9   20 1   
    22    9   21 1   
    23   10   22 1   
    24   11   23 1   
@<TRIPOS>SUBSTRUCTURE
     1 NOZ         1 TEMP              0 ****  ****    0 ROOT
