@<TRIPOS>MOLECULE
NOZ
   24    24     1     0     0
SMALL
bcc


@<TRIPOS>ATOM
      1 O4         -0.0190    0.0210   -0.1950 oh        1 NOZ     -0.602800
      2 C4          1.3940    0.0060   -0.0620 c3        1 NOZ      0.115100
      3 C3          1.7960   -0.0200    1.4220 c3        1 NOZ      0.120100
      4 O3          1.3410    1.1480    2.0730 oh        1 NOZ     -0.601800
      5 C2          3.3320   -0.1690    1.5750 c3        1 NOZ      0.336300
      6 N           3.8640   -1.2750    0.8020 n7        1 NOZ     -0.837200
      7 C7          3.4440   -1.3250   -0.5850 c3        1 NOZ      0.165800
      8 C5          1.9240   -1.2450   -0.7630 c3        1 NOZ     -0.061700
      9 C6          1.5710   -1.2000   -2.2450 c3        1 NOZ      0.134400
     10 O6          1.9820   -2.4330   -2.8200 oh        1 NOZ     -0.606800
     11 O2          3.8640    1.1150    1.2050 oh        1 NOZ     -0.646800
     12 H4         -0.3520    0.6470    0.4630 ho        1 NOZ      0.417000
     13 HA          1.8170    0.9330   -0.5430 h1        1 NOZ      0.048700
     14 H3          1.2780   -0.8670    1.9530 h1        1 NOZ      0.100700
     15 H5          1.4410   -2.1540   -0.3100 hc        1 NOZ      0.086700
     16 HB          1.8630    1.8920    1.7410 ho        1 NOZ      0.421000
     17 H           4.8650   -1.2930    0.8580 hn        1 NOZ      0.370800
     18 H7C1        3.7940   -2.3080   -1.0110 h1        1 NOZ      0.048200
     19 H7C2        3.9140   -0.4960   -1.1930 h1        1 NOZ      0.048200
     20 H6C1        0.4630   -1.0590   -2.3590 h1        1 NOZ      0.035700
     21 H6C2        2.1060   -0.3550   -2.7570 h1        1 NOZ      0.035700
     22 H6          1.5660   -2.4820   -3.6880 ho        1 NOZ      0.402000
     23 H2          4.7370    1.1990    1.6020 ho        1 NOZ      0.407000
     24 H8          3.5720   -0.3660    2.6620 h2        1 NOZ      0.063700
@<TRIPOS>BOND
     1    1    2 1   
     2    1   12 1   
     3    2    3 1   
     4    2    8 1   
     5    2   13 1   
     6    3    4 1   
     7    3    5 1   
     8    3   14 1   
     9    4   16 1   
    10    5    6 1   
    11    5   11 1   
    12    5   24 1   
    13    6    7 1   
    14    6   17 1   
    15    7    8 1   
    16    7   18 1   
    17    7   19 1   
    18    8    9 1   
    19    8   15 1   
    20    9   10 1   
    21    9   20 1   
    22    9   21 1   
    23   10   22 1   
    24   11   23 1   
@<TRIPOS>SUBSTRUCTURE
     1 NOZ         1 TEMP              0 ****  ****    0 ROOT
