@<TRIPOS>MOLECULE
NP
   39    39     1     0     0
SMALL
bcc


@<TRIPOS>ATOM
      1 C1'         0.0040   -0.0750   -0.1320 ca        1 NP      -0.120300
      2 C2'         1.2350   -0.7150    0.0960 ca        1 NP      -0.034000
      3 C3'         1.7010   -0.9100    1.3870 ca        1 NP      -0.231000
      4 C4'         0.9470   -0.4620    2.4870 ca        1 NP       0.191100
      5 O4'         1.3720   -0.6280    3.7760 oh        1 NP      -0.454100
      6 C5'        -0.2890    0.1870    2.2670 ca        1 NP      -0.218200
      7 N5'        -1.1110    0.6810    3.3940 no        1 NP       0.325200
      8 ON1        -0.7360    0.5160    4.5220 o         1 NP      -0.209500
      9 ON2        -2.1460    1.2470    3.1450 o         1 NP      -0.209500
     10 C6'        -0.7520    0.3700    0.9490 ca        1 NP      -0.038000
     11 C1         -0.4690    0.1580   -1.5220 c3        1 NP      -0.109100
     12 C2         -0.3120   -1.0910   -2.3850 c         1 NP       0.655100
     13 O2          0.8090   -1.3890   -2.8520 o         1 NP      -0.630100
     14 N3         -1.4220   -1.8660   -2.5990 n         1 NP      -0.551900
     15 C4         -1.4160   -3.0100   -3.4780 c3        1 NP       0.080000
     16 C5         -2.6820   -3.1360   -4.3240 c3        1 NP      -0.097400
     17 C6         -2.6180   -4.3850   -5.1780 c3        1 NP      -0.077400
     18 C7         -3.8800   -4.5460   -6.0000 c3        1 NP      -0.065400
     19 C8         -3.8380   -5.7840   -6.8610 c3        1 NP      -0.196400
     20 C9         -5.0410   -5.8340   -7.8210 c         1 NP       0.908600
     21 O3         -5.3860   -4.7680   -8.4100 o         1 NP      -0.851300
     22 O4         -5.6140   -6.9480   -7.9850 o         1 NP      -0.851300
     23 H2'         1.8230   -1.0700   -0.7710 ha        1 NP       0.181000
     24 H3'         2.6620   -1.4170    1.5600 ha        1 NP       0.148000
     25 HO4'        2.2170   -1.1060    3.7560 ho        1 NP       0.426000
     26 H6'        -1.7220    0.8730    0.7840 ha        1 NP       0.172000
     27 H11        -1.5290    0.5260   -1.5200 hc        1 NP       0.075700
     28 H12         0.1640    0.9590   -1.9960 hc        1 NP       0.075700
     29 HN3        -2.3030   -1.5570   -2.2650 hn        1 NP       0.309500
     30 H41        -0.5160   -2.9470   -4.1550 h1        1 NP       0.057200
     31 H42        -1.3040   -3.9380   -2.8450 h1        1 NP       0.057200
     32 H51        -3.5870   -3.1840   -3.6620 hc        1 NP       0.042700
     33 H52        -2.7980   -2.2380   -4.9850 hc        1 NP       0.042700
     34 H61        -1.7290   -4.3300   -5.8590 hc        1 NP       0.031700
     35 H62        -2.4780   -5.2850   -4.5220 hc        1 NP       0.031700
     36 H71        -4.0250   -3.6520   -6.6650 hc        1 NP       0.046200
     37 H72        -4.7680   -4.5960   -5.3170 hc        1 NP       0.046200
     38 H81        -2.9060   -5.7900   -7.4800 hc        1 NP       0.020700
     39 H82        -3.8340   -6.7040   -6.2240 hc        1 NP       0.020700
@<TRIPOS>BOND
     1    1    2 ar  
     2    1   10 ar  
     3    1   11 1   
     4    2    3 ar  
     5    2   23 1   
     6    3    4 ar  
     7    3   24 1   
     8    4    5 1   
     9    4    6 ar  
    10    5   25 1   
    11    6    7 1   
    12    6   10 ar  
    13    7    8 1   
    14    7    9 1   
    15   10   26 1   
    16   11   12 1   
    17   11   27 1   
    18   11   28 1   
    19   12   13 2   
    20   12   14 1   
    21   14   15 1   
    22   14   29 1   
    23   15   16 1   
    24   15   30 1   
    25   15   31 1   
    26   16   17 1   
    27   16   32 1   
    28   16   33 1   
    29   17   18 1   
    30   17   34 1   
    31   17   35 1   
    32   18   19 1   
    33   18   36 1   
    34   18   37 1   
    35   19   20 1   
    36   19   38 1   
    37   19   39 1   
    38   20   21 1   
    39   20   22 1   
@<TRIPOS>SUBSTRUCTURE
     1 NP          1 TEMP              0 ****  ****    0 ROOT
