@<TRIPOS>MOLECULE
NP
   39    39     1     0     0
SMALL
bcc


@<TRIPOS>ATOM
      1 C1'        -1.0000    0.6750   -2.6810 ca        1 NP      -0.119300
      2 C2'        -1.6760   -0.4990   -3.0710 ca        1 NP      -0.038000
      3 C3'        -1.3010   -1.1830   -4.2100 ca        1 NP      -0.180000
      4 C4'        -0.2310   -0.7150   -5.0100 ca        1 NP       0.219100
      5 O4'         0.0210   -1.4820   -6.1060 oh        1 NP      -0.493100
      6 C5'         0.4470    0.4630   -4.6250 ca        1 NP      -0.275200
      7 N5'         1.5640    1.0220   -5.4080 no        1 NP       0.326200
      8 ON1         1.9290    0.4530   -6.4100 o         1 NP      -0.225500
      9 ON2         2.0930    2.0370   -5.0430 o         1 NP      -0.225500
     10 C6'         0.0530    1.1460   -3.4510 ca        1 NP      -0.040000
     11 C1         -1.4400    1.4180   -1.4700 c3        1 NP      -0.109100
     12 C2         -1.6300    0.4820   -0.2790 c         1 NP       0.655100
     13 O2         -2.6770   -0.1960   -0.1810 o         1 NP      -0.628100
     14 N3         -0.6180    0.4030    0.6410 n         1 NP      -0.552900
     15 C4         -0.7270   -0.3630    1.8590 c3        1 NP       0.081000
     16 C5         -0.1040    0.3280    3.0700 c3        1 NP      -0.097400
     17 C6         -0.2130   -0.5580    4.2930 c3        1 NP      -0.077400
     18 C7          0.4350    0.0960    5.4960 c3        1 NP      -0.065400
     19 C8          0.3370   -0.7670    6.7290 c3        1 NP      -0.196400
     20 C9          0.8390   -0.0130    7.9750 c         1 NP       0.908600
     21 O3          0.5010    1.1970    8.1240 o         1 NP      -0.851300
     22 O4          1.5550   -0.6520    8.7970 o         1 NP      -0.851300
     23 H2'        -2.5070   -0.8700   -2.4400 ha        1 NP       0.182000
     24 H3'        -1.8180   -2.1040   -4.5210 ha        1 NP       0.166000
     25 HO4'        0.7900   -1.1600   -6.6040 ho        1 NP       0.465000
     26 H6'         0.5940    2.0630   -3.1550 ha        1 NP       0.168000
     27 H11        -2.4420    1.8890   -1.6740 hc        1 NP       0.075200
     28 H12        -0.7210    2.2450   -1.2320 hc        1 NP       0.075200
     29 HN3         0.1650    1.0070    0.5560 hn        1 NP       0.308500
     30 H41        -0.2130   -1.3550    1.6970 h1        1 NP       0.057700
     31 H42        -1.8170   -0.5730    2.0630 h1        1 NP       0.057700
     32 H51        -0.6220    1.3030    3.2690 hc        1 NP       0.042700
     33 H52         0.9770    0.5570    2.8720 hc        1 NP       0.042700
     34 H61         0.2790   -1.5450    4.0890 hc        1 NP       0.032200
     35 H62        -1.2930   -0.7640    4.5120 hc        1 NP       0.032200
     36 H71        -0.0540    1.0840    5.7100 hc        1 NP       0.045700
     37 H72         1.5140    0.3040    5.2720 hc        1 NP       0.045700
     38 H81         0.9310   -1.7050    6.5990 hc        1 NP       0.020700
     39 H82        -0.7290   -1.0560    6.9120 hc        1 NP       0.020700
@<TRIPOS>BOND
     1    1    2 ar  
     2    1   10 ar  
     3    1   11 1   
     4    2    3 ar  
     5    2   23 1   
     6    3    4 ar  
     7    3   24 1   
     8    4    5 1   
     9    4    6 ar  
    10    5   25 1   
    11    6    7 1   
    12    6   10 ar  
    13    7    8 1   
    14    7    9 1   
    15   10   26 1   
    16   11   12 1   
    17   11   27 1   
    18   11   28 1   
    19   12   13 2   
    20   12   14 1   
    21   14   15 1   
    22   14   29 1   
    23   15   16 1   
    24   15   30 1   
    25   15   31 1   
    26   16   17 1   
    27   16   32 1   
    28   16   33 1   
    29   17   18 1   
    30   17   34 1   
    31   17   35 1   
    32   18   19 1   
    33   18   36 1   
    34   18   37 1   
    35   19   20 1   
    36   19   38 1   
    37   19   39 1   
    38   20   21 1   
    39   20   22 1   
@<TRIPOS>SUBSTRUCTURE
     1 NP          1 TEMP              0 ****  ****    0 ROOT
