@<TRIPOS>MOLECULE
NP
   40    40     1     0     0
SMALL
bcc


@<TRIPOS>ATOM
      1 C1'        -1.2950   -0.3940   -0.7450 ca        1 NP      -0.186300
      2 C2'        -0.3090   -0.4480   -1.7450 ca        1 NP      -0.030000
      3 C3'         1.0330   -0.3920   -1.4050 ca        1 NP      -0.225000
      4 C4'         1.4230   -0.2760   -0.0570 ca        1 NP       0.210100
      5 O4'         2.7310   -0.2190    0.3210 oh        1 NP      -0.446100
      6 C5'         0.4320   -0.2180    0.9520 ca        1 NP      -0.229200
      7 N5'         0.7940   -0.0940    2.3840 no        1 NP       0.326200
      8 ON1         1.9480   -0.0400    2.7010 o         1 NP      -0.200500
      9 ON2        -0.0970   -0.0520    3.1950 o         1 NP      -0.200500
     10 C6'        -0.9260   -0.2750    0.5930 ca        1 NP      -0.018000
     11 C1         -2.7350   -0.4100   -1.1160 c3        1 NP      -0.096100
     12 C2         -3.2800   -1.8230   -1.1300 c         1 NP       0.549100
     13 O2         -3.9520   -2.3320   -0.2390 o         1 NP      -0.466100
     14 N3         -2.9720   -2.6090   -2.3440 n4        1 NP      -0.713800
     15 C4         -3.3930   -4.0340   -2.3060 c3        1 NP       0.126800
     16 C5         -3.5060   -4.6520   -3.6970 c3        1 NP      -0.106400
     17 C6         -2.1690   -5.0450   -4.3020 c3        1 NP      -0.090400
     18 C7         -2.1070   -4.7590   -5.7950 c3        1 NP      -0.060400
     19 C8         -1.5180   -3.4000   -6.1350 c3        1 NP      -0.165400
     20 C9         -1.8470   -2.3860   -5.0640 c         1 NP       0.911600
     21 O3         -0.9850   -2.1230   -4.1580 o         1 NP      -0.873800
     22 O4         -3.0070   -1.8630   -4.9830 o         1 NP      -0.873800
     23 H2'        -0.5970   -0.5500   -2.8140 ha        1 NP       0.212000
     24 H3'         1.8020   -0.4430   -2.1920 ha        1 NP       0.163000
     25 HO4'        3.2840   -0.2690   -0.4770 ho        1 NP       0.435000
     26 H6'        -1.6960   -0.2230    1.3850 ha        1 NP       0.176000
     27 H11        -2.8810    0.0670   -2.1260 hc        1 NP       0.107700
     28 H12        -3.3420    0.1690   -0.3660 hc        1 NP       0.107700
     29 HN3        -3.4140   -2.1320   -3.1860 hn        1 NP       0.514300
     30 H41        -4.3970   -4.0850   -1.7940 hx        1 NP       0.085200
     31 H42        -2.6480   -4.6010   -1.6810 hx        1 NP       0.085200
     32 H51        -4.1530   -5.5630   -3.5950 hc        1 NP       0.079700
     33 H52        -4.0400   -3.9390   -4.3890 hc        1 NP       0.079700
     34 H61        -2.0030   -6.1410   -4.1310 hc        1 NP       0.050700
     35 H62        -1.3280   -4.5040   -3.7900 hc        1 NP       0.050700
     36 H71        -3.1370   -4.8370   -6.2330 hc        1 NP       0.041200
     37 H72        -1.4800   -5.5490   -6.2870 hc        1 NP       0.041200
     38 H81        -0.4040   -3.4800   -6.2210 hc        1 NP       0.057200
     39 H82        -1.9230   -3.0500   -7.1190 hc        1 NP       0.057200
     40 H32        -1.9420   -2.5410   -2.5580 hn        1 NP       0.514300
@<TRIPOS>BOND
     1    1    2 ar  
     2    1   10 ar  
     3    1   11 1   
     4    2    3 ar  
     5    2   23 1   
     6    3    4 ar  
     7    3   24 1   
     8    4    5 1   
     9    4    6 ar  
    10    5   25 1   
    11    6    7 1   
    12    6   10 ar  
    13    7    8 1   
    14    7    9 1   
    15   10   26 1   
    16   11   12 1   
    17   11   27 1   
    18   11   28 1   
    19   12   13 2   
    20   12   14 1   
    21   14   15 1   
    22   14   29 1   
    23   14   40 1   
    24   15   16 1   
    25   15   30 1   
    26   15   31 1   
    27   16   17 1   
    28   16   32 1   
    29   16   33 1   
    30   17   18 1   
    31   17   34 1   
    32   17   35 1   
    33   18   19 1   
    34   18   36 1   
    35   18   37 1   
    36   19   20 1   
    37   19   38 1   
    38   19   39 1   
    39   20   21 1   
    40   20   22 1   
@<TRIPOS>SUBSTRUCTURE
     1 NP          1 TEMP              0 ****  ****    0 ROOT
