@<TRIPOS>MOLECULE
NP
   40    40     1     0     0
SMALL
bcc


@<TRIPOS>ATOM
      1 C1'         0.5330   -0.8040   -0.9290 ca        1 NP      -0.131300
      2 C2'         0.8810   -1.6430    0.1440 ca        1 NP      -0.034000
      3 C3'         0.4130   -1.3850    1.4220 ca        1 NP      -0.231000
      4 C4'        -0.4220   -0.2770    1.6590 ca        1 NP       0.195100
      5 O4'        -0.9080    0.0160    2.9010 oh        1 NP      -0.451100
      6 C5'        -0.7810    0.5680    0.5840 ca        1 NP      -0.220200
      7 N5'        -1.6620    1.7410    0.7860 no        1 NP       0.325200
      8 ON1        -2.0640    2.0010    1.8860 o         1 NP      -0.205000
      9 ON2        -1.9550    2.4080   -0.1740 o         1 NP      -0.205000
     10 C6'        -0.2940    0.2930   -0.7090 ca        1 NP      -0.034000
     11 C1          1.0740   -1.0810   -2.2870 c3        1 NP      -0.106100
     12 C2          0.7090   -2.4940   -2.7340 c         1 NP       0.656100
     13 O2          1.3800   -3.4720   -2.3420 o         1 NP      -0.626100
     14 N3         -0.3420   -2.6330   -3.6100 ns        1 NP      -0.554900
     15 C4         -0.8390   -3.9130   -4.0310 c3        1 NP       0.094000
     16 C5         -2.0840   -4.3950   -3.2740 c3        1 NP      -0.109400
     17 C6         -2.8910   -5.3740   -4.1040 c3        1 NP      -0.080400
     18 C7         -4.1860   -4.7930   -4.6360 c3        1 NP      -0.075400
     19 C8         -3.9950   -3.6600   -5.6280 c3        1 NP      -0.126400
     20 C9         -3.9500   -2.3230   -4.9560 c         1 NP       0.646100
     21 O3         -5.1660   -1.8480   -4.5720 oh        1 NP      -0.603100
     22 O4         -2.9760   -1.5990   -4.7190 o         1 NP      -0.578000
     23 H2'         1.5250   -2.5200   -0.0520 ha        1 NP       0.173000
     24 H3'         0.6880   -2.0440    2.2590 ha        1 NP       0.150000
     25 HO4'       -0.5720   -0.6490    3.5240 ho        1 NP       0.429000
     26 H6'        -0.5780    0.9590   -1.5440 ha        1 NP       0.174000
     27 H11         2.1970   -1.0270   -2.2580 hc        1 NP       0.079700
     28 H12         0.7160   -0.3120   -3.0210 hc        1 NP       0.079700
     29 HN3        -5.0630   -0.9780   -4.1510 ho        1 NP       0.448000
     30 H41        -0.0210   -4.6800   -3.9160 h1        1 NP       0.059700
     31 H42        -1.0910   -3.8210   -5.1280 h1        1 NP       0.059700
     32 H51        -2.7290   -3.5220   -2.9910 hc        1 NP       0.050200
     33 H52        -1.7580   -4.8850   -2.3200 hc        1 NP       0.050200
     34 H61        -3.1510   -6.2630   -3.4690 hc        1 NP       0.047200
     35 H62        -2.2760   -5.7590   -4.9610 hc        1 NP       0.047200
     36 H71        -4.7510   -5.6150   -5.1540 hc        1 NP       0.056200
     37 H72        -4.8240   -4.4400   -3.7830 hc        1 NP       0.056200
     38 H81        -3.0430   -3.7950   -6.2060 hc        1 NP       0.080700
     39 H82        -4.8530   -3.6510   -6.3540 hc        1 NP       0.080700
     40 H32        -0.9270   -1.8490   -3.8000 hn        1 NP       0.331500
@<TRIPOS>BOND
     1    1    2 ar  
     2    1   10 ar  
     3    1   11 1   
     4    2    3 ar  
     5    2   23 1   
     6    3    4 ar  
     7    3   24 1   
     8    4    5 1   
     9    4    6 ar  
    10    5   25 1   
    11    6    7 1   
    12    6   10 ar  
    13    7    8 1   
    14    7    9 1   
    15   10   26 1   
    16   11   12 1   
    17   11   27 1   
    18   11   28 1   
    19   12   13 2   
    20   12   14 1   
    21   14   15 1   
    22   14   40 1   
    23   15   16 1   
    24   15   30 1   
    25   15   31 1   
    26   16   17 1   
    27   16   32 1   
    28   16   33 1   
    29   17   18 1   
    30   17   34 1   
    31   17   35 1   
    32   18   19 1   
    33   18   36 1   
    34   18   37 1   
    35   19   20 1   
    36   19   38 1   
    37   19   39 1   
    38   20   21 1   
    39   20   22 2   
    40   21   29 1   
@<TRIPOS>SUBSTRUCTURE
     1 NP          1 TEMP              0 ****  ****    0 ROOT
