@<TRIPOS>MOLECULE
NP1
   30    30     1     0     0
SMALL
bcc


@<TRIPOS>ATOM
      1 NZ         -5.8640    0.3240   -0.0650 n3        1 NP1     -0.916800
      2 CA         -4.5600    0.9300    0.0450 c3        1 NP1      0.164800
      3 CB         -3.4210   -0.0850   -0.0460 c3        1 NP1     -0.099400
      4 CG         -2.0900    0.6660   -0.0150 c3        1 NP1      0.215800
      5 NE         -0.9530   -0.2150   -0.0640 nh        1 NP1     -0.766600
      6 CD          0.3350    0.2440   -0.0170 ca        1 NP1      0.280600
      7 CE1         0.6000    1.6510    0.0260 ca        1 NP1     -0.231000
      8 CE2         1.4790   -0.6180   -0.0260 ca        1 NP1     -0.279200
      9 NO2         1.3830   -2.0900   -0.0540 no        1 NP1      0.326200
     10 OC1         2.3970   -2.7320   -0.1610 o         1 NP1     -0.232500
     11 OC2         0.3160   -2.6480    0.0350 o         1 NP1     -0.232500
     12 CR1         1.8820    2.1490    0.0490 ca        1 NP1     -0.037000
     13 CR2         2.7840   -0.0750   -0.0080 ca        1 NP1     -0.025000
     14 CZ          2.9980    1.2920    0.0300 ca        1 NP1     -0.151300
     15 CM          4.3660    1.8570    0.0510 c3        1 NP1     -0.043800
     16 HNZ1       -5.9750   -0.4240    0.5900 hn        1 NP1      0.353800
     17 HNZ2       -6.5800    1.0060    0.0840 hn        1 NP1      0.353800
     18 HA1        -4.4310    1.5140    1.0060 h1        1 NP1      0.026200
     19 HA2        -4.4610    1.6670   -0.8030 h1        1 NP1      0.026200
     20 HB1        -3.5100   -0.6770   -0.9950 hc        1 NP1      0.062200
     21 HB2        -3.4800   -0.8060    0.8110 hc        1 NP1      0.062200
     22 HG1        -2.0420    1.2900    0.9260 h1        1 NP1      0.042700
     23 HG2        -2.0500    1.3730   -0.8940 h1        1 NP1      0.042700
     24 HNE        -1.1360   -1.1950   -0.0650 hn        1 NP1      0.471800
     25 HE1        -0.2440    2.3580    0.0400 ha        1 NP1      0.143000
     26 HR1         2.0450    3.2390    0.0820 ha        1 NP1      0.139000
     27 HR2         3.6510   -0.7630   -0.0230 ha        1 NP1      0.168000
     28 HM1         4.5150    2.4780    0.9700 hc        1 NP1      0.045367
     29 HM2         5.1390    1.0500    0.0430 hc        1 NP1      0.045367
     30 HM3         4.5290    2.5100   -0.8430 hc        1 NP1      0.045367
@<TRIPOS>BOND
     1    1    2 1   
     2    1   16 1   
     3    1   17 1   
     4    2    3 1   
     5    2   18 1   
     6    2   19 1   
     7    3    4 1   
     8    3   20 1   
     9    3   21 1   
    10    4    5 1   
    11    4   22 1   
    12    4   23 1   
    13    5    6 1   
    14    5   24 1   
    15    6    7 ar  
    16    6    8 ar  
    17    7   12 ar  
    18    7   25 1   
    19    8    9 1   
    20    8   13 ar  
    21    9   10 1   
    22    9   11 1   
    23   12   14 ar  
    24   12   26 1   
    25   13   14 ar  
    26   13   27 1   
    27   14   15 1   
    28   15   28 1   
    29   15   29 1   
    30   15   30 1   
@<TRIPOS>SUBSTRUCTURE
     1 NP1         1 TEMP              0 ****  ****    0 ROOT
