@<TRIPOS>MOLECULE
NP1
   31    31     1     0     0
SMALL
bcc


@<TRIPOS>ATOM
      1 NZ          0.5240    1.2860    0.7730 n4        1 NP1     -0.839600
      2 CA          1.5960    0.3070    0.4130 c3        1 NP1      0.108800
      3 CB          2.4480   -0.0590    1.6150 c3        1 NP1     -0.163400
      4 CG          3.4810   -1.1270    1.2160 c3        1 NP1      0.197800
      5 NE          4.2610   -1.6480    2.3100 nh        1 NP1     -0.701600
      6 CD          5.3980   -0.9030    2.7080 ca        1 NP1      0.144600
      7 CE1         6.5540   -0.9530    1.8970 ca        1 NP1     -0.136000
      8 CE2         5.4960   -0.1820    3.9300 ca        1 NP1     -0.210200
      9 NO2         4.3160    0.0210    4.8090 no        1 NP1      0.314200
     10 OC1         4.4780    0.2570    5.9710 o         1 NP1     -0.223000
     11 OC2         3.2070   -0.0150    4.3240 o         1 NP1     -0.223000
     12 CR1         7.7450   -0.3680    2.3020 ca        1 NP1     -0.074000
     13 CR2         6.7170    0.3730    4.3510 ca        1 NP1     -0.063000
     14 CZ          7.8460    0.2860    3.5370 ca        1 NP1     -0.073300
     15 CM          9.1370    0.8610    3.9800 c3        1 NP1     -0.064800
     16 HNZ1       -0.0390    1.5150   -0.0510 hn        1 NP1      0.462133
     17 HNZ2        0.9440    2.1440    1.1450 hn        1 NP1      0.462133
     18 HA1         1.0920   -0.6110   -0.0070 hx        1 NP1      0.109700
     19 HA2         2.2310    0.7750   -0.3930 hx        1 NP1      0.109700
     20 HB1         1.8070   -0.4600    2.4490 hc        1 NP1      0.087700
     21 HB2         2.9830    0.8430    2.0160 hc        1 NP1      0.087700
     22 HG1         4.1710   -0.7020    0.4350 h1        1 NP1      0.067200
     23 HG2         2.9330   -2.0070    0.7680 h1        1 NP1      0.067200
     24 HNE         3.6810   -1.9110    3.0870 hn        1 NP1      0.409800
     25 HE1         6.5160   -1.4940    0.9360 ha        1 NP1      0.159000
     26 HR1         8.6320   -0.4330    1.6490 ha        1 NP1      0.158000
     27 HR2         6.7820    0.8840    5.3290 ha        1 NP1      0.178000
     28 HM1         9.6980    1.2900    3.1140 hc        1 NP1      0.062033
     29 HM2         8.9820    1.6680    4.7380 hc        1 NP1      0.062033
     30 HM3         9.7680    0.0610    4.4440 hc        1 NP1      0.062033
     31 HZ3        -0.0840    0.8860    1.4970 hn        1 NP1      0.462133
@<TRIPOS>BOND
     1    1    2 1   
     2    1   16 1   
     3    1   17 1   
     4    1   31 1   
     5    2    3 1   
     6    2   18 1   
     7    2   19 1   
     8    3    4 1   
     9    3   20 1   
    10    3   21 1   
    11    4    5 1   
    12    4   22 1   
    13    4   23 1   
    14    5    6 1   
    15    5   24 1   
    16    6    7 ar  
    17    6    8 ar  
    18    7   12 ar  
    19    7   25 1   
    20    8    9 1   
    21    8   13 ar  
    22    9   10 1   
    23    9   11 1   
    24   12   14 ar  
    25   12   26 1   
    26   13   14 ar  
    27   13   27 1   
    28   14   15 1   
    29   15   28 1   
    30   15   29 1   
    31   15   30 1   
@<TRIPOS>SUBSTRUCTURE
     1 NP1         1 TEMP              0 ****  ****    0 ROOT
