@<TRIPOS>MOLECULE
NP1
   30    30     1     0     0
SMALL
bcc


@<TRIPOS>ATOM
      1 NZ          0.0570    0.1710   -0.2290 n3        1 NP1     -0.916800
      2 CA          1.4820    0.0270   -0.0600 c3        1 NP1      0.164800
      3 CB          1.9160    0.0780    1.4050 c3        1 NP1     -0.099400
      4 CG          3.4430    0.0140    1.4670 c3        1 NP1      0.214800
      5 NE          3.9450    0.0110    2.8160 nh        1 NP1     -0.765600
      6 CD          5.2840    0.0330    3.0980 ca        1 NP1      0.278600
      7 CE1         6.2470   -0.0480    2.0410 ca        1 NP1     -0.230000
      8 CE2         5.8060    0.0990    4.4290 ca        1 NP1     -0.277200
      9 NO2         4.9520    0.2030    5.6300 no        1 NP1      0.325200
     10 OC1         5.4710    0.1270    6.7140 o         1 NP1     -0.232000
     11 OC2         3.7600    0.3690    5.5340 o         1 NP1     -0.232000
     12 CR1         7.6000   -0.0720    2.2910 ca        1 NP1     -0.038000
     13 CR2         7.2020    0.0660    4.6550 ca        1 NP1     -0.025000
     14 CZ          8.1000   -0.0180    3.6060 ca        1 NP1     -0.150300
     15 CM          9.5610   -0.0500    3.8440 c3        1 NP1     -0.043800
     16 HNZ1       -0.4450   -0.4850    0.3350 hn        1 NP1      0.353800
     17 HNZ2       -0.1950    0.0450   -1.1890 hn        1 NP1      0.353800
     18 HA1         1.8790   -0.9330   -0.5090 h1        1 NP1      0.026200
     19 HA2         1.9720    0.8770   -0.6160 h1        1 NP1      0.026200
     20 HB1         1.4690   -0.7820    1.9680 hc        1 NP1      0.062200
     21 HB2         1.5480    1.0240    1.8810 hc        1 NP1      0.062200
     22 HG1         3.8660    0.8960    0.9020 h1        1 NP1      0.042700
     23 HG2         3.7930   -0.9240    0.9450 h1        1 NP1      0.042700
     24 HNE         3.2790    0.1490    3.5460 hn        1 NP1      0.470800
     25 HE1         5.9010   -0.0950    0.9980 ha        1 NP1      0.143000
     26 HR1         8.3100   -0.1350    1.4500 ha        1 NP1      0.139000
     27 HR2         7.5780    0.1100    5.6940 ha        1 NP1      0.168000
     28 HM1         9.7960    0.0080    4.9350 hc        1 NP1      0.045367
     29 HM2         9.9990   -0.9960    3.4390 hc        1 NP1      0.045367
     30 HM3        10.0560    0.8120    3.3300 hc        1 NP1      0.045367
@<TRIPOS>BOND
     1    1    2 1   
     2    1   16 1   
     3    1   17 1   
     4    2    3 1   
     5    2   18 1   
     6    2   19 1   
     7    3    4 1   
     8    3   20 1   
     9    3   21 1   
    10    4    5 1   
    11    4   22 1   
    12    4   23 1   
    13    5    6 1   
    14    5   24 1   
    15    6    7 ar  
    16    6    8 ar  
    17    7   12 ar  
    18    7   25 1   
    19    8    9 1   
    20    8   13 ar  
    21    9   10 1   
    22    9   11 1   
    23   12   14 ar  
    24   12   26 1   
    25   13   14 ar  
    26   13   27 1   
    27   14   15 1   
    28   15   28 1   
    29   15   29 1   
    30   15   30 1   
@<TRIPOS>SUBSTRUCTURE
     1 NP1         1 TEMP              0 ****  ****    0 ROOT
