@<TRIPOS>MOLECULE
NP1
   30    28     1     0     0
SMALL
bcc


@<TRIPOS>ATOM
      1 NZ         -4.8340   -1.3360   -1.9250 n3        1 NP1     -0.349000
      2 CA         -3.4400   -1.5460   -1.7210 c3        1 NP1     -0.072000
      3 CB         -2.8810   -0.4270   -0.8690 c3        1 NP1     -0.178000
      4 CG         -1.3400   -0.5690   -0.7710 c3        1 NP1     -0.022000
      5 NE         -0.8060    0.5110    0.0660 n3        1 NP1     -0.321000
      6 CD          0.6370    0.6100    0.3050 c2        1 NP1      0.197000
      7 CE1         1.5000    0.8000   -0.7540 c2        1 NP1     -0.230000
      8 CE2         1.1330    0.5180    1.5930 c1        1 NP1     -0.232000
      9 NO2         0.2260    0.2900    2.7120 n2        1 NP1      0.471400
     10 OC1        -0.8910    0.7610    2.6940 o         1 NP1     -0.327700
     11 OC2         0.6370   -0.4320    3.7770 o         1 NP1     -0.327700
     12 CR1         2.8660    0.8990   -0.5270 c1        1 NP1     -0.038000
     13 CR2         2.4830    0.6160    1.8180 c2        1 NP1     -0.025000
     14 CZ          3.3550    0.8070    0.7550 c1        1 NP1     -0.143000
     15 CM          4.8300    0.9940    1.0180 c3        1 NP1     -0.169000
     16 HNZ1       -5.2930   -2.0860   -1.6760 hn        1 NP1      0.149000
     17 HNZ2       -4.9870   -1.1660   -2.7980 hn        1 NP1      0.149000
     18 HA1        -3.2970   -2.4270   -1.2550 h1        1 NP1      0.065500
     19 HA2        -2.9670   -1.5580   -2.6160 h1        1 NP1      0.065500
     20 HB1        -3.1030    0.4260   -1.2710 hc        1 NP1      0.101500
     21 HB2        -3.2590   -0.4730    0.0080 hc        1 NP1      0.101500
     22 HG1        -1.1140   -1.4470   -0.3630 h1        1 NP1      0.082000
     23 HG2        -0.9630   -0.5150   -1.6320 h1        1 NP1      0.082000
     24 HNE        -1.3840    1.1810    0.3930 hn        1 NP1      0.266000
     25 HE1         1.1390    0.8670   -1.6950 ha        1 NP1      0.143000
     26 HR1         3.4740    1.0320   -1.2700 ha        1 NP1      0.139000
     27 HR2         2.8380    0.5490    2.7480 ha        1 NP1      0.168000
     28 HM1         5.3120    0.9730    0.1850 hc        1 NP1      0.084667
     29 HM2         5.1520    0.2670    1.6040 hc        1 NP1      0.084667
     30 HM3         4.9790    1.8800    1.4700 hc        1 NP1      0.084667
@<TRIPOS>BOND
     1    1    2 1   
     2    1   16 1   
     3    1   17 1   
     4    2    3 1   
     5    2   18 1   
     6    2   19 1   
     7    3    4 1   
     8    3   20 1   
     9    3   21 1   
    10    4    5 1   
    11    4   22 1   
    12    4   23 1   
    13    5    6 1   
    14    5   24 1   
    15    6    7 1   
    16    6    8 1   
    17    7   12 1   
    18    7   25 1   
    19    8   13 1   
    20    9   10 2   
    21    9   11 2   
    22   12   26 1   
    23   13   14 1   
    24   13   27 1   
    25   14   15 1   
    26   15   28 1   
    27   15   29 1   
    28   15   30 1   
@<TRIPOS>SUBSTRUCTURE
     1 NP1         1 TEMP              0 ****  ****    0 ROOT
