@<TRIPOS>MOLECULE
NP1
   31    31     1     0     0
SMALL
bcc


@<TRIPOS>ATOM
      1 NZ          0.5650    1.4990    0.8500 nz        1 NP1     -0.839600
      2 CA          1.6140    0.5190    0.4280 c3        1 NP1      0.108800
      3 CB          2.4500    0.0510    1.6050 c3        1 NP1     -0.163400
      4 CG          3.4580   -1.0130    1.1380 c3        1 NP1      0.197800
      5 NE          4.2190   -1.6270    2.1970 nu        1 NP1     -0.701600
      6 CD          5.3730   -0.9390    2.6470 ca        1 NP1      0.144600
      7 CE1         6.5310   -0.9640    1.8380 ca        1 NP1     -0.136000
      8 CE2         5.4840   -0.3050    3.9160 ca        1 NP1     -0.210200
      9 NO2         4.3050   -0.1310    4.8020 no        1 NP1      0.314200
     10 OC1         4.4670    0.0220    5.9780 o         1 NP1     -0.223000
     11 OC2         3.1970   -0.1060    4.3120 o         1 NP1     -0.223000
     12 CR1         7.7350   -0.4380    2.2850 ca        1 NP1     -0.074000
     13 CR2         6.7160    0.1890    4.3770 ca        1 NP1     -0.063000
     14 CZ          7.8460    0.1280    3.5620 ca        1 NP1     -0.073300
     15 CM          9.1490    0.6380    4.0470 c3        1 NP1     -0.064800
     16 HNZ1        0.0120    1.7980    0.0420 hn        1 NP1      0.462133
     17 HNZ2        1.0050    2.3190    1.2800 hn        1 NP1      0.462133
     18 HA1         2.2640    1.0250   -0.3430 hx        1 NP1      0.109700
     19 HA2         1.0890   -0.3550   -0.0550 hx        1 NP1      0.109700
     20 HB1         1.7960   -0.3880    2.4080 hc        1 NP1      0.087700
     21 HB2         3.0060    0.9100    2.0680 hc        1 NP1      0.087700
     22 HG1         4.1620   -0.5550    0.3890 h1        1 NP1      0.067200
     23 HG2         2.8900   -1.8470    0.6300 h1        1 NP1      0.067200
     24 HNE         3.6300   -1.9260    2.9530 hn        1 NP1      0.409800
     25 HE1         6.4840   -1.4380    0.8430 ha        1 NP1      0.159000
     26 HR1         8.6230   -0.4820    1.6320 ha        1 NP1      0.158000
     27 HR2         6.7900    0.6310    5.3870 ha        1 NP1      0.178000
     28 HM1         9.7310    1.1010    3.2110 hc        1 NP1      0.062033
     29 HM2         9.0110    1.4040    4.8500 hc        1 NP1      0.062033
     30 HM3         9.7530   -0.2050    4.4680 hc        1 NP1      0.062033
     31 HZ3        -0.0560    1.0670    1.5440 hn        1 NP1      0.462133
@<TRIPOS>BOND
     1    1    2 1   
     2    1   16 1   
     3    1   17 1   
     4    1   31 1   
     5    2    3 1   
     6    2   18 1   
     7    2   19 1   
     8    3    4 1   
     9    3   20 1   
    10    3   21 1   
    11    4    5 1   
    12    4   22 1   
    13    4   23 1   
    14    5    6 1   
    15    5   24 1   
    16    6    7 ar  
    17    6    8 ar  
    18    7   12 ar  
    19    7   25 1   
    20    8    9 1   
    21    8   13 ar  
    22    9   10 1   
    23    9   11 1   
    24   12   14 ar  
    25   12   26 1   
    26   13   14 ar  
    27   13   27 1   
    28   14   15 1   
    29   15   28 1   
    30   15   29 1   
    31   15   30 1   
@<TRIPOS>SUBSTRUCTURE
     1 NP1         1 TEMP              0 ****  ****    0 ROOT
