@<TRIPOS>MOLECULE
NP2
   27    25     1     0     0
SMALL
bcc


@<TRIPOS>ATOM
      1 NZ          1.7360   -0.2530   -4.3860 n3        1 NP2     -0.349000
      2 CA          0.6820   -0.0370   -3.3760 c3        1 NP2     -0.081000
      3 CB          1.0460   -0.7940   -2.0890 c3        1 NP2     -0.176000
      4 CG         -0.0800   -0.5700   -1.0170 c3        1 NP2     -0.023000
      5 NE          0.4970   -0.2080    0.1960 n3        1 NP2     -0.321000
      6 CD         -0.3210   -0.1010    1.3720 c2        1 NP2      0.200000
      7 CE1        -1.0770   -1.2540    1.8360 c2        1 NP2     -0.234000
      8 CE2        -0.3170    1.0750    2.1160 c1        1 NP2     -0.237000
      9 NO2         0.5220    2.1340    1.7450 n2        1 NP2      0.472400
     10 OC1         0.7430    2.9820    2.4980 o         1 NP2     -0.329200
     11 OC2         0.9510    2.2330    0.4950 o         1 NP2     -0.329200
     12 CR1        -1.7950   -1.1840    3.0220 c1        1 NP2     -0.036000
     13 CR2        -1.0280    1.1480    3.2940 c2        1 NP2     -0.022000
     14 CZ         -1.7920   -0.0180    3.7630 c1        1 NP2     -0.205000
     15 HNZ1        2.2330    0.3670   -4.3870 hn        1 NP2      0.148000
     16 HNZ2        1.3460   -0.3450   -5.2350 hn        1 NP2      0.148000
     17 HA1        -0.1750   -0.3670   -3.7190 h1        1 NP2      0.070000
     18 HA2         0.6100    0.8860   -3.1870 h1        1 NP2      0.070000
     19 HB1         1.7810   -0.5040   -1.7900 hc        1 NP2      0.102500
     20 HB2         1.1300   -1.7470   -2.2840 hc        1 NP2      0.102500
     21 HG1        -0.6920    0.1610   -1.3250 h1        1 NP2      0.084500
     22 HG2        -0.5880   -1.3960   -0.9030 h1        1 NP2      0.084500
     23 HNE         1.3450   -0.1170    0.2560 hn        1 NP2      0.264000
     24 HE1        -1.0810   -2.1240    1.2840 ha        1 NP2      0.144000
     25 HR1        -2.3020   -1.9600    3.3310 ha        1 NP2      0.139000
     26 HR2        -1.0250    1.9590    3.8050 ha        1 NP2      0.168000
     27 HZ         -2.3500    0.0350    4.6850 ha        1 NP2      0.146000
@<TRIPOS>BOND
     1    1    2 1   
     2    1   15 1   
     3    1   16 1   
     4    2    3 1   
     5    2   17 1   
     6    2   18 1   
     7    3    4 1   
     8    3   19 1   
     9    3   20 1   
    10    4    5 1   
    11    4   21 1   
    12    4   22 1   
    13    5    6 1   
    14    5   23 1   
    15    6    7 1   
    16    6    8 1   
    17    7   12 1   
    18    7   24 1   
    19    8   13 1   
    20    9   10 2   
    21    9   11 2   
    22   12   25 1   
    23   13   14 1   
    24   13   26 1   
    25   14   27 1   
@<TRIPOS>SUBSTRUCTURE
     1 NP2         1 TEMP              0 ****  ****    0 ROOT
