@<TRIPOS>MOLECULE
NP2
   27    27     1     0     0
SMALL
bcc


@<TRIPOS>ATOM
      1 NZ          0.0520    0.1890   -0.2220 n3        1 NP2     -0.916800
      2 CA          1.4790    0.0520   -0.0590 c3        1 NP2      0.164800
      3 CB          1.9180    0.0900    1.4050 c3        1 NP2     -0.099400
      4 CG          3.4450    0.0350    1.4610 c3        1 NP2      0.214800
      5 NE          3.9510    0.0250    2.8080 nh        1 NP2     -0.765600
      6 CD          5.2900    0.0250    3.0890 ca        1 NP2      0.283600
      7 CE1         6.2500   -0.0300    2.0270 ca        1 NP2     -0.235000
      8 CE2         5.8130    0.0550    4.4230 ca        1 NP2     -0.282200
      9 NO2         4.9620    0.1200    5.6270 no        1 NP2      0.326200
     10 OC1         5.4900    0.0690    6.7080 o         1 NP2     -0.232500
     11 OC2         3.7620    0.2290    5.5390 o         1 NP2     -0.232500
     12 CR1         7.6050   -0.0580    2.2750 ca        1 NP2     -0.036000
     13 CR2         7.2100    0.0210    4.6430 ca        1 NP2     -0.022000
     14 CZ          8.0970   -0.0340    3.5870 ca        1 NP2     -0.206000
     15 HNZ1       -0.2020    0.0750   -1.1830 hn        1 NP2      0.353800
     16 HNZ2       -0.4440   -0.4770    0.3350 hn        1 NP2      0.353800
     17 HA1         1.9620    0.9110   -0.6080 h1        1 NP2      0.026200
     18 HA2         1.8800   -0.9010   -0.5190 h1        1 NP2      0.026200
     19 HB1         1.4770   -0.7780    1.9600 hc        1 NP2      0.062200
     20 HB2         1.5460    1.0300    1.8920 hc        1 NP2      0.062200
     21 HG1         3.7990   -0.8960    0.9280 h1        1 NP2      0.043700
     22 HG2         3.8610    0.9260    0.9050 h1        1 NP2      0.043700
     23 HNE         3.2850    0.1170    3.5440 hn        1 NP2      0.471800
     24 HE1         5.9000   -0.0510    0.9840 ha        1 NP2      0.143000
     25 HR1         8.3120   -0.1000    1.4310 ha        1 NP2      0.139000
     26 HR2         7.5920    0.0410    5.6800 ha        1 NP2      0.168000
     27 HZ          9.1800   -0.0580    3.7730 ha        1 NP2      0.146000
@<TRIPOS>BOND
     1    1    2 1   
     2    1   15 1   
     3    1   16 1   
     4    2    3 1   
     5    2   17 1   
     6    2   18 1   
     7    3    4 1   
     8    3   19 1   
     9    3   20 1   
    10    4    5 1   
    11    4   21 1   
    12    4   22 1   
    13    5    6 1   
    14    5   23 1   
    15    6    7 ar  
    16    6    8 ar  
    17    7   12 ar  
    18    7   24 1   
    19    8    9 1   
    20    8   13 ar  
    21    9   10 1   
    22    9   11 1   
    23   12   14 ar  
    24   12   25 1   
    25   13   14 ar  
    26   13   26 1   
    27   14   27 1   
@<TRIPOS>SUBSTRUCTURE
     1 NP2         1 TEMP              0 ****  ****    0 ROOT
