@<TRIPOS>MOLECULE
NP2
   28    28     1     0     0
SMALL
bcc


@<TRIPOS>ATOM
      1 NZ          0.3990    1.1600    0.7600 n4        1 NP2     -0.839600
      2 CA          1.5670    0.3060    0.3800 c3        1 NP2      0.108800
      3 CB          2.4180   -0.0510    1.5850 c3        1 NP2     -0.163400
      4 CG          3.5550   -0.9960    1.1590 c3        1 NP2      0.197800
      5 NE          4.3490   -1.5080    2.2470 nh        1 NP2     -0.703600
      6 CD          5.4060   -0.6910    2.7200 ca        1 NP2      0.154600
      7 CE1         6.5790   -0.5910    1.9390 ca        1 NP2     -0.142000
      8 CE2         5.4080   -0.0430    3.9870 ca        1 NP2     -0.219200
      9 NO2         4.1930    0.0030    4.8380 no        1 NP2      0.314200
     10 OC1         4.3040    0.1810    6.0160 o         1 NP2     -0.222500
     11 OC2         3.1040   -0.1020    4.3180 o         1 NP2     -0.222500
     12 CR1         7.7050    0.0700    2.4150 ca        1 NP2     -0.067000
     13 CR2         6.5660    0.5890    4.4760 ca        1 NP2     -0.054000
     14 CZ          7.7080    0.6470    3.6860 ca        1 NP2     -0.136000
     15 HNZ1       -0.1620    1.3840   -0.0670 hn        1 NP2      0.463133
     16 HNZ2       -0.1870    0.6650    1.4420 hn        1 NP2      0.463133
     17 HA1         2.1760    0.8760   -0.3800 hx        1 NP2      0.110200
     18 HA2         1.1620   -0.6290   -0.1070 hx        1 NP2      0.110200
     19 HB1         1.7970   -0.5550    2.3750 hc        1 NP2      0.087700
     20 HB2         2.8580    0.8720    2.0510 hc        1 NP2      0.087700
     21 HG1         4.2230   -0.4650    0.4240 h1        1 NP2      0.067700
     22 HG2         3.1030   -1.8930    0.6440 h1        1 NP2      0.067700
     23 HNE         3.7760   -1.8670    2.9890 hn        1 NP2      0.411800
     24 HE1         6.6120   -1.0730    0.9470 ha        1 NP2      0.159000
     25 HR1         8.6110    0.1220    1.7870 ha        1 NP2      0.159000
     26 HR2         6.5650    1.0400    5.4840 ha        1 NP2      0.179000
     27 HZ          8.6130    1.1450    4.0680 ha        1 NP2      0.165000
     28 HZ3         0.7280    2.0300    1.1920 hn        1 NP2      0.463133
@<TRIPOS>BOND
     1    1    2 1   
     2    1   15 1   
     3    1   16 1   
     4    1   28 1   
     5    2    3 1   
     6    2   17 1   
     7    2   18 1   
     8    3    4 1   
     9    3   19 1   
    10    3   20 1   
    11    4    5 1   
    12    4   21 1   
    13    4   22 1   
    14    5    6 1   
    15    5   23 1   
    16    6    7 ar  
    17    6    8 ar  
    18    7   12 ar  
    19    7   24 1   
    20    8    9 1   
    21    8   13 ar  
    22    9   10 1   
    23    9   11 1   
    24   12   14 ar  
    25   12   25 1   
    26   13   14 ar  
    27   13   26 1   
    28   14   27 1   
@<TRIPOS>SUBSTRUCTURE
     1 NP2         1 TEMP              0 ****  ****    0 ROOT
