@<TRIPOS>MOLECULE
NP2
   28    28     1     0     0
SMALL
bcc


@<TRIPOS>ATOM
      1 NZ          0.4350    1.2750    0.7670 nz        1 NP2     -0.839600
      2 CA          1.5550    0.3540    0.4030 c3        1 NP2      0.108800
      3 CB          2.4070    0.0010    1.6090 c3        1 NP2     -0.163400
      4 CG          3.4920   -1.0110    1.2030 c3        1 NP2      0.197800
      5 NE          4.2780   -1.5200    2.2990 nu        1 NP2     -0.703600
      6 CD          5.3780   -0.7380    2.7280 ca        1 NP2      0.154600
      7 CE1         6.5430   -0.7210    1.9280 ca        1 NP2     -0.142000
      8 CE2         5.4280   -0.0460    3.9700 ca        1 NP2     -0.219200
      9 NO2         4.2290    0.0870    4.8350 no        1 NP2      0.314200
     10 OC1         4.3660    0.3030    6.0040 o         1 NP2     -0.222000
     11 OC2         3.1290    0.0160    4.3340 o         1 NP2     -0.222000
     12 CR1         7.7050   -0.0970    2.3650 ca        1 NP2     -0.067000
     13 CR2         6.6220    0.5480    4.4200 ca        1 NP2     -0.054000
     14 CZ          7.7530    0.5250    3.6140 ca        1 NP2     -0.136000
     15 HNZ1       -0.1640    0.8340    1.4740 hn        1 NP2      0.463133
     16 HNZ2        0.8110    2.1440    1.1620 hn        1 NP2      0.463133
     17 HA1         1.1000   -0.5780   -0.0430 hx        1 NP2      0.110200
     18 HA2         2.1790    0.8670   -0.3850 hx        1 NP2      0.110200
     19 HB1         2.8960    0.9180    2.0350 hc        1 NP2      0.087700
     20 HB2         1.7740   -0.4440    2.4260 hc        1 NP2      0.087700
     21 HG1         2.9910   -1.9040    0.7280 h1        1 NP2      0.067700
     22 HG2         4.1730   -0.5400    0.4410 h1        1 NP2      0.067700
     23 HNE         3.6990   -1.8250    3.0610 hn        1 NP2      0.411800
     24 HE1         6.5380   -1.2390    0.9550 ha        1 NP2      0.159000
     25 HR1         8.6030   -0.1090    1.7240 ha        1 NP2      0.159000
     26 HR2         6.6570    1.0350    5.4120 ha        1 NP2      0.179000
     27 HZ          8.6860    0.9940    3.9660 ha        1 NP2      0.165000
     28 HZ3        -0.1270    1.4960   -0.0600 hn        1 NP2      0.463133
@<TRIPOS>BOND
     1    1    2 1   
     2    1   15 1   
     3    1   16 1   
     4    1   28 1   
     5    2    3 1   
     6    2   17 1   
     7    2   18 1   
     8    3    4 1   
     9    3   19 1   
    10    3   20 1   
    11    4    5 1   
    12    4   21 1   
    13    4   22 1   
    14    5    6 1   
    15    5   23 1   
    16    6    7 ar  
    17    6    8 ar  
    18    7   12 ar  
    19    7   24 1   
    20    8    9 1   
    21    8   13 ar  
    22    9   10 1   
    23    9   11 1   
    24   12   14 ar  
    25   12   25 1   
    26   13   14 ar  
    27   13   26 1   
    28   14   27 1   
@<TRIPOS>SUBSTRUCTURE
     1 NP2         1 TEMP              0 ****  ****    0 ROOT
