@<TRIPOS>MOLECULE
NP2
   27    27     1     0     0
SMALL
bcc


@<TRIPOS>ATOM
      1 NZ          5.5520    0.2410   -0.1020 n3        1 NP2     -0.916800
      2 CA          4.3380   -0.5300    0.0060 c3        1 NP2      0.164800
      3 CB          3.0780    0.3360   -0.0120 c3        1 NP2     -0.099400
      4 CG          1.8530   -0.5780    0.0100 c3        1 NP2      0.214800
      5 NE          0.6140    0.1540    0.0350 nh        1 NP2     -0.765600
      6 CD         -0.6060   -0.4660    0.0110 ca        1 NP2      0.283600
      7 CE1        -0.6880   -1.8960    0.0230 ca        1 NP2     -0.235000
      8 CE2        -1.8490    0.2460   -0.0040 ca        1 NP2     -0.282200
      9 NO2        -1.9400    1.7190   -0.0250 no        1 NP2      0.326200
     10 OC1        -3.0290    2.2290    0.0360 o         1 NP2     -0.232500
     11 OC2        -0.9500    2.4050   -0.1080 o         1 NP2     -0.232500
     12 CR1        -1.8990   -2.5530    0.0260 ca        1 NP2     -0.036000
     13 CR2        -3.0750   -0.4580    0.0030 ca        1 NP2     -0.022000
     14 CZ         -3.1050   -1.8380    0.0170 ca        1 NP2     -0.206000
     15 HNZ1        5.5860    0.9660    0.5860 hn        1 NP2      0.353800
     16 HNZ2        6.3520   -0.3510   -0.0020 hn        1 NP2      0.353800
     17 HA1         4.3100   -1.2340   -0.8740 h1        1 NP2      0.026200
     18 HA2         4.3090   -1.1680    0.9410 h1        1 NP2      0.026200
     19 HB1         3.0690    1.0190    0.8770 hc        1 NP2      0.062200
     20 HB2         3.0680    0.9770   -0.9330 hc        1 NP2      0.062200
     21 HG1         1.8810   -1.2460   -0.9010 h1        1 NP2      0.043700
     22 HG2         1.9070   -1.2430    0.9210 h1        1 NP2      0.043700
     23 HNE         0.6720    1.1480   -0.0260 hn        1 NP2      0.471800
     24 HE1         0.2380   -2.4900    0.0310 ha        1 NP2      0.143000
     25 HR1        -1.9210   -3.6550    0.0340 ha        1 NP2      0.139000
     26 HR2        -4.0230    0.1110   -0.0040 ha        1 NP2      0.168000
     27 HZ         -4.0650   -2.3730    0.0210 ha        1 NP2      0.146000
@<TRIPOS>BOND
     1    1    2 1   
     2    1   15 1   
     3    1   16 1   
     4    2    3 1   
     5    2   17 1   
     6    2   18 1   
     7    3    4 1   
     8    3   19 1   
     9    3   20 1   
    10    4    5 1   
    11    4   21 1   
    12    4   22 1   
    13    5    6 1   
    14    5   23 1   
    15    6    7 ar  
    16    6    8 ar  
    17    7   12 ar  
    18    7   24 1   
    19    8    9 1   
    20    8   13 ar  
    21    9   10 1   
    22    9   11 1   
    23   12   14 ar  
    24   12   25 1   
    25   13   14 ar  
    26   13   26 1   
    27   14   27 1   
@<TRIPOS>SUBSTRUCTURE
     1 NP2         1 TEMP              0 ****  ****    0 ROOT
