@<TRIPOS>MOLECULE
NP3
   31    32     1     0     0
SMALL
bcc


@<TRIPOS>ATOM
      1 P           3.8610    0.1560    1.2200 p5        1 NP3      1.331900
      2 O1P         3.2250   -0.7590    2.2270 o         1 NP3     -0.929833
      3 O2P         3.3120    1.5690    1.2430 o         1 NP3     -0.929833
      4 O3P         5.3180   -0.0050    0.9250 o         1 NP3     -0.929833
      5 O5'         3.0790   -0.3700   -0.2550 os        1 NP3     -0.553200
      6 C5'         1.7160   -0.3670   -0.1780 c3        1 NP3      0.228400
      7 C4'         1.1340    0.8710   -0.9030 c3        1 NP3      0.054100
      8 O4'        -0.1100    0.5140   -1.5690 os        1 NP3     -0.428600
      9 C1'        -1.1900    1.2820   -1.0800 c3        1 NP3      0.242800
     10 N1         -2.1180    0.4200   -0.3310 na        1 NP3     -0.040100
     11 C5         -1.7650   -0.6050    0.5540 cc        1 NP3     -0.109300
     12 C2         -3.4880    0.4960   -0.4190 cc        1 NP3     -0.087300
     13 C3         -4.0330   -0.5010    0.4360 cd        1 NP3     -0.297200
     14 C4         -2.9290   -1.1980    1.0520 cd        1 NP3     -0.160000
     15 N3         -5.4340   -0.7540    0.6360 no        1 NP3      0.356200
     16 ON1        -6.2540   -0.0820    0.0490 o         1 NP3     -0.264000
     17 ON2        -5.7930   -1.6330    1.3830 o         1 NP3     -0.264000
     18 C2'        -0.6200    2.4510   -0.2510 c3        1 NP3     -0.132400
     19 C3'         0.8400    2.0610    0.0330 c3        1 NP3      0.158100
     20 O3'         1.6640    3.1630   -0.2690 oh        1 NP3     -0.672800
     21 H5'1        1.2990   -1.2770   -0.7050 h1        1 NP3     -0.002800
     22 H5'2        1.3700   -0.3780    0.8960 h1        1 NP3     -0.002800
     23 H4'         1.8270    1.1810   -1.7300 h1        1 NP3      0.081700
     24 H1'        -1.7680    1.6420   -1.9830 h2        1 NP3      0.050700
     25 H5         -0.7060   -0.8300    0.7470 h4        1 NP3      0.230000
     26 H2         -4.0140    1.2140   -1.0500 h4        1 NP3      0.177000
     27 H4         -3.0040   -2.0160    1.7620 ha        1 NP3      0.169000
     28 H2'1       -0.6600    3.3840   -0.8640 hc        1 NP3      0.054200
     29 H2'2       -1.1770    2.6260    0.6980 hc        1 NP3      0.054200
     30 H3'         0.9860    1.7660    1.1100 h1        1 NP3      0.110700
     31 H3T         2.5340    2.9510    0.1440 ho        1 NP3      0.502000
@<TRIPOS>BOND
     1    1    2 1   
     2    1    3 1   
     3    1    4 1   
     4    1    5 1   
     5    5    6 1   
     6    6    7 1   
     7    6   21 1   
     8    6   22 1   
     9    7    8 1   
    10    7   19 1   
    11    7   23 1   
    12    8    9 1   
    13    9   10 1   
    14    9   18 1   
    15    9   24 1   
    16   10   11 1   
    17   10   12 1   
    18   11   14 2   
    19   11   25 1   
    20   12   13 2   
    21   12   26 1   
    22   13   14 1   
    23   13   15 1   
    24   14   27 1   
    25   15   16 1   
    26   15   17 1   
    27   18   19 1   
    28   18   28 1   
    29   18   29 1   
    30   19   20 1   
    31   19   30 1   
    32   20   31 1   
@<TRIPOS>SUBSTRUCTURE
     1 NP3         1 TEMP              0 ****  ****    0 ROOT
