@<TRIPOS>MOLECULE
NP3
   31    27     1     0     0
SMALL
bcc


@<TRIPOS>ATOM
      1 P           0.9170   -1.0470    3.6460 p4        1 NP3      1.700200
      2 O1P         2.1040   -1.5740    2.8770 o         1 NP3     -0.941500
      3 O2P         1.3760   -0.5270    4.9880 os        1 NP3     -1.226000
      4 O3P        -0.0840   -2.1590    3.8520 o         1 NP3     -0.990300
      5 O5'         0.2400    0.1270    2.8300 os        1 NP3     -0.553200
      6 C5'        -0.2350   -0.1450    1.5320 c3        1 NP3      0.228400
      7 C4'        -1.3560    0.8150    1.1930 c3        1 NP3      0.054100
      8 O4'        -0.8280    1.9410    0.1750 os        1 NP3     -0.428600
      9 C1'        -0.8680    1.4070   -1.0070 c3        1 NP3      0.420300
     10 N1          0.3960    0.7910   -1.3190 n3        1 NP3     -0.377800
     11 C5          1.6120    1.1660   -0.8300 c1        1 NP3     -0.018200
     12 C2          0.5930   -0.2250   -2.2080 c1        1 NP3     -0.018200
     13 C3          1.9450   -0.4810   -2.2690 cg        1 NP3     -0.206000
     14 C4          2.5720    0.3750   -1.4220 cg        1 NP3     -0.206000
     15 N3          2.5770   -1.4210   -3.1230 n2        1 NP3      0.502400
     16 ON1         1.9190   -2.5600   -3.4910 o         1 NP3     -0.359700
     17 ON2         3.7010   -1.1990   -3.5510 o         1 NP3     -0.359700
     18 C2'        -1.9830    0.3360   -0.9280 c3        1 NP3     -0.132400
     19 C3'        -2.3080    0.1880    0.5820 c3        1 NP3      0.158100
     20 O3'        -3.6210    0.8180    0.8900 oh        1 NP3     -0.672800
     21 H5'1       -0.5690   -1.0650    1.4920 h1        1 NP3     -0.002800
     22 H5'2        0.4950   -0.0350    0.8880 h1        1 NP3     -0.002800
     23 H4'        -1.6980    1.2330    2.0080 h1        1 NP3      0.081700
     24 H1'        -1.0930    2.0820   -1.6770 h2        1 NP3      0.050700
     25 H5          1.7740    1.8720   -0.1750 DU        1 NP3      0.192000
     26 H2         -0.1030   -0.6960   -2.7050 DU        1 NP3      0.192000
     27 H4          3.5330    0.4210   -1.2600 DU        1 NP3      0.192000
     28 H2'1       -2.7750    0.6360   -1.4170 hc        1 NP3      0.054200
     29 H2'2       -1.6620   -0.5140   -1.2900 hc        1 NP3      0.054200
     30 H3'        -2.3140   -0.7560    0.8380 h1        1 NP3      0.110700
     31 H3T        -4.2570    0.1970    0.8810 ho        1 NP3      0.502000
@<TRIPOS>BOND
     1    1    2 1   
     2    1    4 2   
     3    1    5 1   
     4    5    6 1   
     5    6    7 1   
     6    6   21 1   
     7    6   22 1   
     8    7    8 1   
     9    7   19 1   
    10    7   23 1   
    11    8    9 1   
    12    9   10 1   
    13    9   18 1   
    14    9   24 1   
    15   10   11 1   
    16   10   12 1   
    17   11   14 3   
    18   12   13 3   
    19   13   14 1   
    20   15   16 2   
    21   15   17 2   
    22   18   19 1   
    23   18   28 1   
    24   18   29 1   
    25   19   20 1   
    26   19   30 1   
    27   20   31 1   
@<TRIPOS>SUBSTRUCTURE
     1 NP3         1 TEMP              0 ****  ****    0 ROOT
