@<TRIPOS>MOLECULE
NP4
   39    40     1     0     0
SMALL
bcc


@<TRIPOS>ATOM
      1 C1         -0.0050    0.4000   -0.3520 c         1 NP4      0.668700
      2 C2          1.4600    0.2670   -0.2110 ca        1 NP4     -0.168600
      3 O10        -0.6340   -0.8130   -0.4360 os        1 NP4     -0.436900
      4 C3          2.2650    0.3070   -1.3670 ca        1 NP4      0.206100
      5 C4          3.6570    0.2050   -1.2800 ca        1 NP4     -0.249000
      6 C5          4.2440    0.0500   -0.0170 ca        1 NP4      0.199100
      7 C6          3.4480   -0.0050    1.1460 ca        1 NP4     -0.095600
      8 C7          2.0540    0.1170    1.0510 ca        1 NP4      0.055700
      9 C8          1.1920    0.0720    2.2660 c3        1 NP4     -0.159100
     10 C9          1.0530    1.3950    2.9790 c         1 NP4      0.574100
     11 C10        -0.1630    1.5050    3.8620 c3        1 NP4     -0.181400
     12 C11        -1.4420    1.6100    3.0510 c3        1 NP4     -0.078400
     13 C12        -2.3380    0.3990    3.2460 c3        1 NP4     -0.050200
     14 C13        -3.4910    0.4450    2.3150 c2        1 NP4     -0.158200
     15 C14        -3.6510   -0.2800    1.2060 c2        1 NP4     -0.169200
     16 C15        -2.7230   -1.3020    0.6680 c3        1 NP4     -0.071200
     17 C16        -2.0570   -0.8400   -0.6240 c3        1 NP4      0.133400
     18 O1         -0.6760    1.4300   -0.3990 o         1 NP4     -0.520000
     19 O3          1.6210    0.4430   -2.5700 oh        1 NP4     -0.483100
     20 O4          5.6100   -0.0500   -0.0140 oh        1 NP4     -0.485100
     21 CL1         4.2040   -0.2170    2.6580 cl        1 NP4     -0.081400
     22 O5          1.8730    2.3090    2.8850 o         1 NP4     -0.509100
     23 H4          4.2930    0.2450   -2.1740 ha        1 NP4      0.163000
     24 H8C1        0.1640   -0.2960    1.9860 hc        1 NP4      0.089200
     25 H8C2        1.6110   -0.6650    3.0080 hc        1 NP4      0.089200
     26 H101       -0.0510    2.4140    4.5110 hc        1 NP4      0.067200
     27 H102       -0.1920    0.6100    4.5390 hc        1 NP4      0.067200
     28 H111       -2.0010    2.5330    3.3590 hc        1 NP4      0.063700
     29 H112       -1.2060    1.7260    1.9580 hc        1 NP4      0.063700
     30 H121       -1.7400   -0.5400    3.1070 hc        1 NP4      0.043200
     31 H122       -2.7200    0.3850    4.3030 hc        1 NP4      0.043200
     32 H13        -4.2670    1.1790    2.5970 ha        1 NP4      0.122000
     33 H14        -4.5580   -0.1340    0.5930 ha        1 NP4      0.120000
     34 H151       -1.9280   -1.5770    1.4110 hc        1 NP4      0.057200
     35 H152       -3.3060   -2.2400    0.4560 hc        1 NP4      0.057200
     36 H161       -2.1990   -1.5970   -1.4410 h1        1 NP4      0.070700
     37 H162       -2.4390    0.1590   -0.9590 h1        1 NP4      0.070700
     38 H3          2.2910    0.5030   -3.2680 ho        1 NP4      0.432000
     39 HA          5.9170   -0.1000    0.9070 ho        1 NP4      0.438000
@<TRIPOS>BOND
     1    1    2 1   
     2    1    3 1   
     3    1   18 2   
     4    2    4 ar  
     5    2    8 ar  
     6    3   17 1   
     7    4    5 ar  
     8    4   19 1   
     9    5    6 ar  
    10    5   23 1   
    11    6    7 ar  
    12    6   20 1   
    13    7    8 ar  
    14    7   21 1   
    15    8    9 1   
    16    9   10 1   
    17    9   24 1   
    18    9   25 1   
    19   10   11 1   
    20   10   22 2   
    21   11   12 1   
    22   11   26 1   
    23   11   27 1   
    24   12   13 1   
    25   12   28 1   
    26   12   29 1   
    27   13   14 1   
    28   13   30 1   
    29   13   31 1   
    30   14   15 2   
    31   14   32 1   
    32   15   16 1   
    33   15   33 1   
    34   16   17 1   
    35   16   34 1   
    36   16   35 1   
    37   17   36 1   
    38   17   37 1   
    39   19   38 1   
    40   20   39 1   
@<TRIPOS>SUBSTRUCTURE
     1 NP4         1 TEMP              0 ****  ****    0 ROOT
