@<TRIPOS>MOLECULE
NP4
   39    36     1     0     0
SMALL
bcc


@<TRIPOS>ATOM
      1 C1         -0.4010   -0.7210   -1.8860 c1        1 NP4      0.352000
      2 C2          1.1500   -0.7640   -1.8760 c1        1 NP4     -0.217000
      3 O10        -1.0980    0.1360   -0.9760 os        1 NP4     -0.296000
      4 C3          0.8470   -1.9690   -2.5030 c2        1 NP4      0.185000
      5 C4          1.2010   -3.1730   -1.9040 c1        1 NP4     -0.263000
      6 C5          1.8580   -3.1740   -0.6770 c1        1 NP4      0.153000
      7 C6          2.1600   -1.9690   -0.0500 c1        1 NP4     -0.142000
      8 C7          1.8070   -0.7640   -0.6480 c1        1 NP4      0.059000
      9 C8          2.3050    0.5850   -0.0340 c3        1 NP4     -0.213000
     10 C9          1.0840    1.4770    0.3190 c2        1 NP4      0.239000
     11 C10         1.2180    1.9830    1.7860 c3        1 NP4     -0.211000
     12 C11         0.1290    3.0720    2.0660 c3        1 NP4     -0.149000
     13 C12        -1.2420    2.5970    1.4970 c3        1 NP4     -0.136000
     14 C13        -1.7130    1.3400    2.2660 c2        1 NP4     -0.153000
     15 C14        -2.7000    0.3480    1.5990 c1        1 NP4     -0.170000
     16 C15        -3.2100    0.6110    0.1610 c2        1 NP4     -0.160000
     17 C16        -2.4570   -0.3160   -0.8340 c3        1 NP4     -0.007000
     18 O1         -1.0240   -1.3910   -2.6910 o         1 NP4     -0.338000
     19 O3          0.2800   -1.9660   -3.8000 oh        1 NP4     -0.244000
     20 O4          2.1390   -4.3980   -0.0280 oh        1 NP4     -0.226000
     21 CL1         2.9520   -1.9720    1.5070 cl        1 NP4      0.029000
     22 O5          0.5880    2.1960   -0.5310 o         1 NP4     -0.288000
     23 H4          0.9880   -4.0230   -2.3470 ha        1 NP4      0.164000
     24 H8C1        2.8740    1.0520   -0.6860 hc        1 NP4      0.146000
     25 H8C2        2.8230    0.4020    0.7810 hc        1 NP4      0.146000
     26 H101        1.0950    1.2310    2.4050 hc        1 NP4      0.113000
     27 H102        2.1130    2.3730    1.9180 hc        1 NP4      0.113000
     28 H111        0.0500    3.2150    3.0360 hc        1 NP4      0.097000
     29 H112        0.3900    3.9150    1.6320 hc        1 NP4      0.097000
     30 H121       -1.1440    2.3800    0.5470 hc        1 NP4      0.090500
     31 H122       -1.9080    3.3140    1.6020 hc        1 NP4      0.090500
     32 H13        -1.3900    1.1730    3.1780 ha        1 NP4      0.119000
     33 H14        -2.9990   -0.4500    2.0880 ha        1 NP4      0.118000
     34 H151       -3.0470    1.5480   -0.0770 ha        1 NP4      0.105500
     35 H152       -4.1750    0.4250    0.1160 ha        1 NP4      0.105500
     36 H161       -2.4620   -1.2370   -0.4910 h1        1 NP4      0.106500
     37 H162       -2.9050   -0.2900   -1.7090 h1        1 NP4      0.106500
     38 H3          0.9270   -2.0590   -4.4080 ho        1 NP4      0.246000
     39 HA          2.8990   -4.7350   -0.3470 ho        1 NP4      0.231000
@<TRIPOS>BOND
     1    1    3 1   
     2    1   18 1   
     3    2    4 1   
     4    2    8 1   
     5    3   17 1   
     6    4    5 1   
     7    4   19 1   
     8    5   23 1   
     9    6    7 1   
    10    6   20 1   
    11    7   21 1   
    12    8    9 1   
    13    9   10 1   
    14    9   24 1   
    15    9   25 1   
    16   10   11 1   
    17   10   22 1   
    18   11   12 1   
    19   11   26 1   
    20   11   27 1   
    21   12   13 1   
    22   12   28 1   
    23   12   29 1   
    24   13   14 1   
    25   13   30 1   
    26   13   31 1   
    27   14   15 1   
    28   14   32 1   
    29   15   33 1   
    30   16   17 1   
    31   16   34 1   
    32   16   35 1   
    33   17   36 1   
    34   17   37 1   
    35   19   38 1   
    36   20   39 1   
@<TRIPOS>SUBSTRUCTURE
     1 NP4         1 TEMP              0 ****  ****    0 ROOT
