@<TRIPOS>MOLECULE
NP4
   39    40     1     0     0
SMALL
bcc


@<TRIPOS>ATOM
      1 C1         -0.7710    1.3410    0.5320 c         1 NP4      0.644700
      2 C2          0.6670    1.1490    0.2780 ca        1 NP4     -0.230600
      3 O10        -1.3580    2.2460   -0.3190 os        1 NP4     -0.454900
      4 C3          1.5690    2.2130    0.4660 ca        1 NP4      0.215100
      5 C4          2.9510    2.0140    0.3420 ca        1 NP4     -0.195000
      6 C5          3.4180    0.7430   -0.0060 ca        1 NP4      0.194100
      7 C6          2.5170   -0.3150   -0.2650 ca        1 NP4     -0.098600
      8 C7          1.1390   -0.1150   -0.1230 ca        1 NP4      0.062700
      9 C8          0.1640   -1.1880   -0.4670 c3        1 NP4     -0.157100
     10 C9         -0.1400   -2.1790    0.6270 c         1 NP4      0.579100
     11 C10        -1.3980   -2.9810    0.4000 c3        1 NP4     -0.179400
     12 C11        -2.6470   -2.1700    0.6910 c3        1 NP4     -0.080400
     13 C12        -3.3970   -1.7820   -0.5730 c3        1 NP4     -0.049200
     14 C13        -4.4650   -0.7990   -0.2700 c2        1 NP4     -0.151200
     15 C14        -4.4600    0.5080   -0.5430 c2        1 NP4     -0.172200
     16 C15        -3.3910    1.2760   -1.2240 c3        1 NP4     -0.071200
     17 C16        -2.7900    2.3400   -0.3090 c3        1 NP4      0.138400
     18 O1         -1.4700    0.8290    1.4060 o         1 NP4     -0.511000
     19 O3          1.1800    3.4840    0.7940 oh        1 NP4     -0.485100
     20 O4          4.7790    0.6220   -0.1000 oh        1 NP4     -0.482100
     21 CL1         3.1320   -1.8280   -0.7500 cl        1 NP4     -0.081400
     22 O5          0.5790   -2.3570    1.6100 o         1 NP4     -0.505100
     23 H4          3.6530    2.8410    0.5170 ha        1 NP4      0.179000
     24 H8C1        0.5440   -1.7750   -1.3510 hc        1 NP4      0.084700
     25 H8C2       -0.8090   -0.7150   -0.7820 hc        1 NP4      0.084700
     26 H101       -1.3690   -3.8780    1.0740 hc        1 NP4      0.065200
     27 H102       -1.4040   -3.3530   -0.6580 hc        1 NP4      0.065200
     28 H111       -2.3790   -1.2420    1.2670 hc        1 NP4      0.066700
     29 H112       -3.3310   -2.7710    1.3460 hc        1 NP4      0.066700
     30 H121       -3.8630   -2.7010   -1.0240 hc        1 NP4      0.042200
     31 H122       -2.6800   -1.3820   -1.3380 hc        1 NP4      0.042200
     32 H13        -5.3370   -1.2350    0.2490 ha        1 NP4      0.122000
     33 H14        -5.3310    1.1220   -0.2490 ha        1 NP4      0.120000
     34 H151       -3.8280    1.7770   -2.1300 hc        1 NP4      0.057200
     35 H152       -2.5680    0.6050   -1.5890 hc        1 NP4      0.057200
     36 H161       -3.1770    2.2560    0.7390 h1        1 NP4      0.071700
     37 H162       -2.9740    3.3730   -0.7090 h1        1 NP4      0.071700
     38 H3          0.2150    3.5520    0.7030 ho        1 NP4      0.439000
     39 HA          4.9970   -0.3030   -0.3010 ho        1 NP4      0.437000
@<TRIPOS>BOND
     1    1    2 1   
     2    1    3 1   
     3    1   18 2   
     4    2    4 ar  
     5    2    8 ar  
     6    3   17 1   
     7    4    5 ar  
     8    4   19 1   
     9    5    6 ar  
    10    5   23 1   
    11    6    7 ar  
    12    6   20 1   
    13    7    8 ar  
    14    7   21 1   
    15    8    9 1   
    16    9   10 1   
    17    9   24 1   
    18    9   25 1   
    19   10   11 1   
    20   10   22 2   
    21   11   12 1   
    22   11   26 1   
    23   11   27 1   
    24   12   13 1   
    25   12   28 1   
    26   12   29 1   
    27   13   14 1   
    28   13   30 1   
    29   13   31 1   
    30   14   15 2   
    31   14   32 1   
    32   15   16 1   
    33   15   33 1   
    34   16   17 1   
    35   16   34 1   
    36   16   35 1   
    37   17   36 1   
    38   17   37 1   
    39   19   38 1   
    40   20   39 1   
@<TRIPOS>SUBSTRUCTURE
     1 NP4         1 TEMP              0 ****  ****    0 ROOT
