@<TRIPOS>MOLECULE
NP5
   39    36     1     0     0
SMALL
bcc


@<TRIPOS>ATOM
      1 C1         -1.0250    0.7160    1.2990 c1        1 NP5      0.370000
      2 O10         0.4110    0.7160    1.2990 o         1 NP5     -0.265000
      3 C2         -1.8010    1.2100    0.0520 c2        1 NP5     -0.154000
      4 C3         -2.9610    1.9410    0.2060 c2        1 NP5      0.160000
      5 C4         -3.6920    2.3440   -0.9220 c1        1 NP5     -0.250000
      6 C5         -3.2410    2.0010   -2.2210 c1        1 NP5      0.153000
      7 C6         -2.0600    1.2570   -2.3810 c1        1 NP5     -0.177000
      8 C7         -1.3390    0.8590   -1.2730 c1        1 NP5      0.064000
      9 C8          0.0680    0.1670   -1.4570 c3        1 NP5     -0.201000
     10 C9         -0.1170   -1.2190   -2.1520 c2        1 NP5      0.239000
     11 C10         0.6250   -2.3400   -1.3130 c3        1 NP5     -0.216000
     12 C11         2.0880   -1.8640   -0.9720 c3        1 NP5     -0.143000
     13 C12         2.5120   -2.4340    0.4370 c3        1 NP5     -0.135000
     14 C13         3.5620   -1.4800    1.0910 c2        1 NP5     -0.171000
     15 C14         3.1560   -0.5870    2.3130 c1        1 NP5     -0.159000
     16 C15         1.7090   -0.6480    2.8740 c2        1 NP5     -0.170000
     17 C16         0.9930    0.7160    2.6220 c3        1 NP5     -0.009000
     18 O1         -1.6330    0.2900    2.2650 o         1 NP5     -0.341000
     19 O3         -3.4230    2.2710    1.5030 oh        1 NP5     -0.237000
     20 O4         -3.9500    2.4560   -3.3580 oh        1 NP5     -0.239000
     21 CL1        -1.4600    0.9030   -3.9820 cl        1 NP5      0.006000
     22 O5         -1.1600   -1.4780   -2.7290 o         1 NP5     -0.276000
     23 H4         -4.5130    2.8620   -0.8120 ha        1 NP5      0.164000
     24 H8C1        0.4850    0.0400   -0.5830 hc        1 NP5      0.131000
     25 H8C2        0.6390    0.7340   -2.0100 hc        1 NP5      0.131000
     26 H101        0.1350   -2.5050   -0.4850 hc        1 NP5      0.117000
     27 H102        0.6650   -3.1640   -1.8360 hc        1 NP5      0.117000
     28 H111        2.1170   -0.8890   -0.9510 hc        1 NP5      0.086500
     29 H112        2.7050   -2.1930   -1.6540 hc        1 NP5      0.086500
     30 H121        2.9030   -3.3210    0.3260 hc        1 NP5      0.091000
     31 H122        1.7260   -2.4950    1.0130 hc        1 NP5      0.091000
     32 H13         4.4710   -1.4420    0.7390 ha        1 NP5      0.119000
     33 H14         3.8120    0.0090    2.7220 ha        1 NP5      0.124000
     34 H151        1.2160   -1.3620    2.4250 ha        1 NP5      0.107000
     35 H152        1.7390   -0.8280    3.8330 ha        1 NP5      0.107000
     36 H161        0.2900    0.8420    3.2870 h1        1 NP5      0.105500
     37 H162        1.6420    1.4420    2.6920 h1        1 NP5      0.105500
     38 H3         -3.5060    3.1520    1.5720 ho        1 NP5      0.231000
     39 HA         -3.7910    3.3200   -3.4800 ho        1 NP5      0.238000
@<TRIPOS>BOND
     1    1    3 1   
     2    1   18 1   
     3    2   17 1   
     4    3    4 1   
     5    3    8 1   
     6    4    5 1   
     7    4   19 1   
     8    5   23 1   
     9    6    7 1   
    10    6   20 1   
    11    7   21 1   
    12    8    9 1   
    13    9   10 1   
    14    9   24 1   
    15    9   25 1   
    16   10   11 1   
    17   10   22 1   
    18   11   12 1   
    19   11   26 1   
    20   11   27 1   
    21   12   13 1   
    22   12   28 1   
    23   12   29 1   
    24   13   14 1   
    25   13   30 1   
    26   13   31 1   
    27   14   15 1   
    28   14   32 1   
    29   15   33 1   
    30   16   17 1   
    31   16   34 1   
    32   16   35 1   
    33   17   36 1   
    34   17   37 1   
    35   19   38 1   
    36   20   39 1   
@<TRIPOS>SUBSTRUCTURE
     1 NP5         1 TEMP              0 ****  ****    0 ROOT
