@<TRIPOS>MOLECULE
NP5
   39    40     1     0     0
SMALL
bcc


@<TRIPOS>ATOM
      1 C1         -0.5300    1.4220   -1.0380 c         1 NP5      0.661700
      2 O10        -1.2470    2.3300   -0.3020 os        1 NP5     -0.457900
      3 C2          0.7930    1.1300   -0.4590 ca        1 NP5     -0.229600
      4 C3          1.6360    2.1820   -0.0450 ca        1 NP5      0.225100
      5 C4          2.9140    1.9240    0.4750 ca        1 NP5     -0.202000
      6 C5          3.3340    0.5980    0.6030 ca        1 NP5      0.198100
      7 C6          2.4890   -0.4660    0.2150 ca        1 NP5     -0.106600
      8 C7          1.2190   -0.2060   -0.3130 ca        1 NP5      0.072700
      9 C8          0.3340   -1.3330   -0.7240 c3        1 NP5     -0.174100
     10 C9         -0.5560   -1.8610    0.3730 c         1 NP5      0.578100
     11 C10        -1.5050   -2.9350   -0.0900 c3        1 NP5     -0.178400
     12 C11        -2.7830   -2.9990    0.7190 c3        1 NP5     -0.071400
     13 C12        -3.8350   -2.0040    0.2660 c3        1 NP5     -0.051200
     14 C13        -3.5200   -0.6110    0.6650 c2        1 NP5     -0.162200
     15 C14        -3.8080    0.4540   -0.0890 c2        1 NP5     -0.183200
     16 C15        -3.5300    1.8490    0.3260 c3        1 NP5     -0.070200
     17 C16        -2.6180    2.5770   -0.6500 c3        1 NP5      0.139400
     18 O1         -1.0300    0.9940   -2.0810 o         1 NP5     -0.535000
     19 O3          1.3220    3.5100   -0.1420 oh        1 NP5     -0.490100
     20 O4          4.5910    0.4250    1.1190 oh        1 NP5     -0.482100
     21 CL1         3.0430   -2.0680    0.4150 cl        1 NP5     -0.089400
     22 O5         -0.4990   -1.4790    1.5430 o         1 NP5     -0.520100
     23 H4          3.5680    2.7520    0.7820 ha        1 NP5      0.179000
     24 H8C1        0.9560   -2.1950   -1.0990 hc        1 NP5      0.100200
     25 H8C2       -0.3170   -1.0170   -1.5870 hc        1 NP5      0.100200
     26 H101       -0.9570   -3.9130    0.0060 hc        1 NP5      0.066700
     27 H102       -1.7440   -2.7890   -1.1760 hc        1 NP5      0.066700
     28 H111       -2.5450   -2.8310    1.8040 hc        1 NP5      0.055200
     29 H112       -3.2110   -4.0320    0.6210 hc        1 NP5      0.055200
     30 H121       -4.8170   -2.2880    0.7380 hc        1 NP5      0.049200
     31 H122       -3.9720   -2.0770   -0.8470 hc        1 NP5      0.049200
     32 H13        -3.0260   -0.5020    1.6470 ha        1 NP5      0.138000
     33 H14        -4.2790    0.3450   -1.0800 ha        1 NP5      0.122000
     34 H151       -3.0680    1.8790    1.3500 hc        1 NP5      0.062700
     35 H152       -4.5010    2.4130    0.3750 hc        1 NP5      0.062700
     36 H161       -2.7190    3.6900   -0.5280 h1        1 NP5      0.068200
     37 H162       -2.8250    2.2840   -1.7110 h1        1 NP5      0.068200
     38 H3          0.3840    3.6110   -0.3680 ho        1 NP5      0.446000
     39 HA          4.7640   -0.5270    1.2070 ho        1 NP5      0.436000
@<TRIPOS>BOND
     1    1    2 1   
     2    1    3 1   
     3    1   18 2   
     4    2   17 1   
     5    3    4 ar  
     6    3    8 ar  
     7    4    5 ar  
     8    4   19 1   
     9    5    6 ar  
    10    5   23 1   
    11    6    7 ar  
    12    6   20 1   
    13    7    8 ar  
    14    7   21 1   
    15    8    9 1   
    16    9   10 1   
    17    9   24 1   
    18    9   25 1   
    19   10   11 1   
    20   10   22 2   
    21   11   12 1   
    22   11   26 1   
    23   11   27 1   
    24   12   13 1   
    25   12   28 1   
    26   12   29 1   
    27   13   14 1   
    28   13   30 1   
    29   13   31 1   
    30   14   15 2   
    31   14   32 1   
    32   15   16 1   
    33   15   33 1   
    34   16   17 1   
    35   16   34 1   
    36   16   35 1   
    37   17   36 1   
    38   17   37 1   
    39   19   38 1   
    40   20   39 1   
@<TRIPOS>SUBSTRUCTURE
     1 NP5         1 TEMP              0 ****  ****    0 ROOT
