@<TRIPOS>MOLECULE
NP5
   39    40     1     0     0
SMALL
bcc


@<TRIPOS>ATOM
      1 C1         -0.0730    0.4520    0.0860 c         1 NP5      0.672700
      2 O10         0.9780   -0.4120    0.1890 os        1 NP5     -0.419900
      3 C2         -0.7610    0.3670   -1.2180 ca        1 NP5     -0.173600
      4 C3         -0.0670    0.7130   -2.3950 ca        1 NP5      0.212100
      5 C4         -0.6850    0.6340   -3.6470 ca        1 NP5     -0.253000
      6 C5         -2.0140    0.1980   -3.7170 ca        1 NP5      0.202100
      7 C6         -2.7230   -0.1410   -2.5450 ca        1 NP5     -0.102600
      8 C7         -2.0970   -0.0600   -1.2920 ca        1 NP5      0.062700
      9 C8         -2.8400   -0.3980   -0.0450 c3        1 NP5     -0.169100
     10 C9         -2.7670   -1.8490    0.3580 c         1 NP5      0.572100
     11 C10        -3.2700   -2.1370    1.7490 c3        1 NP5     -0.180400
     12 C11        -2.1450   -2.5750    2.6670 c3        1 NP5     -0.068400
     13 C12        -1.3020   -1.3990    3.1240 c3        1 NP5     -0.059200
     14 C13        -0.1130   -1.8380    3.8940 c2        1 NP5     -0.159200
     15 C14         1.0980   -2.0650    3.3730 c2        1 NP5     -0.170200
     16 C15         1.4360   -1.9830    1.9320 c3        1 NP5     -0.073200
     17 C16         1.6380   -0.5470    1.4580 c3        1 NP5      0.132400
     18 O1         -0.3500    1.1840    1.0410 o         1 NP5     -0.548000
     19 O3          1.2240    1.1500   -2.2520 oh        1 NP5     -0.478100
     20 O4         -2.5480    0.1430   -4.9770 oh        1 NP5     -0.485100
     21 CL1        -4.3410   -0.6580   -2.6800 cl        1 NP5     -0.084400
     22 O5         -2.3480   -2.7430   -0.3800 o         1 NP5     -0.514100
     23 H4         -0.1500    0.8990   -4.5700 ha        1 NP5      0.163000
     24 H8C1       -3.9290   -0.1370   -0.1610 hc        1 NP5      0.098700
     25 H8C2       -2.4500    0.2280    0.8090 hc        1 NP5      0.098700
     26 H101       -4.0270   -2.9640    1.6770 hc        1 NP5      0.065200
     27 H102       -3.7850   -1.2360    2.1730 hc        1 NP5      0.065200
     28 H111       -1.5000   -3.3220    2.1330 hc        1 NP5      0.055700
     29 H112       -2.5840   -3.0870    3.5630 hc        1 NP5      0.055700
     30 H121       -0.9760   -0.8010    2.2270 hc        1 NP5      0.051200
     31 H122       -1.9260   -0.7170    3.7610 hc        1 NP5      0.051200
     32 H13        -0.2790   -1.9620    4.9770 ha        1 NP5      0.120000
     33 H14         1.9310   -2.3600    4.0320 ha        1 NP5      0.121000
     34 H151        2.3730   -2.5670    1.7310 hc        1 NP5      0.063200
     35 H152        0.6200   -2.4600    1.3210 hc        1 NP5      0.063200
     36 H161        2.7180   -0.3380    1.2360 h1        1 NP5      0.070200
     37 H162        1.2530    0.1970    2.2030 h1        1 NP5      0.070200
     38 H3          1.5910    1.3060   -3.1360 ho        1 NP5      0.431000
     39 HA         -3.4530   -0.2060   -4.9170 ho        1 NP5      0.438000
@<TRIPOS>BOND
     1    1    2 1   
     2    1    3 1   
     3    1   18 2   
     4    2   17 1   
     5    3    4 ar  
     6    3    8 ar  
     7    4    5 ar  
     8    4   19 1   
     9    5    6 ar  
    10    5   23 1   
    11    6    7 ar  
    12    6   20 1   
    13    7    8 ar  
    14    7   21 1   
    15    8    9 1   
    16    9   10 1   
    17    9   24 1   
    18    9   25 1   
    19   10   11 1   
    20   10   22 2   
    21   11   12 1   
    22   11   26 1   
    23   11   27 1   
    24   12   13 1   
    25   12   28 1   
    26   12   29 1   
    27   13   14 1   
    28   13   30 1   
    29   13   31 1   
    30   14   15 2   
    31   14   32 1   
    32   15   16 1   
    33   15   33 1   
    34   16   17 1   
    35   16   34 1   
    36   16   35 1   
    37   17   36 1   
    38   17   37 1   
    39   19   38 1   
    40   20   39 1   
@<TRIPOS>SUBSTRUCTURE
     1 NP5         1 TEMP              0 ****  ****    0 ROOT
