@<TRIPOS>MOLECULE
NP5
   39    40     1     0     0
SMALL
bcc


@<TRIPOS>ATOM
      1 C1         -0.0850    0.4630    0.1000 c         1 NP5      0.672700
      2 O10         0.9750   -0.3910    0.2010 os        1 NP5     -0.419900
      3 C2         -0.7660    0.3810   -1.2080 ca        1 NP5     -0.173600
      4 C3         -0.0710    0.7420   -2.3790 ca        1 NP5      0.212100
      5 C4         -0.6820    0.6660   -3.6350 ca        1 NP5     -0.253000
      6 C5         -2.0060    0.2180   -3.7140 ca        1 NP5      0.202100
      7 C6         -2.7170   -0.1360   -2.5480 ca        1 NP5     -0.102600
      8 C7         -2.0980   -0.0590   -1.2910 ca        1 NP5      0.062700
      9 C8         -2.8430   -0.4130   -0.0500 c3        1 NP5     -0.169100
     10 C9         -2.7570   -1.8660    0.3430 c         1 NP5      0.572100
     11 C10        -3.2640   -2.1690    1.7300 c3        1 NP5     -0.180400
     12 C11        -2.1390   -2.6030    2.6500 c3        1 NP5     -0.068400
     13 C12        -1.3080   -1.4230    3.1190 c3        1 NP5     -0.059200
     14 C13        -0.1180   -1.8560    3.8910 c2        1 NP5     -0.159200
     15 C14         1.0960   -2.0670    3.3730 c2        1 NP5     -0.170200
     16 C15         1.4400   -1.9710    1.9340 c3        1 NP5     -0.073200
     17 C16         1.6300   -0.5300    1.4720 c3        1 NP5      0.132400
     18 O1         -0.3730    1.1850    1.0580 o         1 NP5     -0.548000
     19 O3          1.2160    1.1910   -2.2280 oh        1 NP5     -0.478100
     20 O4         -2.5340    0.1670   -4.9760 oh        1 NP5     -0.485100
     21 Cl1        -4.3300   -0.6690   -2.6940 cl        1 NP5     -0.084400
     22 O5         -2.3260   -2.7510   -0.4000 o         1 NP5     -0.514100
     23 H4         -0.1450    0.9430   -4.5530 ha        1 NP5      0.163000
     24 H8C1       -3.9340   -0.1620   -0.1690 hc        1 NP5      0.098700
     25 H8C2       -2.4630    0.2100    0.8100 hc        1 NP5      0.098700
     26 H101       -4.0120   -3.0030    1.6480 hc        1 NP5      0.065200
     27 H102       -3.7880   -1.2760    2.1580 hc        1 NP5      0.065200
     28 H111       -1.4840   -3.3400    2.1130 hc        1 NP5      0.055700
     29 H112       -2.5770   -3.1260    3.5400 hc        1 NP5      0.055700
     30 H121       -0.9840   -0.8150    2.2280 hc        1 NP5      0.051200
     31 H122       -1.9420   -0.7510    3.7580 hc        1 NP5      0.051200
     32 H13        -0.2880   -1.9890    4.9730 ha        1 NP5      0.120000
     33 H14         1.9300   -2.3590    4.0340 ha        1 NP5      0.121000
     34 H151        2.3830   -2.5450    1.7330 hc        1 NP5      0.063200
     35 H152        0.6310   -2.4510    1.3160 hc        1 NP5      0.063200
     36 H161        2.7090   -0.3080    1.2570 h1        1 NP5      0.070700
     37 H162        1.2340    0.2050    2.2200 h1        1 NP5      0.070700
     38 H3          1.5850    1.3570   -3.1090 ho        1 NP5      0.431000
     39 HA         -3.4360   -0.1920   -4.9230 ho        1 NP5      0.438000
@<TRIPOS>BOND
     1    1    2 1   
     2    1    3 1   
     3    1   18 2   
     4    2   17 1   
     5    3    4 ar  
     6    3    8 ar  
     7    4    5 ar  
     8    4   19 1   
     9    5    6 ar  
    10    5   23 1   
    11    6    7 ar  
    12    6   20 1   
    13    7    8 ar  
    14    7   21 1   
    15    8    9 1   
    16    9   10 1   
    17    9   24 1   
    18    9   25 1   
    19   10   11 1   
    20   10   22 2   
    21   11   12 1   
    22   11   26 1   
    23   11   27 1   
    24   12   13 1   
    25   12   28 1   
    26   12   29 1   
    27   13   14 1   
    28   13   30 1   
    29   13   31 1   
    30   14   15 2   
    31   14   32 1   
    32   15   16 1   
    33   15   33 1   
    34   16   17 1   
    35   16   34 1   
    36   16   35 1   
    37   17   36 1   
    38   17   37 1   
    39   19   38 1   
    40   20   39 1   
@<TRIPOS>SUBSTRUCTURE
     1 NP5         1 TEMP              0 ****  ****    0 ROOT
