@<TRIPOS>MOLECULE
NP6
   52    53     1     0     0
SMALL
bcc


@<TRIPOS>ATOM
      1 C2         -0.1220   -1.7840    0.8510 c3        1 NP6     -0.103100
      2 C1          1.3090   -1.4440    1.1910 c3        1 NP6     -0.091400
      3 C3          1.6310   -0.0340    0.7370 c3        1 NP6     -0.163400
      4 C4          3.0880    0.3160    0.7900 c         1 NP6      0.565100
      5 O1          3.7590    0.9220   -0.0230 o         1 NP6     -0.397100
      6 N1          3.8190   -0.1630    2.0490 n4        1 NP6     -0.679800
      7 C5          5.2340    0.3020    2.1700 c3        1 NP6      0.067200
      8 C6          6.0400   -0.6050    3.1350 c3        1 NP6      0.128100
      9 O2          5.9310   -1.9130    2.6200 oh        1 NP6     -0.615800
     10 C7          7.4990   -0.1050    3.1440 c3        1 NP6      0.089100
     11 O3          8.1710   -0.9750    4.0330 oh        1 NP6     -0.577800
     12 C8          7.5160    1.3250    3.6890 c3        1 NP6      0.078100
     13 C9          8.8940    1.9970    3.5720 c3        1 NP6      0.135400
     14 O4          8.8990    3.1920    4.3140 oh        1 NP6     -0.591800
     15 O5          6.6450    2.1950    2.9270 os        1 NP6     -0.419400
     16 C10         5.3920    1.7520    2.5980 c2        1 NP6      0.582600
     17 N2          4.4090    2.6240    2.4810 n2        1 NP6     -0.439200
     18 O6          4.5800    3.8710    2.8820 os        1 NP6     -0.125600
     19 C11         5.5510    4.6850    2.3010 c         1 NP6      0.595100
     20 O7          6.2910    4.3510    1.3950 o         1 NP6     -0.370000
     21 N3          5.5590    6.0250    2.9530 n4        1 NP6     -0.482200
     22 C12         4.9940    7.0670    2.0820 ca        1 NP6     -0.080400
     23 C13         3.7220    7.5930    2.3730 ca        1 NP6     -0.091500
     24 C14         3.2200    8.6150    1.5700 ca        1 NP6     -0.100000
     25 C15         3.9650    9.1020    0.4930 ca        1 NP6     -0.053000
     26 C16         5.2220    8.5650    0.2080 ca        1 NP6     -0.100000
     27 C17         5.7490    7.5420    0.9940 ca        1 NP6     -0.091500
     28 H21C       -0.2880   -1.7530   -0.2530 hc        1 NP6      0.066367
     29 H22C       -0.3600   -2.8150    1.2120 hc        1 NP6      0.066367
     30 H23C       -0.8280   -1.0680    1.3380 hc        1 NP6      0.066367
     31 H11C        1.9920   -2.1780    0.6860 hc        1 NP6      0.050200
     32 H12C        1.4520   -1.5410    2.3000 hc        1 NP6      0.050200
     33 H31C        1.0660    0.7190    1.3560 hc        1 NP6      0.129700
     34 H32C        1.3080    0.1040   -0.3370 hc        1 NP6      0.129700
     35 H1          3.2750    0.1230    2.8700 hn        1 NP6      0.479800
     36 H5          5.6990    0.2200    1.1300 hx        1 NP6      0.169700
     37 H6          5.6210   -0.5700    4.1810 h1        1 NP6      0.088700
     38 H2          6.5820   -2.4680    3.0840 ho        1 NP6      0.480000
     39 H7          7.9390   -0.1490    2.1100 h1        1 NP6      0.089700
     40 H3          9.1030   -1.0100    3.7720 ho        1 NP6      0.447000
     41 H8          7.1590    1.3430    4.7570 h1        1 NP6      0.095700
     42 H91C        9.6730    1.2690    3.9220 h1        1 NP6      0.085200
     43 H92C        9.0900    2.3000    2.5070 h1        1 NP6      0.085200
     44 H4          9.2220    2.9930    5.2040 ho        1 NP6      0.427000
     45 HA          5.0210    5.9840    3.8310 hn        1 NP6      0.487300
     46 H13         3.1200    7.2230    3.2200 ha        1 NP6      0.163000
     47 H17         6.7390    7.1200    0.7530 ha        1 NP6      0.163000
     48 H14         2.2270    9.0420    1.7950 ha        1 NP6      0.181000
     49 H15         3.5580    9.9160   -0.1340 ha        1 NP6      0.182000
     50 H16         5.8090    8.9500   -0.6440 ha        1 NP6      0.181000
     51 H12         3.8390   -1.1990    2.0230 hn        1 NP6      0.479800
     52 H32         6.5440    6.2630    3.1600 hn        1 NP6      0.487300
@<TRIPOS>BOND
     1    1    2 1   
     2    1   28 1   
     3    1   29 1   
     4    1   30 1   
     5    2    3 1   
     6    2   31 1   
     7    2   32 1   
     8    3    4 1   
     9    3   33 1   
    10    3   34 1   
    11    4    5 2   
    12    4    6 1   
    13    6    7 1   
    14    6   35 1   
    15    6   51 1   
    16    7    8 1   
    17    7   16 1   
    18    7   36 1   
    19    8    9 1   
    20    8   10 1   
    21    8   37 1   
    22    9   38 1   
    23   10   11 1   
    24   10   12 1   
    25   10   39 1   
    26   11   40 1   
    27   12   13 1   
    28   12   15 1   
    29   12   41 1   
    30   13   14 1   
    31   13   42 1   
    32   13   43 1   
    33   14   44 1   
    34   15   16 1   
    35   16   17 2   
    36   17   18 1   
    37   18   19 1   
    38   19   20 2   
    39   19   21 1   
    40   21   22 1   
    41   21   45 1   
    42   21   52 1   
    43   22   23 ar  
    44   22   27 ar  
    45   23   24 ar  
    46   23   46 1   
    47   24   25 ar  
    48   24   48 1   
    49   25   26 ar  
    50   25   49 1   
    51   26   27 ar  
    52   26   50 1   
    53   27   47 1   
@<TRIPOS>SUBSTRUCTURE
     1 NP6         1 TEMP              0 ****  ****    0 ROOT
