@<TRIPOS>MOLECULE
NP6
   51    52     1     0     0
SMALL
bcc


@<TRIPOS>ATOM
      1 C2          0.2810    0.9250    0.0910 c3        1 NP6     -0.102100
      2 C1          1.5010    0.0450    0.1770 c3        1 NP6     -0.077400
      3 C3          2.3380    0.4270    1.3860 c3        1 NP6     -0.162400
      4 C4          3.6050   -0.3690    1.4150 c         1 NP6      0.573100
      5 O1          4.2180   -0.8860    0.4980 o         1 NP6     -0.414100
      6 N1          4.2300   -0.5630    2.8010 n4        1 NP6     -0.675800
      7 C5          5.6890   -0.2290    2.8330 c3        1 NP6      0.080200
      8 C6          6.3440   -0.6870    4.1590 c3        1 NP6      0.128100
      9 O2          6.0710   -2.0680    4.2880 oh        1 NP6     -0.624800
     10 C7          7.8530   -0.3980    4.0590 c3        1 NP6      0.099100
     11 O3          8.3720   -0.7770    5.3190 oh        1 NP6     -0.601800
     12 C8          8.0870    1.0950    3.7880 c3        1 NP6      0.064100
     13 C9          9.5610    1.3790    3.4500 c3        1 NP6      0.129400
     14 O4         10.3680    1.0160    4.5460 oh        1 NP6     -0.594800
     15 O5          7.3580    1.5440    2.6300 os        1 NP6     -0.398400
     16 C10         6.0050    1.2500    2.6530 c2        1 NP6      0.516600
     17 N2          5.0470    2.1100    2.4330 n2        1 NP6     -0.433200
     18 O6          5.3600    3.3680    2.2580 os        1 NP6     -0.200600
     19 C11         4.2970    4.2260    1.7740 c         1 NP6      0.769100
     20 O7          3.2670    3.7090    1.3360 o         1 NP6     -0.537000
     21 N3          4.6810    5.5260    1.9560 n         1 NP6     -0.412100
     22 C12         4.0280    6.6250    1.3420 ca        1 NP6      0.030600
     23 C13         2.6860    6.5620    0.9230 ca        1 NP6     -0.148500
     24 C14         2.0820    7.6900    0.3720 ca        1 NP6     -0.101500
     25 C15         2.7910    8.8810    0.2310 ca        1 NP6     -0.126000
     26 C16         4.1220    8.9460    0.6430 ca        1 NP6     -0.101500
     27 C17         4.7480    7.8320    1.1920 ca        1 NP6     -0.148500
     28 H21C       -0.3230    0.6420   -0.8060 hc        1 NP6      0.054700
     29 H22C        0.5720    2.0000   -0.0030 hc        1 NP6      0.054700
     30 H23C       -0.3600    0.8080    0.9980 hc        1 NP6      0.054700
     31 H11C        1.1940   -1.0310    0.2530 hc        1 NP6      0.065200
     32 H12C        2.1190    0.1530   -0.7550 hc        1 NP6      0.065200
     33 H31C        2.6230    1.5230    1.3200 hc        1 NP6      0.121700
     34 H32C        1.7380    0.2850    2.3250 hc        1 NP6      0.121700
     35 H1          4.1480   -1.5550    3.0730 hn        1 NP6      0.469300
     36 H5          6.1710   -0.7870    1.9670 hx        1 NP6      0.155700
     37 H6          5.9080   -0.1360    5.0400 h1        1 NP6      0.081700
     38 H2          6.6990   -2.4290    4.9350 ho        1 NP6      0.471000
     39 H7          8.3140   -1.0200    3.2410 h1        1 NP6      0.077700
     40 H3          9.3380   -0.6780    5.2820 ho        1 NP6      0.458000
     41 H8          7.7650    1.6970    4.6810 h1        1 NP6      0.077700
     42 H91C        9.9000    0.7290    2.5990 h1        1 NP6      0.080200
     43 H92C        9.6830    2.4570    3.1720 h1        1 NP6      0.080200
     44 H4         10.3480    1.7400    5.1860 ho        1 NP6      0.422000
     45 HA          5.6090    5.6890    2.2890 hn        1 NP6      0.345500
     46 H13         2.1060    5.6300    1.0230 ha        1 NP6      0.149000
     47 H17         5.8000    7.9070    1.5100 ha        1 NP6      0.149000
     48 H14         1.0310    7.6330    0.0470 ha        1 NP6      0.147500
     49 H15         2.3050    9.7670   -0.2050 ha        1 NP6      0.149000
     50 H16         4.6880    9.8840    0.5330 ha        1 NP6      0.147500
     51 H12         3.7270    0.0070    3.4870 hn        1 NP6      0.469300
@<TRIPOS>BOND
     1    1    2 1   
     2    1   28 1   
     3    1   29 1   
     4    1   30 1   
     5    2    3 1   
     6    2   31 1   
     7    2   32 1   
     8    3    4 1   
     9    3   33 1   
    10    3   34 1   
    11    4    5 2   
    12    4    6 1   
    13    6    7 1   
    14    6   35 1   
    15    6   51 1   
    16    7    8 1   
    17    7   16 1   
    18    7   36 1   
    19    8    9 1   
    20    8   10 1   
    21    8   37 1   
    22    9   38 1   
    23   10   11 1   
    24   10   12 1   
    25   10   39 1   
    26   11   40 1   
    27   12   13 1   
    28   12   15 1   
    29   12   41 1   
    30   13   14 1   
    31   13   42 1   
    32   13   43 1   
    33   14   44 1   
    34   15   16 1   
    35   16   17 2   
    36   17   18 1   
    37   18   19 1   
    38   19   20 2   
    39   19   21 1   
    40   21   22 1   
    41   21   45 1   
    42   22   23 ar  
    43   22   27 ar  
    44   23   24 ar  
    45   23   46 1   
    46   24   25 ar  
    47   24   48 1   
    48   25   26 ar  
    49   25   49 1   
    50   26   27 ar  
    51   26   50 1   
    52   27   47 1   
@<TRIPOS>SUBSTRUCTURE
     1 NP6         1 TEMP              0 ****  ****    0 ROOT
