@<TRIPOS>MOLECULE
NP6
   51    52     1     0     0
SMALL
bcc


@<TRIPOS>ATOM
      1 C2          0.2790    0.9110    0.1030 c3        1 NP6     -0.102100
      2 C1          1.5030    0.0340    0.1860 c3        1 NP6     -0.077400
      3 C3          2.3420    0.4200    1.3930 c3        1 NP6     -0.162400
      4 C4          3.6110   -0.3730    1.4180 c         1 NP6      0.573100
      5 O1          4.2230   -0.8880    0.4990 o         1 NP6     -0.414100
      6 N1          4.2400   -0.5650    2.8020 ny        1 NP6     -0.675800
      7 C5          5.6990   -0.2260    2.8310 c3        1 NP6      0.080200
      8 C6          6.3580   -0.6830    4.1540 c3        1 NP6      0.128100
      9 O2          6.0900   -2.0640    4.2840 oh        1 NP6     -0.624800
     10 C7          7.8670   -0.3890    4.0510 c3        1 NP6      0.099100
     11 O3          8.3900   -0.7660    5.3080 oh        1 NP6     -0.601800
     12 C8          8.0950    1.1040    3.7790 c3        1 NP6      0.064100
     13 C9          9.5670    1.3930    3.4370 c3        1 NP6      0.129400
     14 O4         10.3790    1.0320    4.5310 oh        1 NP6     -0.594800
     15 O5          7.3620    1.5520    2.6230 os        1 NP6     -0.398400
     16 C10         6.0100    1.2540    2.6500 c2        1 NP6      0.516600
     17 N2          5.0480    2.1100    2.4330 n2        1 NP6     -0.433200
     18 O6          5.3570    3.3700    2.2570 os        1 NP6     -0.200600
     19 C11         4.2900    4.2250    1.7760 c         1 NP6      0.769100
     20 O7          3.2610    3.7040    1.3390 o         1 NP6     -0.537000
     21 N3          4.6700    5.5260    1.9570 ns        1 NP6     -0.412100
     22 C12         4.0130    6.6230    1.3450 ca        1 NP6      0.030600
     23 C13         2.6700    6.5550    0.9280 ca        1 NP6     -0.148500
     24 C14         2.0620    7.6820    0.3780 ca        1 NP6     -0.101500
     25 C15         2.7670    8.8750    0.2370 ca        1 NP6     -0.126000
     26 C16         4.0980    8.9440    0.6480 ca        1 NP6     -0.101500
     27 C17         4.7290    7.8320    1.1960 ca        1 NP6     -0.148500
     28 H21C       -0.3590    0.7930    1.0120 hc        1 NP6      0.054700
     29 H22C        0.5670    1.9860    0.0080 hc        1 NP6      0.054700
     30 H23C       -0.3270    0.6260   -0.7920 hc        1 NP6      0.054700
     31 H11C        1.1990   -1.0430    0.2640 hc        1 NP6      0.065200
     32 H12C        2.1170    0.1440   -0.7480 hc        1 NP6      0.065200
     33 H31C        2.6230    1.5170    1.3250 hc        1 NP6      0.121700
     34 H32C        1.7460    0.2770    2.3330 hc        1 NP6      0.121700
     35 H1          4.1620   -1.5570    3.0740 hn        1 NP6      0.469300
     36 H5          6.1800   -0.7830    1.9630 hx        1 NP6      0.155700
     37 H6          5.9230   -0.1330    5.0370 h1        1 NP6      0.081700
     38 H2          6.7210   -2.4240    4.9290 ho        1 NP6      0.471000
     39 H7          8.3270   -1.0100    3.2320 h1        1 NP6      0.077700
     40 H3          9.3550   -0.6650    5.2690 ho        1 NP6      0.458000
     41 H8          7.7740    1.7060    4.6730 h1        1 NP6      0.077700
     42 H91C        9.9060    0.7430    2.5850 h1        1 NP6      0.080200
     43 H92C        9.6860    2.4710    3.1580 h1        1 NP6      0.080200
     44 H4         10.3590    1.7560    5.1710 ho        1 NP6      0.422000
     45 HA          5.5980    5.6920    2.2900 hn        1 NP6      0.345500
     46 H13         2.0940    5.6210    1.0270 ha        1 NP6      0.149000
     47 H17         5.7800    7.9100    1.5130 ha        1 NP6      0.149000
     48 H14         1.0110    7.6210    0.0540 ha        1 NP6      0.147500
     49 H15         2.2770    9.7600   -0.1970 ha        1 NP6      0.149000
     50 H16         4.6600    9.8850    0.5380 ha        1 NP6      0.147500
     51 H12         3.7370    0.0040    3.4890 hn        1 NP6      0.469300
@<TRIPOS>BOND
     1    1    2 1   
     2    1   28 1   
     3    1   29 1   
     4    1   30 1   
     5    2    3 1   
     6    2   31 1   
     7    2   32 1   
     8    3    4 1   
     9    3   33 1   
    10    3   34 1   
    11    4    5 2   
    12    4    6 1   
    13    6    7 1   
    14    6   35 1   
    15    6   51 1   
    16    7    8 1   
    17    7   16 1   
    18    7   36 1   
    19    8    9 1   
    20    8   10 1   
    21    8   37 1   
    22    9   38 1   
    23   10   11 1   
    24   10   12 1   
    25   10   39 1   
    26   11   40 1   
    27   12   13 1   
    28   12   15 1   
    29   12   41 1   
    30   13   14 1   
    31   13   42 1   
    32   13   43 1   
    33   14   44 1   
    34   15   16 1   
    35   16   17 2   
    36   17   18 1   
    37   18   19 1   
    38   19   20 2   
    39   19   21 1   
    40   21   22 1   
    41   21   45 1   
    42   22   23 ar  
    43   22   27 ar  
    44   23   24 ar  
    45   23   46 1   
    46   24   25 ar  
    47   24   48 1   
    48   25   26 ar  
    49   25   49 1   
    50   26   27 ar  
    51   26   50 1   
    52   27   47 1   
@<TRIPOS>SUBSTRUCTURE
     1 NP6         1 TEMP              0 ****  ****    0 ROOT
