@<TRIPOS>MOLECULE
NP6
   50    48     1     0     0
SMALL
bcc


@<TRIPOS>ATOM
      1 C2         -6.5700    0.1690    3.1020 c3        1 NP6     -0.213000
      2 C1         -5.1080    0.5200    3.2800 c3        1 NP6     -0.158000
      3 C3         -4.2840   -0.2110    2.2430 c3        1 NP6     -0.180000
      4 C4         -2.8650    0.3150    2.2650 c2        1 NP6      0.311000
      5 O1         -2.3080    0.5180    3.3250 o         1 NP6     -0.373000
      6 N1         -2.1840    0.5730    1.0450 n         1 NP6     -0.376000
      7 C5         -0.8330    1.0760    1.0650 c3        1 NP6      0.043000
      8 C6         -0.8010    2.5800    1.1460 c3        1 NP6      0.017000
      9 O2          0.5390    2.9990    1.4710 oh        1 NP6     -0.320000
     10 C7         -1.2120    3.2330   -0.1330 c3        1 NP6      0.004000
     11 O3         -2.6070    2.9830   -0.3540 oh        1 NP6     -0.335000
     12 C8         -0.4280    2.7190   -1.3260 c3        1 NP6      0.010000
     13 C9          1.0060    3.1960   -1.2100 c3        1 NP6     -0.055000
     14 O4          1.4540    3.6520   -2.4690 oh        1 NP6     -0.338000
     15 O5         -0.4310    1.2850   -1.4260 os        1 NP6     -0.219000
     16 C10        -0.0340    0.6260   -0.1910 c2        1 NP6      0.053000
     17 N2          0.9150   -0.2700   -0.1410 n1        1 NP6     -0.083000
     18 O6          1.5810   -0.6230   -1.2810 o         1 NP6     -0.253500
     19 C11         2.2580   -1.8400   -1.0800 c2        1 NP6      0.418000
     20 O7          1.6330   -2.8470   -0.8130 o         1 NP6     -0.253500
     21 N3          3.6720   -1.8950   -1.2080 n         1 NP6     -0.310000
     22 C12         4.2900   -3.0460   -1.7660 c2        1 NP6      0.079000
     23 C13         4.9310   -3.9570   -0.9400 c2        1 NP6     -0.159000
     24 C14         5.6100   -5.0330   -1.4900 c1        1 NP6     -0.103000
     25 C15         5.6480   -5.1980   -2.8650 c1        1 NP6     -0.128500
     26 C16         5.0080   -4.2880   -3.6910 c1        1 NP6     -0.128500
     27 C17         4.3290   -3.2120   -3.1410 c1        1 NP6     -0.176000
     28 H21C       -6.8290    0.3130    2.1670 hc        1 NP6      0.077333
     29 H22C       -6.7110   -0.7710    3.3390 hc        1 NP6      0.077333
     30 H23C       -7.1150    0.7380    3.6840 hc        1 NP6      0.077333
     31 H11C       -4.8150    0.2540    4.1750 hc        1 NP6      0.088000
     32 H12C       -4.9880    1.4840    3.1710 hc        1 NP6      0.088000
     33 H31C       -4.6720   -0.0650    1.3580 hc        1 NP6      0.114500
     34 H32C       -4.2810   -1.1670    2.4440 hc        1 NP6      0.114500
     35 H1         -2.6110    0.4430    0.2480 hn        1 NP6      0.251000
     36 H5         -0.4860    0.6630    1.8810 h1        1 NP6      0.154000
     37 H6         -1.4050    2.8710    1.8570 h1        1 NP6      0.112000
     38 H2          0.5360    3.4180    2.2540 ho        1 NP6      0.216000
     39 H7         -1.0710    4.1990   -0.0550 h1        1 NP6      0.125000
     40 H3         -3.0330    3.7570   -0.4580 ho        1 NP6      0.216000
     41 H8         -0.8180    3.0910   -2.1420 h1        1 NP6      0.137000
     42 H91C        1.0550    3.9290   -0.5600 h1        1 NP6      0.098000
     43 H92C        1.5730    2.4570   -0.9100 h1        1 NP6      0.098000
     44 H4          2.2750    3.9880   -2.3890 ho        1 NP6      0.212000
     45 HA          4.1800   -1.1770   -0.9640 hn        1 NP6      0.261000
     46 H13         4.9030   -3.8400    0.0280 ha        1 NP6      0.172000
     47 H17         3.8780   -2.5700   -3.7230 ha        1 NP6      0.135000
     48 H14         6.0600   -5.6740   -0.9090 ha        1 NP6      0.136000
     49 H15         6.1270   -5.9560   -3.2520 ha        1 NP6      0.134000
     50 H16         5.0360   -4.4050   -4.6610 ha        1 NP6      0.134000
@<TRIPOS>BOND
     1    1    2 1   
     2    1   28 1   
     3    1   29 1   
     4    1   30 1   
     5    2    3 1   
     6    2   31 1   
     7    2   32 1   
     8    3    4 1   
     9    3   33 1   
    10    3   34 1   
    11    4    5 1   
    12    4    6 1   
    13    6    7 1   
    14    6   35 1   
    15    7    8 1   
    16    7   16 1   
    17    7   36 1   
    18    8    9 1   
    19    8   10 1   
    20    8   37 1   
    21    9   38 1   
    22   10   11 1   
    23   10   12 1   
    24   10   39 1   
    25   11   40 1   
    26   12   13 1   
    27   12   15 1   
    28   12   41 1   
    29   13   14 1   
    30   13   42 1   
    31   13   43 1   
    32   14   44 1   
    33   15   16 1   
    34   16   17 1   
    35   18   19 1   
    36   19   20 1   
    37   19   21 1   
    38   21   22 1   
    39   21   45 1   
    40   22   23 1   
    41   22   27 1   
    42   23   24 1   
    43   23   46 1   
    44   24   48 1   
    45   25   26 1   
    46   25   49 1   
    47   26   50 1   
    48   27   47 1   
@<TRIPOS>SUBSTRUCTURE
     1 NP6         1 TEMP              0 ****  ****    0 ROOT
