@<TRIPOS>MOLECULE
NP6
   50    51     1     0     0
SMALL
bcc


@<TRIPOS>ATOM
      1 C2          0.4140    6.1810    0.4030 c3        1 NP6     -0.095100
      2 C1          1.0660    4.8300    0.5470 c3        1 NP6     -0.078400
      3 C3          0.0820    3.8090    1.0780 c3        1 NP6     -0.152400
      4 C4          0.7500    2.4780    1.3670 c         1 NP6      0.670100
      5 O1          0.8380    2.0270    2.5240 o         1 NP6     -0.598100
      6 N1          1.2360    1.7650    0.2820 n         1 NP6     -0.555900
      7 C5          1.9640    0.5410    0.4350 c3        1 NP6      0.078400
      8 C6          3.2750    0.5060   -0.3980 c3        1 NP6      0.132100
      9 O2          4.0690    1.6050    0.0060 oh        1 NP6     -0.588800
     10 C7          4.0130   -0.8170   -0.1170 c3        1 NP6      0.077100
     11 O3          5.1550   -0.7840   -0.9600 oh        1 NP6     -0.598800
     12 C8          3.1110   -2.0070   -0.4520 c3        1 NP6      0.069100
     13 C9          3.7110   -3.3380    0.0180 c3        1 NP6      0.138400
     14 O4          3.0260   -4.4320   -0.5450 oh        1 NP6     -0.588800
     15 O5          1.8630   -1.9130    0.2540 os        1 NP6     -0.439400
     16 C10         1.1770   -0.7180    0.0500 c2        1 NP6      0.539600
     17 N2         -0.0680   -0.7040   -0.3470 n2        1 NP6     -0.463200
     18 O6         -0.5920   -1.8760   -0.6690 os        1 NP6     -0.173600
     19 C11        -2.0010   -1.9860   -0.8230 c         1 NP6      0.765100
     20 O7         -2.2550   -3.0730   -1.3530 o         1 NP6     -0.512000
     21 N3         -2.8460   -0.9920   -0.3830 n         1 NP6     -0.457100
     22 C12        -4.2510   -1.0300   -0.4700 ca        1 NP6      0.071600
     23 C13        -4.9570   -2.0830   -1.0870 ca        1 NP6     -0.167500
     24 C14        -6.3480   -2.0490   -1.1390 ca        1 NP6     -0.102500
     25 C15        -7.0590   -0.9840   -0.5900 ca        1 NP6     -0.153000
     26 C16        -6.3680    0.0610    0.0210 ca        1 NP6     -0.102500
     27 C17        -4.9800    0.0490    0.0870 ca        1 NP6     -0.167500
     28 H21C        0.0470    6.5500    1.3910 hc        1 NP6      0.038033
     29 H22C        1.1490    6.9210    0.0020 hc        1 NP6      0.038033
     30 H23C       -0.4540    6.1300   -0.2970 hc        1 NP6      0.038033
     31 H11C        1.4630    4.4990   -0.4490 hc        1 NP6      0.049200
     32 H12C        1.9410    4.9040    1.2450 hc        1 NP6      0.049200
     33 H31C       -0.3630    4.1740    2.0420 hc        1 NP6      0.073200
     34 H32C       -0.7560    3.6600    0.3480 hc        1 NP6      0.073200
     35 H1          1.2040    2.1690   -0.6220 hn        1 NP6      0.319500
     36 H5          2.2280    0.4160    1.5340 h1        1 NP6      0.127700
     37 H6          3.0520    0.5820   -1.4990 h1        1 NP6      0.058700
     38 H2          4.9220    1.5040   -0.4410 ho        1 NP6      0.427000
     39 H7          4.3280   -0.8560    0.9630 h1        1 NP6      0.068700
     40 H3          5.7000   -1.5480   -0.7330 ho        1 NP6      0.417000
     41 H8          2.9050   -2.0430   -1.5570 h1        1 NP6      0.084700
     42 H91C        4.7660   -3.4310   -0.3560 h1        1 NP6      0.055700
     43 H92C        3.6910   -3.3920    1.1390 h1        1 NP6      0.055700
     44 H4          2.1000   -4.3630   -0.2730 ho        1 NP6      0.424000
     45 HA         -2.4530   -0.1820    0.0450 hn        1 NP6      0.345500
     46 H13        -4.4210   -2.9400   -1.5280 ha        1 NP6      0.152500
     47 H17        -4.4580    0.8850    0.5780 ha        1 NP6      0.152500
     48 H14        -6.8860   -2.8780   -1.6230 ha        1 NP6      0.135500
     49 H15        -8.1570   -0.9680   -0.6370 ha        1 NP6      0.135000
     50 H16        -6.9220    0.9040    0.4600 ha        1 NP6      0.135500
@<TRIPOS>BOND
     1    1    2 1   
     2    1   28 1   
     3    1   29 1   
     4    1   30 1   
     5    2    3 1   
     6    2   31 1   
     7    2   32 1   
     8    3    4 1   
     9    3   33 1   
    10    3   34 1   
    11    4    5 2   
    12    4    6 1   
    13    6    7 1   
    14    6   35 1   
    15    7    8 1   
    16    7   16 1   
    17    7   36 1   
    18    8    9 1   
    19    8   10 1   
    20    8   37 1   
    21    9   38 1   
    22   10   11 1   
    23   10   12 1   
    24   10   39 1   
    25   11   40 1   
    26   12   13 1   
    27   12   15 1   
    28   12   41 1   
    29   13   14 1   
    30   13   42 1   
    31   13   43 1   
    32   14   44 1   
    33   15   16 1   
    34   16   17 2   
    35   17   18 1   
    36   18   19 1   
    37   19   20 2   
    38   19   21 1   
    39   21   22 1   
    40   21   45 1   
    41   22   23 ar  
    42   22   27 ar  
    43   23   24 ar  
    44   23   46 1   
    45   24   25 ar  
    46   24   48 1   
    47   25   26 ar  
    48   25   49 1   
    49   26   27 ar  
    50   26   50 1   
    51   27   47 1   
@<TRIPOS>SUBSTRUCTURE
     1 NP6         1 TEMP              0 ****  ****    0 ROOT
