@<TRIPOS>MOLECULE
NP7
   45    47     1     0     0
SMALL
bcc


@<TRIPOS>ATOM
      1 CAA         0.5750    0.1740   -0.7790 c3        1 NP7      0.157100
      2 OAB         6.2360   -5.3250    3.1100 o         1 NP7     -0.569100
      3 OAC         8.1650   -0.6930    6.3050 o         1 NP7     -0.205000
      4 OAD         8.6580   -2.6070    5.5860 o         1 NP7     -0.205000
      5 CAF         4.2150   -7.7830   -0.7670 ca        1 NP7     -0.100000
      6 CAG         3.9150   -7.9170    0.5890 ca        1 NP7     -0.133000
      7 CAH         4.9840   -6.7090   -1.2120 ca        1 NP7     -0.131000
      8 CAI         4.3800   -6.9730    1.5010 ca        1 NP7     -0.075000
      9 CAJ         6.1720   -0.3110    4.4410 ca        1 NP7     -0.094000
     10 CAK         5.1670   -0.2190    3.4890 ca        1 NP7     -0.142000
     11 CAL         6.6200   -2.5980    3.7120 ca        1 NP7     -0.103000
     12 CAM         2.9460   -0.0230   -0.3820 c3        1 NP7      0.166800
     13 CAN         1.3730   -0.9830    1.1820 c3        1 NP7      0.166800
     14 CAO         4.0670   -0.1300    0.6710 c3        1 NP7      0.169800
     15 CAP         2.4860   -1.0970    2.2410 c3        1 NP7      0.169800
     16 CAR         5.6230   -4.9230    2.1060 c         1 NP7      0.681700
     17 CAS         5.4470   -5.7560   -0.2980 ca        1 NP7      0.040400
     18 CAT         6.8950   -1.5070    4.5410 ca        1 NP7     -0.151200
     19 CAU         5.5920   -2.5150    2.7480 ca        1 NP7      0.089600
     20 CAV         5.1400   -5.8810    1.0630 ca        1 NP7     -0.141600
     21 CAW         4.8530   -1.2900    2.6340 ca        1 NP7      0.075600
     22 NAX         1.6210    0.0750    0.2120 n3        1 NP7     -0.733600
     23 NAY         3.8160   -1.1870    1.6450 nh        1 NP7     -0.637000
     24 HAA        -0.4040    0.3350   -0.2560 h1        1 NP7      0.034700
     25 HAAA        0.7830    1.0590   -1.4360 h1        1 NP7      0.034700
     26 HAAB        0.4870   -0.7400   -1.4290 h1        1 NP7      0.034700
     27 HAF         3.8510   -8.5290   -1.4890 ha        1 NP7      0.143000
     28 HAG         3.3180   -8.7710    0.9410 ha        1 NP7      0.145000
     29 HAH         5.2300   -6.6120   -2.2810 ha        1 NP7      0.153000
     30 HAI         4.1680   -7.0820    2.5770 ha        1 NP7      0.158000
     31 HAJ         6.3960    0.5400    5.1060 ha        1 NP7      0.172000
     32 HAK         4.5980    0.7230    3.4100 ha        1 NP7      0.151000
     33 HAL         7.2120   -3.5290    3.8230 ha        1 NP7      0.207000
     34 HAM         3.1270    0.9140   -0.9780 h1        1 NP7      0.039950
     35 HAMA        3.0250   -0.9020   -1.0860 h1        1 NP7      0.039950
     36 HAN         0.4140   -0.7390    1.7200 h1        1 NP7      0.039950
     37 HANA        1.2440   -1.9870    0.6810 h1        1 NP7      0.039950
     38 HAO         5.0260   -0.3770    0.1360 h1        1 NP7      0.046200
     39 HAOA        4.1930    0.8760    1.1670 h1        1 NP7      0.046200
     40 HAP         2.3100   -2.0380    2.8330 h1        1 NP7      0.046200
     41 HAPA        2.4070   -0.2200    2.9470 h1        1 NP7      0.046200
     42 HNAQ        4.7500   -3.3750    1.0890 hn        1 NP7      0.346500
     43 NAZ         7.9850   -1.6130    5.5510 no        1 NP7      0.312200
     44 NAQ         5.3040   -3.5870    1.8920 n         1 NP7     -0.457100
     45 CLAE        6.4020   -4.4740   -0.8760 cl        1 NP7     -0.078400
@<TRIPOS>BOND
     1    1   22 1   
     2    1   24 1   
     3    1   25 1   
     4    1   26 1   
     5    2   16 2   
     6    3   43 1   
     7    4   43 1   
     8    5    6 ar  
     9    5    7 ar  
    10    5   27 1   
    11    6    8 ar  
    12    6   28 1   
    13    7   17 ar  
    14    7   29 1   
    15    8   20 ar  
    16    8   30 1   
    17    9   10 ar  
    18    9   18 ar  
    19    9   31 1   
    20   10   21 ar  
    21   10   32 1   
    22   11   18 ar  
    23   11   19 ar  
    24   11   33 1   
    25   12   14 1   
    26   12   22 1   
    27   12   34 1   
    28   12   35 1   
    29   13   15 1   
    30   13   22 1   
    31   13   36 1   
    32   13   37 1   
    33   14   23 1   
    34   14   38 1   
    35   14   39 1   
    36   15   23 1   
    37   15   40 1   
    38   15   41 1   
    39   16   20 1   
    40   16   44 1   
    41   17   20 ar  
    42   17   45 1   
    43   18   43 1   
    44   19   21 ar  
    45   19   44 1   
    46   21   23 1   
    47   42   44 1   
@<TRIPOS>SUBSTRUCTURE
     1 NP7         1 TEMP              0 ****  ****    0 ROOT
