@<TRIPOS>MOLECULE
NP7
   45    42     1     0     0
SMALL
bcc


@<TRIPOS>ATOM
      1 CAA        -4.7060   -2.2480   -3.0040 c3        1 NP7     -0.119000
      2 OAB         2.0590    0.7470    2.4500 o         1 NP7     -0.327000
      3 OAC         4.6560   -1.1920    1.3580 o         1 NP7     -0.487200
      4 OAD         4.5450   -3.3570    0.8050 o         1 NP7     -0.487200
      5 CLAE        0.6030    4.5870   -0.0090 cl        1 NP7     -0.004000
      6 CAF         2.5760    5.1060    2.9520 c1        1 NP7     -0.117000
      7 CAG         2.6980    3.9650    3.7280 c1        1 NP7     -0.117000
      8 CAH         1.6910    5.1280    1.8930 c1        1 NP7     -0.130000
      9 CAI         1.9330    2.8470    3.4400 c1        1 NP7     -0.074000
     10 CAJ         1.9750   -2.8530   -0.2530 c1        1 NP7     -0.117000
     11 CAK         0.6990   -2.5870   -0.7550 c1        1 NP7     -0.117000
     12 CAL         2.0300   -0.6740    0.7720 c1        1 NP7     -0.100000
     13 CAM        -2.4140   -1.4660   -3.1320 c3        1 NP7     -0.070000
     14 CAN        -3.4950   -1.3620   -1.1000 c3        1 NP7     -0.070000
     15 CAO        -1.0740   -1.3610   -2.4140 c3        1 NP7     -0.066000
     16 CAP        -2.1500   -1.2570   -0.4000 c3        1 NP7     -0.066000
     17 NAQ         0.5220    0.9660    0.7760 n         1 NP7     -0.309000
     18 CAR         1.2530    1.4530    1.9090 c2        1 NP7      0.353000
     19 CAS         0.9280    4.0130    1.6070 c2        1 NP7     -0.039000
     20 CAT         2.6390   -1.8910    0.5120 c1        1 NP7     -0.107000
     21 CAU         0.7630   -0.4120    0.2730 c1        1 NP7      0.093000
     22 CAV         1.0510    2.8700    2.3850 c2        1 NP7     -0.119000
     23 CAW         0.0960   -1.3800   -0.4970 c1        1 NP7     -0.003000
     24 NAX        -3.4580   -2.2990   -2.3380 n3        1 NP7     -0.259000
     25 NAY        -1.1950   -1.6150   -1.1720 n3        1 NP7     -0.240000
     26 NAZ         3.9920   -2.1140    0.9210 no        1 NP7      0.830400
     27 HAA        -5.4130   -2.5610   -2.3980 h1        1 NP7      0.074000
     28 HAAA       -4.8950   -1.3150   -3.2800 h1        1 NP7      0.074000
     29 HAAB       -4.6760   -2.8160   -3.7870 h1        1 NP7      0.074000
     30 HAF         3.1140    5.8910    3.1540 ha        1 NP7      0.153250
     31 HAG         3.3260    3.9480    4.4790 ha        1 NP7      0.153250
     32 HAH         1.6050    5.9340    1.3440 ha        1 NP7      0.153000
     33 HAI         2.0190    2.0400    3.9890 ha        1 NP7      0.157000
     34 HAJ         2.4090   -3.7230   -0.4400 ha        1 NP7      0.153250
     35 HAK         0.2360   -3.2570   -1.2880 ha        1 NP7      0.153250
     36 HAL         2.4980    0.0050    1.3120 ha        1 NP7      0.205000
     37 HAM        -2.2730   -1.8870   -4.0070 h1        1 NP7      0.079750
     38 HAMA       -2.7730   -0.5560   -3.2720 h1        1 NP7      0.079750
     39 HAN        -4.1490   -1.7040   -0.4700 h1        1 NP7      0.079750
     40 HANA       -3.7710   -0.4710   -1.3870 h1        1 NP7      0.079750
     41 HAO        -0.7200   -0.4520   -2.5240 h1        1 NP7      0.085500
     42 HAOA       -0.4500   -1.9980   -2.8100 h1        1 NP7      0.085500
     43 HAP        -2.0060   -0.3340   -0.1230 h1        1 NP7      0.085500
     44 HAPA       -2.1540   -1.8280    0.3850 h1        1 NP7      0.085500
     45 HNAQ       -0.1450    1.4710    0.4170 hn        1 NP7      0.259000
@<TRIPOS>BOND
     1    1   24 1   
     2    1   27 1   
     3    1   28 1   
     4    1   29 1   
     5    2   18 1   
     6    3   26 2   
     7    4   26 2   
     8    5   19 1   
     9    6    7 1   
    10    6   30 1   
    11    7   31 1   
    12    8   19 1   
    13    8   32 1   
    14    9   22 1   
    15    9   33 1   
    16   10   11 1   
    17   10   34 1   
    18   11   35 1   
    19   12   20 1   
    20   12   36 1   
    21   13   15 1   
    22   13   24 1   
    23   13   37 1   
    24   13   38 1   
    25   14   16 1   
    26   14   24 1   
    27   14   39 1   
    28   14   40 1   
    29   15   25 1   
    30   15   41 1   
    31   15   42 1   
    32   16   25 1   
    33   16   43 1   
    34   16   44 1   
    35   17   18 1   
    36   17   21 1   
    37   17   45 1   
    38   18   22 1   
    39   19   22 1   
    40   20   26 1   
    41   21   23 1   
    42   23   25 1   
@<TRIPOS>SUBSTRUCTURE
     1 NP7         1 TEMP              0 ****  ****    0 ROOT
