@<TRIPOS>MOLECULE
NP7
   45    47     1     0     0
SMALL
bcc


@<TRIPOS>ATOM
      1 CAA        -4.1790    4.4870    0.5000 c3        1 NP7      0.157100
      2 OAB         2.1080   -0.9440   -1.1030 o         1 NP7     -0.570100
      3 OAC        -1.4660   -5.6510   -0.3980 o         1 NP7     -0.206500
      4 OAD         0.5390   -5.0230   -0.3270 o         1 NP7     -0.206500
      5 CAF         4.0560    3.5530   -0.0340 ca        1 NP7     -0.100000
      6 CAG         3.8150    2.9900   -1.2880 ca        1 NP7     -0.134000
      7 CAH         3.5190    2.9690    1.1110 ca        1 NP7     -0.131000
      8 CAI         3.0300    1.8450   -1.3970 ca        1 NP7     -0.075000
      9 CAJ        -2.4620   -3.1040   -0.0480 ca        1 NP7     -0.082000
     10 CAK        -2.8760   -1.7870    0.0930 ca        1 NP7     -0.156000
     11 CAL        -0.1450   -2.3460   -0.1300 ca        1 NP7     -0.089000
     12 CAM        -3.8200    2.3010    1.4550 c3        1 NP7      0.166800
     13 CAN        -2.7950    2.8870   -0.6570 c3        1 NP7      0.166800
     14 CAO        -3.5410    0.8100    1.1770 c3        1 NP7      0.177300
     15 CAP        -2.4970    1.3970   -0.9250 c3        1 NP7      0.177300
     16 CAR         1.6610    0.0170   -0.4520 c         1 NP7      0.680700
     17 CAS         2.7250    1.8210    1.0030 ca        1 NP7      0.039400
     18 CAT        -1.0920   -3.3750   -0.1610 ca        1 NP7     -0.163200
     19 CAU        -0.5580   -1.0060    0.0150 ca        1 NP7      0.067600
     20 CAV         2.4720    1.2580   -0.2550 ca        1 NP7     -0.141600
     21 CAW        -1.9620   -0.7170    0.1230 ca        1 NP7      0.106600
     22 NAX        -3.9260    3.0900    0.2360 n3        1 NP7     -0.733600
     23 NAY        -2.3830    0.6330    0.3120 nh        1 NP7     -0.647000
     24 HAA        -3.3400    4.9970    1.0480 h1        1 NP7      0.034700
     25 HAAA       -4.3400    5.0150   -0.4770 h1        1 NP7      0.034700
     26 HAAB       -5.1130    4.5740    1.1150 h1        1 NP7      0.034700
     27 HAF         4.6780    4.4560    0.0550 ha        1 NP7      0.143000
     28 HAG         4.2490    3.4460   -2.1910 ha        1 NP7      0.145000
     29 HAH         3.7220    3.4070    2.1010 ha        1 NP7      0.154000
     30 HAI         2.8530    1.3790   -2.3800 ha        1 NP7      0.158000
     31 HAJ        -3.2010   -3.9230   -0.0770 ha        1 NP7      0.172000
     32 HAK        -3.9570   -1.5890    0.1740 ha        1 NP7      0.150000
     33 HAL         0.9320   -2.5920   -0.2240 ha        1 NP7      0.204000
     34 HAM        -4.8050    2.3680    1.9950 h1        1 NP7      0.040200
     35 HAMA       -3.0190    2.6990    2.1440 h1        1 NP7      0.040200
     36 HAN        -1.8570    3.3780   -0.2640 h1        1 NP7      0.040200
     37 HANA       -3.0470    3.3650   -1.6450 h1        1 NP7      0.040200
     38 HAO        -3.3300    0.3000    2.1570 h1        1 NP7      0.047450
     39 HAOA       -4.4750    0.3540    0.7340 h1        1 NP7      0.047450
     40 HAP        -3.3070    0.9790   -1.5910 h1        1 NP7      0.047450
     41 HAPA       -1.5210    1.3300   -1.4800 h1        1 NP7      0.047450
     42 HNAQ        0.0900    0.8620    0.5630 hn        1 NP7      0.343500
     43 NAZ        -0.6380   -4.7840   -0.3080 no        1 NP7      0.314200
     44 NAQ         0.3800    0.0360    0.0840 n         1 NP7     -0.463100
     45 CLAE        2.1100    1.1250    2.4260 cl        1 NP7     -0.077400
@<TRIPOS>BOND
     1    1   22 1   
     2    1   24 1   
     3    1   25 1   
     4    1   26 1   
     5    2   16 2   
     6    3   43 1   
     7    4   43 1   
     8    5    6 ar  
     9    5    7 ar  
    10    5   27 1   
    11    6    8 ar  
    12    6   28 1   
    13    7   17 ar  
    14    7   29 1   
    15    8   20 ar  
    16    8   30 1   
    17    9   10 ar  
    18    9   18 ar  
    19    9   31 1   
    20   10   21 ar  
    21   10   32 1   
    22   11   18 ar  
    23   11   19 ar  
    24   11   33 1   
    25   12   14 1   
    26   12   22 1   
    27   12   34 1   
    28   12   35 1   
    29   13   15 1   
    30   13   22 1   
    31   13   36 1   
    32   13   37 1   
    33   14   23 1   
    34   14   38 1   
    35   14   39 1   
    36   15   23 1   
    37   15   40 1   
    38   15   41 1   
    39   16   20 1   
    40   16   44 1   
    41   17   20 ar  
    42   17   45 1   
    43   18   43 1   
    44   19   21 ar  
    45   19   44 1   
    46   21   23 1   
    47   42   44 1   
@<TRIPOS>SUBSTRUCTURE
     1 NP7         1 TEMP              0 ****  ****    0 ROOT
