@<TRIPOS>MOLECULE
NP7
   45    44     1     0     0
SMALL
bcc


@<TRIPOS>ATOM
      1 CAA         1.2280   -1.4600   -1.7200 c1        1 NP7     -0.118000
      2 OAB         5.5590   -5.1420    3.2400 o         1 NP7     -0.331000
      3 OAC         9.3150   -0.7500    5.3500 o         1 NP7     -0.479700
      4 OAD         8.6930   -2.7460    5.6110 o         1 NP7     -0.479700
      5 CAF         6.0520   -8.4080   -1.1760 c1        1 NP7      0.307000
      6 CAG         2.5100   -6.1430    0.1890 c3        1 NP7     -0.245000
      7 CAH         5.3730   -7.4090   -0.6340 c2        1 NP7     -0.494000
      8 CAI         3.5890   -5.2580    0.5280 c1        1 NP7     -0.085000
      9 CAJ         7.6970   -0.1840    3.3270 c2        1 NP7     -0.483000
     10 CAK         8.4560    0.8390    3.7000 c1        1 NP7      0.289000
     11 CAL         6.7240   -2.4660    3.6810 c2        1 NP7     -0.019000
     12 CAM         2.2270    0.8090    0.9830 c3        1 NP7     -0.048000
     13 CAN         1.5970   -1.5110    0.7890 c3        1 NP7     -0.048000
     14 CAO         3.2620    0.4370    2.0620 c3        1 NP7     -0.063500
     15 CAP         2.6510   -1.9030    1.8450 c3        1 NP7     -0.063500
     16 CAR         5.3410   -4.6980    2.1010 c2        1 NP7      0.356000
     17 CAS         5.7260   -6.5260    0.4480 c2        1 NP7      0.090000
     18 CAT         7.5990   -1.4780    3.9740 c2        1 NP7     -0.072000
     19 CAU         5.6440   -2.3320    2.6970 c2        1 NP7     -0.043000
     20 CAV         4.8800   -5.5940    0.9760 c2        1 NP7     -0.194000
     21 CAW         4.8170   -1.2400    2.7670 c2        1 NP7     -0.053000
     22 NAX         1.1430   -0.1480    0.8860 n7        1 NP7     -0.289000
     23 NAY         3.7380   -0.9380    1.9320 n3        1 NP7     -0.242000
     24 HAA         0.5620    0.0650    0.0880 hn        1 NP7      0.198000
     25 HAAA        0.7450   -2.4460   -1.8150 ha        1 NP7      0.012000
     26 HAAB        2.1520   -1.4130   -2.3190 ha        1 NP7      0.012000
     27 HAF         2.7210   -7.2420    0.2400 hc        1 NP7      0.114333
     28 HAG         1.6710   -5.9170    0.9080 hc        1 NP7      0.114333
     29 HAH         4.3640   -7.2470   -1.0870 ha        1 NP7      0.207000
     30 HAI         2.1350   -5.8840   -0.8380 hc        1 NP7      0.114333
     31 HAJ         7.0890   -0.0790    2.4030 ha        1 NP7      0.206000
     32 HAK         5.0940   -0.4470    3.4970 h4        1 NP7      0.148000
     33 HAL         6.7870   -3.4560    4.1860 ha        1 NP7      0.201000
     34 HAM         4.1440    1.1270    1.9470 h1        1 NP7      0.093250
     35 HAMA        2.8080    0.6120    3.0800 h1        1 NP7      0.093250
     36 HAN         3.0490   -2.9160    1.5580 h1        1 NP7      0.093250
     37 HANA        2.0670   -1.7440   -0.2450 h1        1 NP7      0.076750
     38 HAO         1.7770    1.8020    1.2670 h1        1 NP7      0.076750
     39 HAOA        2.7680    0.9410    0.0010 h1        1 NP7      0.076750
     40 HAP         0.7080   -2.1900    0.9030 h1        1 NP7      0.076750
     41 HAPA        2.1290   -2.0030    2.8410 h1        1 NP7      0.093250
     42 HNAQ        5.1330   -3.0870    0.8640 hn        1 NP7      0.247000
     43 NAZ         8.6110   -1.6860    5.0590 no        1 NP7      0.812400
     44 NAQ         5.5120   -3.3650    1.7470 ns        1 NP7     -0.292000
     45 ClAE        7.3500   -6.6110    0.9440 cl        1 NP7      0.032000
@<TRIPOS>BOND
     1    1   25 1   
     2    1   26 1   
     3    2   16 1   
     4    3   43 2   
     5    4   43 2   
     6    5    7 1   
     7    6    8 1   
     8    6   27 1   
     9    6   28 1   
    10    6   30 1   
    11    7   17 1   
    12    7   29 1   
    13    8   20 1   
    14    9   10 1   
    15    9   18 1   
    16    9   31 1   
    17   11   18 1   
    18   11   19 1   
    19   11   33 1   
    20   12   14 1   
    21   12   22 1   
    22   12   38 1   
    23   12   39 1   
    24   13   15 1   
    25   13   22 1   
    26   13   37 1   
    27   13   40 1   
    28   14   23 1   
    29   14   34 1   
    30   14   35 1   
    31   15   23 1   
    32   15   36 1   
    33   15   41 1   
    34   16   20 1   
    35   16   44 1   
    36   17   20 1   
    37   17   45 1   
    38   18   43 1   
    39   19   21 1   
    40   19   44 1   
    41   21   23 1   
    42   21   32 1   
    43   22   24 1   
    44   42   44 1   
@<TRIPOS>SUBSTRUCTURE
     1 NP7         1 TEMP              0 ****  ****    0 ROOT
