@<TRIPOS>MOLECULE
NP8
   50    53     1     0     0
SMALL
bcc


@<TRIPOS>ATOM
      1 C01         0.0890   -0.0660   -0.1030 c3        1 NP8      0.110700
      2 O05         1.5090   -0.0220    0.0100 os        1 NP8     -0.317900
      3 C06         2.0110   -0.0430    1.2930 ca        1 NP8      0.011800
      4 C07         1.2290   -0.1060    2.4670 ca        1 NP8      0.326200
      5 N09         1.7740   -0.1280    3.6970 nb        1 NP8     -0.633000
      6 C10         3.1120   -0.0850    3.7970 ca        1 NP8      0.367200
      7 C12         3.9800   -0.0140    2.6790 cp        1 NP8     -0.118300
      8 C13         3.4130    0.0010    1.4010 ca        1 NP8     -0.112000
      9 C15         5.4270    0.0010    2.8480 cp        1 NP8     -0.134300
     10 C16         6.2020   -0.9750    2.2090 ca        1 NP8      0.402200
     11 N18         7.5370   -1.0900    2.3310 nb        1 NP8     -0.688000
     12 C19         8.2110   -0.1940    3.0910 ca        1 NP8      0.587200
     13 N20         9.6250   -0.2400    3.2080 nu        1 NP8     -0.822900
     14 C22        10.3900   -1.1500    2.3640 c3        1 NP8      0.193500
     15 C24        11.8500   -0.6700    2.2680 c3        1 NP8     -0.093400
     16 C27        12.6340   -1.5780    1.3230 c3        1 NP8      0.165300
     17 N30        12.5740   -2.9770    1.6960 n7        1 NP8     -0.823200
     18 C32        11.2250   -3.4720    1.8860 c3        1 NP8      0.165300
     19 C35        10.3970   -2.6120    2.8370 c3        1 NP8     -0.093400
     20 C38         7.5090    0.8980    3.7600 ca        1 NP8     -0.041700
     21 N39         8.1810    1.8530    4.5110 ns        1 NP8     -0.431100
     22 C41         7.5230    2.9070    5.1550 c         1 NP8      0.686700
     23 O42         8.2130    3.7270    5.7920 o         1 NP8     -0.628500
     24 C43         6.0530    2.9670    5.0300 cc        1 NP8     -0.146400
     25 C44         5.3860    4.0850    5.7290 c3        1 NP8     -0.051900
     26 C48         5.3950    2.0410    4.2950 cd        1 NP8     -0.065200
     27 C50         6.0960    0.9660    3.6340 ca        1 NP8     -0.063800
     28 H011       -0.3120   -1.0120    0.3350 h1        1 NP8      0.049033
     29 H012       -0.3730    0.8230    0.3900 h1        1 NP8      0.049033
     30 H013       -0.0810   -0.0380   -1.2100 h1        1 NP8      0.049033
     31 H07         0.1270   -0.1420    2.4300 h4        1 NP8      0.029100
     32 H13         4.0360    0.0510    0.4960 ha        1 NP8      0.161000
     33 H10         3.5230   -0.1150    4.8220 h4        1 NP8      0.031100
     34 H16         5.7280   -1.7390    1.5650 h4        1 NP8      0.031100
     35 H20         9.9020   -0.3150    4.1690 hn        1 NP8      0.391800
     36 H22         9.9490   -1.1150    1.3240 h1        1 NP8      0.078700
     37 H241       11.8900    0.3760    1.8690 hc        1 NP8      0.055200
     38 H242       12.3260   -0.6730    3.2820 hc        1 NP8      0.055200
     39 H351       10.8210   -2.6750    3.8730 hc        1 NP8      0.055200
     40 H352        9.3550   -3.0220    2.8640 hc        1 NP8      0.055200
     41 H271       13.7180   -1.2720    1.3460 h1        1 NP8      0.030700
     42 H272       12.2530   -1.4030    0.2720 h1        1 NP8      0.030700
     43 H30        13.0510   -3.5350    1.0120 hn        1 NP8      0.364800
     44 H321       11.3080   -4.5100    2.3160 h1        1 NP8      0.030700
     45 H322       10.6620   -3.5530    0.9080 h1        1 NP8      0.030700
     46 H39         9.1790    1.8670    4.5140 hn        1 NP8      0.342500
     47 H441        5.7970    5.0610    5.3660 hc        1 NP8      0.057367
     48 H442        5.5890    4.0200    6.8290 hc        1 NP8      0.057367
     49 H443        4.2820    4.0690    5.5610 hc        1 NP8      0.057367
     50 H48         4.2990    2.0870    4.1740 ha        1 NP8      0.155000
@<TRIPOS>BOND
     1    1    2 1   
     2    1   28 1   
     3    1   29 1   
     4    1   30 1   
     5    2    3 1   
     6    3    4 ar  
     7    3    8 ar  
     8    4    5 ar  
     9    4   31 1   
    10    5    6 ar  
    11    6    7 ar  
    12    6   33 1   
    13    7    8 ar  
    14    7    9 1   
    15    8   32 1   
    16    9   10 ar  
    17    9   27 ar  
    18   10   11 ar  
    19   10   34 1   
    20   11   12 ar  
    21   12   13 1   
    22   12   20 ar  
    23   13   14 1   
    24   13   35 1   
    25   14   15 1   
    26   14   19 1   
    27   14   36 1   
    28   15   16 1   
    29   15   37 1   
    30   15   38 1   
    31   16   17 1   
    32   16   41 1   
    33   16   42 1   
    34   17   18 1   
    35   17   43 1   
    36   18   19 1   
    37   18   44 1   
    38   18   45 1   
    39   19   39 1   
    40   19   40 1   
    41   20   21 1   
    42   20   27 ar  
    43   21   22 1   
    44   21   46 1   
    45   22   23 2   
    46   22   24 1   
    47   24   25 1   
    48   24   26 2   
    49   25   47 1   
    50   25   48 1   
    51   25   49 1   
    52   26   27 1   
    53   26   50 1   
@<TRIPOS>SUBSTRUCTURE
     1 NP8         1 TEMP              0 ****  ****    0 ROOT
