@<TRIPOS>MOLECULE
NP8
   50    53     1     0     0
SMALL
bcc


@<TRIPOS>ATOM
      1 C01         0.0890   -0.0660   -0.1030 c3        1 NP8      0.110700
      2 O05         1.5080   -0.0220    0.0110 os        1 NP8     -0.317900
      3 C06         2.0110   -0.0410    1.2930 ca        1 NP8      0.011800
      4 C07         1.2290   -0.1020    2.4670 ca        1 NP8      0.326200
      5 N09         1.7750   -0.1220    3.6980 nb        1 NP8     -0.633000
      6 C10         3.1120   -0.0800    3.7970 ca        1 NP8      0.367200
      7 C12         3.9800   -0.0110    2.6790 cp        1 NP8     -0.118300
      8 C13         3.4130    0.0030    1.4010 ca        1 NP8     -0.112000
      9 C15         5.4270    0.0040    2.8470 cp        1 NP8     -0.134300
     10 C16         6.2020   -0.9740    2.2090 ca        1 NP8      0.402200
     11 N18         7.5360   -1.0890    2.3310 nb        1 NP8     -0.688000
     12 C19         8.2110   -0.1940    3.0900 ca        1 NP8      0.587200
     13 N20         9.6250   -0.2400    3.2060 nh        1 NP8     -0.822900
     14 C22        10.3890   -1.1510    2.3640 c3        1 NP8      0.193500
     15 C24        11.8500   -0.6720    2.2660 c3        1 NP8     -0.093400
     16 C27        12.6320   -1.5830    1.3220 c3        1 NP8      0.165300
     17 N30        12.5720   -2.9810    1.6970 n3        1 NP8     -0.823200
     18 C32        11.2230   -3.4750    1.8880 c3        1 NP8      0.165300
     19 C35        10.3950   -2.6130    2.8390 c3        1 NP8     -0.093400
     20 C38         7.5100    0.9000    3.7580 ca        1 NP8     -0.041700
     21 N39         8.1830    1.8550    4.5080 n         1 NP8     -0.431100
     22 C41         7.5260    2.9100    5.1510 c         1 NP8      0.686700
     23 O42         8.2160    3.7310    5.7870 o         1 NP8     -0.628500
     24 C43         6.0550    2.9710    5.0270 cc        1 NP8     -0.146400
     25 C44         5.3900    4.0900    5.7260 c3        1 NP8     -0.051900
     26 C48         5.3970    2.0450    4.2920 cd        1 NP8     -0.065200
     27 C50         6.0970    0.9690    3.6320 ca        1 NP8     -0.063800
     28 H011       -0.0820   -0.0400   -1.2090 h1        1 NP8      0.049033
     29 H012       -0.3120   -1.0110    0.3370 h1        1 NP8      0.049033
     30 H013       -0.3730    0.8240    0.3890 h1        1 NP8      0.049033
     31 H07         0.1270   -0.1370    2.4310 h4        1 NP8      0.029100
     32 H13         4.0350    0.0510    0.4960 ha        1 NP8      0.161000
     33 H10         3.5230   -0.1090    4.8220 h4        1 NP8      0.031100
     34 H16         5.7270   -1.7390    1.5660 h4        1 NP8      0.031100
     35 H20         9.9020   -0.3140    4.1680 hn        1 NP8      0.391800
     36 H22         9.9480   -1.1180    1.3230 h1        1 NP8      0.078700
     37 H241       11.8900    0.3730    1.8650 hc        1 NP8      0.055200
     38 H242       12.3250   -0.6750    3.2800 hc        1 NP8      0.055200
     39 H351       10.8200   -2.6750    3.8740 hc        1 NP8      0.055200
     40 H352        9.3540   -3.0220    2.8660 hc        1 NP8      0.055200
     41 H271       12.2520   -1.4090    0.2710 h1        1 NP8      0.030700
     42 H272       13.7170   -1.2770    1.3440 h1        1 NP8      0.030700
     43 H30        13.0480   -3.5400    1.0140 hn        1 NP8      0.364800
     44 H321       10.6590   -3.5570    0.9110 h1        1 NP8      0.030700
     45 H322       11.3050   -4.5120    2.3200 h1        1 NP8      0.030700
     46 H39         9.1800    1.8680    4.5100 hn        1 NP8      0.342500
     47 H441        5.5880    4.0220    6.8250 hc        1 NP8      0.057367
     48 H442        5.8050    5.0650    5.3650 hc        1 NP8      0.057367
     49 H443        4.2860    4.0770    5.5540 hc        1 NP8      0.057367
     50 H48         4.3010    2.0910    4.1720 ha        1 NP8      0.155000
@<TRIPOS>BOND
     1    1    2 1   
     2    1   28 1   
     3    1   29 1   
     4    1   30 1   
     5    2    3 1   
     6    3    4 ar  
     7    3    8 ar  
     8    4    5 ar  
     9    4   31 1   
    10    5    6 ar  
    11    6    7 ar  
    12    6   33 1   
    13    7    8 ar  
    14    7    9 1   
    15    8   32 1   
    16    9   10 ar  
    17    9   27 ar  
    18   10   11 ar  
    19   10   34 1   
    20   11   12 ar  
    21   12   13 1   
    22   12   20 ar  
    23   13   14 1   
    24   13   35 1   
    25   14   15 1   
    26   14   19 1   
    27   14   36 1   
    28   15   16 1   
    29   15   37 1   
    30   15   38 1   
    31   16   17 1   
    32   16   41 1   
    33   16   42 1   
    34   17   18 1   
    35   17   43 1   
    36   18   19 1   
    37   18   44 1   
    38   18   45 1   
    39   19   39 1   
    40   19   40 1   
    41   20   21 1   
    42   20   27 ar  
    43   21   22 1   
    44   21   46 1   
    45   22   23 2   
    46   22   24 1   
    47   24   25 1   
    48   24   26 2   
    49   25   47 1   
    50   25   48 1   
    51   25   49 1   
    52   26   27 1   
    53   26   50 1   
@<TRIPOS>SUBSTRUCTURE
     1 NP8         1 TEMP              0 ****  ****    0 ROOT
