@<TRIPOS>MOLECULE
NPA
   20    20     1     0     0
SMALL
bcc


@<TRIPOS>ATOM
      1 C1          0.0990    0.0830   -0.0730 ca        1 NPA     -0.053300
      2 C2          1.4700   -0.1600   -0.0490 ca        1 NPA     -0.070000
      3 C3          2.1760   -0.1890    1.1720 ca        1 NPA     -0.219200
      4 C4          1.4820    0.0420    2.3800 ca        1 NPA      0.156100
      5 C5          0.1010    0.2960    2.3470 ca        1 NPA     -0.241000
      6 C6         -0.5790    0.3170    1.1390 ca        1 NPA     -0.039000
      7 C7         -0.6470    0.0830   -1.3540 c3        1 NPA     -0.178100
      8 C8         -1.6820    1.2310   -1.4710 c         1 NPA      0.917600
      9 N1          3.6260   -0.4600    1.1620 no        1 NPA      0.324200
     10 O1          4.2580   -0.4110    2.1840 o         1 NPA     -0.233000
     11 O2          4.1640   -0.7320    0.1150 o         1 NPA     -0.233000
     12 O3          2.1840   -0.0010    3.5600 oh        1 NPA     -0.472100
     13 O4         -2.6360    1.2610   -0.6410 o         1 NPA     -0.834300
     14 O5         -1.5300    2.0500   -2.4150 o         1 NPA     -0.834300
     15 H2          2.0170   -0.3290   -0.9930 ha        1 NPA      0.163000
     16 H5         -0.4340    0.4860    3.2880 ha        1 NPA      0.131000
     17 H6         -1.6660    0.5460    1.0900 ha        1 NPA      0.211000
     18 H71        -1.2160   -0.8800   -1.4380 hc        1 NPA      0.046200
     19 H72         0.0590    0.1510   -2.2190 hc        1 NPA      0.046200
     20 HO3         1.5670    0.2200    4.2730 ho        1 NPA      0.412000
@<TRIPOS>BOND
     1    1    2 ar  
     2    1    6 ar  
     3    1    7 1   
     4    2    3 ar  
     5    2   15 1   
     6    3    4 ar  
     7    3    9 1   
     8    4    5 ar  
     9    4   12 1   
    10    5    6 ar  
    11    5   16 1   
    12    6   17 1   
    13    7    8 1   
    14    7   18 1   
    15    7   19 1   
    16    8   13 1   
    17    8   14 1   
    18    9   10 1   
    19    9   11 1   
    20   12   20 1   
@<TRIPOS>SUBSTRUCTURE
     1 NPA         1 TEMP              0 ****  ****    0 ROOT
