@<TRIPOS>MOLECULE
NPA
   20    17     1     0     0
SMALL
bcc


@<TRIPOS>ATOM
      1 C1         -0.6240    0.1770   -0.6340 c1        1 NPA     -0.019100
      2 C2          0.7620    0.1730   -0.6190 c1        1 NPA     -0.012500
      3 C3          1.4410    0.1550    0.5890 c1        1 NPA     -0.228300
      4 C4          0.7350    0.1400    1.7820 c1        1 NPA      0.139600
      5 C5         -0.6510    0.1450    1.7660 c1        1 NPA     -0.183500
      6 C6         -1.3310    0.1630    0.5580 c1        1 NPA      0.018500
      7 C7         -1.3650    0.2510   -1.9510 c3        1 NPA     -0.212300
      8 C8         -1.9050   -1.1170   -2.3030 c         1 NPA      0.917600
      9 N1          2.8600    0.1820    0.6060 no        1 NPA      0.333300
     10 O1          3.5320    0.0330    1.7850 o         1 NPA     -0.233000
     11 O2          3.4800    0.3470   -0.4350 o         1 NPA     -0.233000
     12 O3          1.4240    0.1420    3.0080 oh        1 NPA     -0.456600
     13 O4         -2.7310   -1.6830   -1.5400 o         1 NPA     -0.834300
     14 O5         -1.5540   -1.6760   -3.3760 o         1 NPA     -0.834300
     15 H2          1.2590    0.1830   -1.4580 ha        1 NPA      0.105500
     16 H5         -1.1490    0.1340    2.6060 ha        1 NPA      0.073500
     17 H6         -2.3070    0.1660    0.5480 ha        1 NPA      0.153500
     18 H71        -0.7540    0.5510   -2.6530 hc        1 NPA      0.046200
     19 H72        -2.1070    0.8840   -1.8730 hc        1 NPA      0.046200
     20 HO3         0.9870    0.6480    3.5940 ho        1 NPA      0.412000
@<TRIPOS>BOND
     1    1    6 3   
     2    1    7 1   
     3    2    3 3   
     4    2   15 1   
     5    3    9 1   
     6    4    5 3   
     7    4   12 1   
     8    5   16 1   
     9    6   17 1   
    10    7    8 1   
    11    7   18 1   
    12    7   19 1   
    13    8   13 1   
    14    8   14 1   
    15    9   10 1   
    16    9   11 1   
    17   12   20 1   
@<TRIPOS>SUBSTRUCTURE
     1 NPA         1 TEMP              0 ****  ****    0 ROOT
