@<TRIPOS>MOLECULE
NPA
   20    20     1     0     0
SMALL
bcc


@<TRIPOS>ATOM
      1 C1          0.1250    0.1450   -0.0920 ca        1 NPA     -0.053300
      2 C2          1.4980   -0.0820   -0.0140 ca        1 NPA     -0.070000
      3 C3          2.1570   -0.0930    1.2330 ca        1 NPA     -0.219200
      4 C4          1.4160    0.1400    2.4120 ca        1 NPA      0.156100
      5 C5          0.0340    0.3780    2.3250 ca        1 NPA     -0.241000
      6 C6         -0.6000    0.3810    1.0920 ca        1 NPA     -0.039000
      7 C7         -0.5720    0.1260   -1.3990 c3        1 NPA     -0.178100
      8 C8         -1.6130    1.2610   -1.5660 c         1 NPA      0.917600
      9 N1          3.6090   -0.3470    1.2800 no        1 NPA      0.324200
     10 O1          4.2020   -0.2800    2.3250 o         1 NPA     -0.233000
     11 O2          4.1890   -0.6250    0.2570 o         1 NPA     -0.233000
     12 O3          2.0730    0.1150    3.6180 oh        1 NPA     -0.473100
     13 O4         -2.5990    1.2870   -0.7720 o         1 NPA     -0.834300
     14 O5         -1.4350    2.0740   -2.5110 o         1 NPA     -0.834300
     15 H2          2.0820   -0.2530   -0.9350 ha        1 NPA      0.163000
     16 H5         -0.5380    0.5700    3.2430 ha        1 NPA      0.131000
     17 H6         -1.6870    0.5970    1.0000 ha        1 NPA      0.211000
     18 H71        -1.1260   -0.8450   -1.4970 hc        1 NPA      0.046200
     19 H72         0.1670    0.1950   -2.2380 hc        1 NPA      0.046200
     20 HO3         1.4270    0.3350    4.3050 ho        1 NPA      0.412000
@<TRIPOS>BOND
     1    1    2 ar  
     2    1    6 ar  
     3    1    7 1   
     4    2    3 ar  
     5    2   15 1   
     6    3    4 ar  
     7    3    9 1   
     8    4    5 ar  
     9    4   12 1   
    10    5    6 ar  
    11    5   16 1   
    12    6   17 1   
    13    7    8 1   
    14    7   18 1   
    15    7   19 1   
    16    8   13 1   
    17    8   14 1   
    18    9   10 1   
    19    9   11 1   
    20   12   20 1   
@<TRIPOS>SUBSTRUCTURE
     1 NPA         1 TEMP              0 ****  ****    0 ROOT
