@<TRIPOS>MOLECULE
NPA
   20    20     1     0     0
SMALL
bcc


@<TRIPOS>ATOM
      1 C1          0.0980    0.1330   -0.0680 ca        1 NPA     -0.053300
      2 C2          1.4620   -0.1450   -0.0250 ca        1 NPA     -0.070000
      3 C3          2.1640   -0.1220    1.1990 ca        1 NPA     -0.219200
      4 C4          1.4740    0.1960    2.3890 ca        1 NPA      0.156100
      5 C5          0.1000    0.4840    2.3360 ca        1 NPA     -0.241000
      6 C6         -0.5770    0.4530    1.1260 ca        1 NPA     -0.039000
      7 C7         -0.6450    0.0780   -1.3490 c3        1 NPA     -0.178100
      8 C8         -1.6480    1.2440   -1.5370 c         1 NPA      0.917600
      9 N1          3.6060   -0.4310    1.2100 no        1 NPA      0.324200
     10 O1          4.2370   -0.3390    2.2300 o         1 NPA     -0.233000
     11 O2          4.1390   -0.7790    0.1830 o         1 NPA     -0.233000
     12 O3          2.1710    0.2030    3.5720 oh        1 NPA     -0.472100
     13 O4         -2.6040    1.3470   -0.7130 o         1 NPA     -0.834300
     14 O5         -1.4730    2.0030   -2.5260 o         1 NPA     -0.834300
     15 H2          2.0070   -0.3820   -0.9550 ha        1 NPA      0.163000
     16 H5         -0.4320    0.7420    3.2620 ha        1 NPA      0.131000
     17 H6         -1.6570    0.7070    1.0600 ha        1 NPA      0.211000
     18 H71        -1.2390   -0.8730   -1.3810 hc        1 NPA      0.046200
     19 H72         0.0660    0.0780   -2.2150 hc        1 NPA      0.046200
     20 HO3         1.5580    0.4800    4.2690 ho        1 NPA      0.412000
@<TRIPOS>BOND
     1    1    2 ar  
     2    1    6 ar  
     3    1    7 1   
     4    2    3 ar  
     5    2   15 1   
     6    3    4 ar  
     7    3    9 1   
     8    4    5 ar  
     9    4   12 1   
    10    5    6 ar  
    11    5   16 1   
    12    6   17 1   
    13    7    8 1   
    14    7   18 1   
    15    7   19 1   
    16    8   13 1   
    17    8   14 1   
    18    9   10 1   
    19    9   11 1   
    20   12   20 1   
@<TRIPOS>SUBSTRUCTURE
     1 NPA         1 TEMP              0 ****  ****    0 ROOT
