@<TRIPOS>MOLECULE
NPA
   20    20     1     0     0
SMALL
bcc


@<TRIPOS>ATOM
      1 C1          0.2560   -0.5410    0.9970 ca        1 NPA     -0.051300
      2 C2         -0.6060   -0.6430   -0.0870 ca        1 NPA     -0.075000
      3 C3         -0.1670   -0.3300   -1.3970 ca        1 NPA     -0.272200
      4 C4          1.1600    0.1090   -1.6000 ca        1 NPA      0.184100
      5 C5          2.0220    0.2210   -0.4880 ca        1 NPA     -0.194000
      6 C6          1.5790   -0.0970    0.7830 ca        1 NPA     -0.039000
      7 C7         -0.1930   -0.9000    2.3620 c3        1 NPA     -0.179100
      8 C8          0.2480    0.1160    3.4460 c         1 NPA      0.918600
      9 N1         -1.1240   -0.4750   -2.5020 no        1 NPA      0.324200
     10 O1         -0.7970   -0.1650   -3.6270 o         1 NPA     -0.248500
     11 O2         -2.2280   -0.9060   -2.2900 o         1 NPA     -0.248500
     12 O3          1.7400    0.4290   -2.7980 oh        1 NPA     -0.513100
     13 O4          1.4880    0.2780    3.6400 o         1 NPA     -0.833800
     14 O5         -0.6600    0.6950    4.0980 o         1 NPA     -0.833800
     15 H2         -1.6480   -0.9700    0.0680 ha        1 NPA      0.161000
     16 H5          3.0500    0.5720   -0.6600 ha        1 NPA      0.148000
     17 H6          2.2360    0.0180    1.6720 ha        1 NPA      0.212000
     18 H71         0.2550   -1.8910    2.6400 hc        1 NPA      0.045700
     19 H72        -1.3080   -0.9960    2.3970 hc        1 NPA      0.045700
     20 HO3         1.0770    0.4780   -3.5030 ho        1 NPA      0.450000
@<TRIPOS>BOND
     1    1    2 ar  
     2    1    6 ar  
     3    1    7 1   
     4    2    3 ar  
     5    2   15 1   
     6    3    4 ar  
     7    3    9 1   
     8    4    5 ar  
     9    4   12 1   
    10    5    6 ar  
    11    5   16 1   
    12    6   17 1   
    13    7    8 1   
    14    7   18 1   
    15    7   19 1   
    16    8   13 1   
    17    8   14 1   
    18    9   10 1   
    19    9   11 1   
    20   12   20 1   
@<TRIPOS>SUBSTRUCTURE
     1 NPA         1 TEMP              0 ****  ****    0 ROOT
